Pocket2Mol_83_num_sample_100
     RDKit          3D

  0  0  0  0  0  0  0  0  0  0999 V3000
M  V30 BEGIN CTAB
M  V30 COUNTS 21 22 0 0 1
M  V30 BEGIN ATOM
M  V30 1 C 12.352340 9.383617 -4.355466 0
M  V30 2 O 11.812322 8.032521 -4.164561 0
M  V30 3 C 11.292609 7.770349 -5.383183 0
M  V30 4 C 11.435436 8.739689 -6.306287 0
M  V30 5 C 10.958188 8.582673 -7.621241 0
M  V30 6 C 12.124643 9.938449 -5.835120 0
M  V30 7 C 10.653980 6.569316 -5.690434 0
M  V30 8 C 10.309427 7.376006 -7.979754 0
M  V30 9 N 9.835265 7.180016 -9.298890 0
M  V30 10 C 10.161319 6.359931 -6.997221 0
M  V30 11 O 9.034892 6.047044 -9.452513 0
M  V30 12 O 9.434913 8.358237 -9.948161 0
M  V30 13 H 13.419601 9.379922 -4.126854 0
M  V30 14 H 11.872287 10.044029 -3.633419 0
M  V30 15 H 11.092803 9.369265 -8.346747 0
M  V30 16 H 13.069394 10.103451 -6.349639 0
M  V30 17 H 11.481203 10.819092 -5.864372 0
M  V30 18 H 10.547754 5.801104 -4.938443 0
M  V30 19 H 9.674847 5.429174 -7.242256 0
M  V30 20 H 8.157481 6.332767 -9.206632 0
M  V30 21 H 8.467711 8.356968 -9.891667 0
M  V30 END ATOM
M  V30 BEGIN BOND
M  V30 1 1 2 1
M  V30 2 1 3 2
M  V30 3 2 4 3
M  V30 4 1 5 4
M  V30 5 1 6 1
M  V30 6 1 6 4
M  V30 7 1 7 3
M  V30 8 2 8 5
M  V30 9 1 9 8
M  V30 10 2 10 7
M  V30 11 1 10 8
M  V30 12 1 11 9
M  V30 13 1 12 9
M  V30 14 1 13 1
M  V30 15 1 14 1
M  V30 16 1 15 5
M  V30 17 1 16 6
M  V30 18 1 17 6
M  V30 19 1 18 7
M  V30 20 1 19 10
M  V30 21 1 20 11
M  V30 22 1 21 12
M  V30 END BOND
M  V30 END CTAB
M  END
>  <i_epik_Tot_Q>  (1) 
0

>  <i_epik_Tot_abs_Q>  (1) 
0

>  <i_i_glide_confnum>  (1) 
1

>  <i_i_glide_lignum>  (1) 
90

>  <i_i_glide_posenum>  (1) 
17

>  <i_i_glide_rotatable_bonds>  (1) 
3

>  <i_lp_mmshare_version>  (1) 
72125

>  <i_m_source_file_index>  (1) 
84

>  <i_f3d_flags>  (1) 
0

>  <num_sample>  (1) 
100

>  <b_lp_Chiralities_Consistent>  (1) 
1

>  <r_epik_Charging_Adjusted_Penalty>  (1) 
0

>  <r_epik_Ionization_Penalty>  (1) 
0.00063218327523872333

>  <r_epik_Ionization_Penalty_Charging>  (1) 
0

>  <r_epik_Ionization_Penalty_Neutral>  (1) 
0.00063218327523872333

>  <r_epik_State_Penalty>  (1) 
-0

>  <r_glide_ring_energy>  (1) 
0

>  <r_i_docking_score>  (1) 
-7.0594219132467071

>  <r_i_glide_ecoul>  (1) 
-9.0749470995183685

>  <r_i_glide_eff_state_penalty>  (1) 
-0

>  <r_i_glide_einternal>  (1) 
1.9837406596581784

>  <r_i_glide_emodel>  (1) 
-41.699635121029651

>  <r_i_glide_emodel_strain>  (1) 
0.29235566107884381

>  <r_i_glide_energy>  (1) 
-28.397861216057581

>  <r_i_glide_erotb>  (1) 
0

>  <r_i_glide_esite>  (1) 
-0.10000000000000001

>  <r_i_glide_evdw>  (1) 
-19.322914116539213

>  <r_i_glide_gscore>  (1) 
-7.0594219132467071

>  <r_i_glide_gscore_strain>  (1) 
0

>  <r_i_glide_hbond>  (1) 
-0.28230636518745655

>  <r_i_glide_ligand_efficiency>  (1) 
-0.58828515943722559

>  <r_i_glide_ligand_efficiency_ln>  (1) 
-2.0257133469202562

>  <r_i_glide_ligand_efficiency_sa>  (1) 
-1.3468368013810996

>  <r_i_glide_lipo>  (1) 
-1.7256940345300436

>  <r_i_glide_metal>  (1) 
-0

>  <r_i_glide_rewards>  (1) 
-2.624033742774492

>  <r_lp_Energy>  (1) 
14.636832

>  <r_lp_tautomer_probability>  (1) 
1

>  <s_epik_Chemistry_Notes>  (1) 
This compound has a N-S or N-O group and may undergo hydrolysis at high or low pH.

>  <s_epik_cmdline>  (1) 
J2VwaWtfcHl0aG9uJywgJy1waHQnLCAnMS4wJywgJy1waCcsICc3LjQnLCAnLXRuJywgJzgnLCAnLW1hJywgJzUwMCcsICctaW1hZScsICc8aW5maWxlLm1hZT4nLCAnLW9tYWUnLCAnPG91dGZpbGUubWFlPic=

>  <s_epik_input>  (1) 
TzFbQ0gyXVtDSDJdYyhjMTIpW2NIXWMoTihbT0hdKVtPSF0pW2NIXVtjSF0y

>  <s_glide_docking_method>  (1) 
confgen

>  <s_i_glide_gridfile>  (1) 
gpcr_drd2_6luq_protein_autoprepared_prepared

>  <s_lp_Force_Field>  (1) 
S-OPLS

>  <s_lp_Variant>  (1) 
Pocket2Mol_83_num_sample_100-1

>  <s_m_source_file>  (1) 
generated__ligand_Pocket2Mol_2026-05-06_prepared.sdf

>  <GenAI_Model>  (1) 
Pocket2Mol

>  <Protein>  (1) 
generic_title2

$$$$
Pocket2Mol_76_num_sample_100
     RDKit          3D

  0  0  0  0  0  0  0  0  0  0999 V3000
M  V30 BEGIN CTAB
M  V30 COUNTS 20 21 0 0 1
M  V30 BEGIN ATOM
M  V30 1 C 11.434839 8.932948 -5.244021 0
M  V30 2 O 10.341948 8.717237 -6.122099 0
M  V30 3 C 10.666630 8.364651 -7.414091 0
M  V30 4 C 12.498001 9.769301 -5.957648 0
M  V30 5 O 12.965949 9.045669 -7.091667 0
M  V30 6 C 11.987941 8.533986 -7.901395 0
M  V30 7 C 9.678538 7.836900 -8.257680 0
M  V30 8 C 9.996386 7.477611 -9.581879 0
M  V30 9 C 12.299818 8.169299 -9.225624 0
M  V30 10 O 13.568600 8.322073 -9.696453 0
M  V30 11 O 9.034839 6.969303 -10.396928 0
M  V30 12 C 11.303951 7.645139 -10.063550 0
M  V30 13 H 11.076844 9.452872 -4.355134 0
M  V30 14 H 11.834839 7.972506 -4.917884 0
M  V30 15 H 12.100258 10.737993 -6.264469 0
M  V30 16 H 13.342572 9.949536 -5.294074 0
M  V30 17 H 8.670403 7.706377 -7.889639 0
M  V30 18 H 13.943313 9.174383 -9.491662 0
M  V30 19 H 8.153378 7.207362 -10.065111 0
M  V30 20 H 11.543918 7.368142 -11.079443 0
M  V30 END ATOM
M  V30 BEGIN BOND
M  V30 1 1 2 1
M  V30 2 1 3 2
M  V30 3 1 4 1
M  V30 4 1 5 4
M  V30 5 1 6 3
M  V30 6 1 6 5
M  V30 7 2 7 3
M  V30 8 1 8 7
M  V30 9 2 9 6
M  V30 10 1 10 9
M  V30 11 1 11 8
M  V30 12 2 12 8
M  V30 13 1 12 9
M  V30 14 1 13 1
M  V30 15 1 14 1
M  V30 16 1 15 4
M  V30 17 1 16 4
M  V30 18 1 17 7
M  V30 19 1 18 10
M  V30 20 1 19 11
M  V30 21 1 20 12
M  V30 END BOND
M  V30 END CTAB
M  END
>  <i_epik_Tot_Q>  (1) 
0

>  <i_epik_Tot_abs_Q>  (1) 
0

>  <i_i_glide_confnum>  (1) 
2

>  <i_i_glide_lignum>  (1) 
83

>  <i_i_glide_posenum>  (1) 
296

>  <i_i_glide_rotatable_bonds>  (1) 
2

>  <i_lp_mmshare_version>  (1) 
72125

>  <i_m_source_file_index>  (1) 
77

>  <i_f3d_flags>  (1) 
0

>  <num_sample>  (1) 
100

>  <b_lp_Chiralities_Consistent>  (1) 
1

>  <r_epik_Charging_Adjusted_Penalty>  (1) 
0

>  <r_epik_Ionization_Penalty>  (1) 
0.012400157081266662

>  <r_epik_Ionization_Penalty_Charging>  (1) 
0

>  <r_epik_Ionization_Penalty_Neutral>  (1) 
0.012400157081266662

>  <r_epik_State_Penalty>  (1) 
-0

>  <r_glide_ring_energy>  (1) 
0.0030882677572799519

>  <r_i_docking_score>  (1) 
-7.0322127259893961

>  <r_i_glide_ecoul>  (1) 
-11.624599767126902

>  <r_i_glide_eff_state_penalty>  (1) 
-0

>  <r_i_glide_einternal>  (1) 
2.234435636462798

>  <r_i_glide_emodel>  (1) 
-35.000661586158522

>  <r_i_glide_emodel_strain>  (1) 
0.97378609279431316

>  <r_i_glide_energy>  (1) 
-24.995981155710854

>  <r_i_glide_erotb>  (1) 
0

>  <r_i_glide_esite>  (1) 
0

>  <r_i_glide_evdw>  (1) 
-13.371381388583952

>  <r_i_glide_gscore>  (1) 
-7.0322127259893961

>  <r_i_glide_gscore_strain>  (1) 
0

>  <r_i_glide_hbond>  (1) 
-0.4549350249097926

>  <r_i_glide_ligand_efficiency>  (1) 
-0.58601772716578304

>  <r_i_glide_ligand_efficiency_ln>  (1) 
-2.0179056235027675

>  <r_i_glide_ligand_efficiency_sa>  (1) 
-1.341645677350809

>  <r_i_glide_lipo>  (1) 
-1.5270217665572923

>  <r_i_glide_metal>  (1) 
-0

>  <r_i_glide_rewards>  (1) 
-2.6379969000240777

>  <r_lp_Energy>  (1) 
12.367407

>  <r_lp_tautomer_probability>  (1) 
1

>  <s_epik_cmdline>  (1) 
J2VwaWtfcHl0aG9uJywgJy1waHQnLCAnMS4wJywgJy1waCcsICc3LjQnLCAnLXRuJywgJzgnLCAnLW1hJywgJzUwMCcsICctaW1hZScsICc8aW5maWxlLm1hZT4nLCAnLW9tYWUnLCAnPG91dGZpbGUubWFlPic=

>  <s_epik_input>  (1) 
TzFbQ0gyXVtDSDJdT2MoYzEyKWMoW09IXSlbY0hdYyhbY0hdMilbT0hd

>  <s_glide_docking_method>  (1) 
confgen

>  <s_i_glide_gridfile>  (1) 
gpcr_drd2_6luq_protein_autoprepared_prepared

>  <s_lp_Force_Field>  (1) 
S-OPLS

>  <s_lp_Variant>  (1) 
Pocket2Mol_76_num_sample_100-1

>  <s_m_source_file>  (1) 
generated__ligand_Pocket2Mol_2026-05-06_prepared.sdf

>  <GenAI_Model>  (1) 
Pocket2Mol

>  <Protein>  (1) 
generic_title2

$$$$
Pocket2Mol_54_num_sample_100
     RDKit          3D

  0  0  0  0  0  0  0  0  0  0999 V3000
M  V30 BEGIN CTAB
M  V30 COUNTS 18 19 0 0 1
M  V30 BEGIN ATOM
M  V30 1 C 10.698639 8.663306 -6.906441 0
M  V30 2 O 11.356333 9.571861 -5.937819 0
M  V30 3 C 11.609277 8.733443 -4.909719 0
M  V30 4 C 11.230505 7.451130 -5.091667 0
M  V30 5 C 11.434839 6.480605 -4.101297 0
M  V30 6 C 12.227641 9.145973 -3.714881 0
M  V30 7 C 12.445734 8.196100 -2.689960 0
M  V30 8 O 13.034839 8.569301 -1.518301 0
M  V30 9 C 12.047061 6.854611 -2.885349 0
M  V30 10 C 10.601972 7.162973 -6.381642 0
M  V30 11 H 9.693890 9.037188 -7.105454 0
M  V30 12 H 11.239235 8.699640 -7.852837 0
M  V30 13 H 11.123750 5.461774 -4.265978 0
M  V30 14 H 12.526403 10.169301 -3.582656 0
M  V30 15 H 13.298669 9.484427 -1.491672 0
M  V30 16 H 12.208658 6.119753 -2.109632 0
M  V30 17 H 11.192370 6.461608 -6.972064 0
M  V30 18 H 9.574992 6.812341 -6.268630 0
M  V30 END ATOM
M  V30 BEGIN BOND
M  V30 1 1 2 1
M  V30 2 1 3 2
M  V30 3 2 4 3
M  V30 4 1 5 4
M  V30 5 1 6 3
M  V30 6 2 7 6
M  V30 7 1 8 7
M  V30 8 2 9 5
M  V30 9 1 9 7
M  V30 10 1 10 1
M  V30 11 1 10 4
M  V30 12 1 11 1
M  V30 13 1 12 1
M  V30 14 1 13 5
M  V30 15 1 14 6
M  V30 16 1 15 8
M  V30 17 1 16 9
M  V30 18 1 17 10
M  V30 19 1 18 10
M  V30 END BOND
M  V30 END CTAB
M  END
>  <i_epik_Tot_Q>  (1) 
0

>  <i_epik_Tot_abs_Q>  (1) 
0

>  <i_i_glide_confnum>  (1) 
1

>  <i_i_glide_lignum>  (1) 
61

>  <i_i_glide_posenum>  (1) 
241

>  <i_i_glide_rotatable_bonds>  (1) 
1

>  <i_lp_mmshare_version>  (1) 
72125

>  <i_m_source_file_index>  (1) 
55

>  <i_f3d_flags>  (1) 
0

>  <num_sample>  (1) 
100

>  <b_lp_Chiralities_Consistent>  (1) 
1

>  <r_epik_Charging_Adjusted_Penalty>  (1) 
0

>  <r_epik_Ionization_Penalty>  (1) 
0.0019697177408658601

>  <r_epik_Ionization_Penalty_Charging>  (1) 
0

>  <r_epik_Ionization_Penalty_Neutral>  (1) 
0.0019697177408658601

>  <r_epik_State_Penalty>  (1) 
-0

>  <r_glide_ring_energy>  (1) 
0

>  <r_i_docking_score>  (1) 
-6.901501179335563

>  <r_i_glide_ecoul>  (1) 
-5.2230737886957384

>  <r_i_glide_eff_state_penalty>  (1) 
-0

>  <r_i_glide_einternal>  (1) 
0.0037205167435037934

>  <r_i_glide_emodel>  (1) 
-34.915771378022725

>  <r_i_glide_emodel_strain>  (1) 
0

>  <r_i_glide_energy>  (1) 
-24.671621069898492

>  <r_i_glide_erotb>  (1) 
0

>  <r_i_glide_esite>  (1) 
0

>  <r_i_glide_evdw>  (1) 
-19.448547281202753

>  <r_i_glide_gscore>  (1) 
-6.901501179335563

>  <r_i_glide_gscore_strain>  (1) 
0

>  <r_i_glide_hbond>  (1) 
-0.32000000000000001

>  <r_i_glide_ligand_efficiency>  (1) 
-0.6901501179335563

>  <r_i_glide_ligand_efficiency_ln>  (1) 
-2.0897269820469107

>  <r_i_glide_ligand_efficiency_sa>  (1) 
-1.4868833554056495

>  <r_i_glide_lipo>  (1) 
-2.1468873490617004

>  <r_i_glide_metal>  (1) 
-0

>  <r_i_glide_rewards>  (1) 
-2.6787253979093637

>  <r_lp_Energy>  (1) 
8.5284040000000001

>  <r_lp_tautomer_probability>  (1) 
1

>  <s_epik_cmdline>  (1) 
J2VwaWtfcHl0aG9uJywgJy1waHQnLCAnMS4wJywgJy1waCcsICc3LjQnLCAnLXRuJywgJzgnLCAnLW1hJywgJzUwMCcsICctaW1hZScsICc8aW5maWxlLm1hZT4nLCAnLW9tYWUnLCAnPG91dGZpbGUubWFlPic=

>  <s_epik_input>  (1) 
TzFbQ0gyXVtDSDJdYyhjMTIpW2NIXVtjSF1jKFtjSF0yKVtPSF0=

>  <s_glide_docking_method>  (1) 
confgen

>  <s_i_glide_gridfile>  (1) 
gpcr_drd2_6luq_protein_autoprepared_prepared

>  <s_lp_Force_Field>  (1) 
S-OPLS

>  <s_lp_Variant>  (1) 
Pocket2Mol_54_num_sample_100-1

>  <s_m_source_file>  (1) 
generated__ligand_Pocket2Mol_2026-05-06_prepared.sdf

>  <GenAI_Model>  (1) 
Pocket2Mol

>  <Protein>  (1) 
generic_title2

$$$$
Pocket2Mol_86_num_sample_100
     RDKit          3D

  0  0  0  0  0  0  0  0  0  0999 V3000
M  V30 BEGIN CTAB
M  V30 COUNTS 25 26 0 0 1
M  V30 BEGIN ATOM
M  V30 1 C 10.096120 7.228596 -8.142026 0
M  V30 2 O 10.615358 8.569303 -7.798446 0
M  V30 3 C 11.028531 8.393343 -6.524232 0
M  V30 4 C 10.882816 7.148208 -6.028681 0
M  V30 5 C 11.272541 6.824963 -4.717512 0
M  V30 6 C 10.293637 6.178672 -6.957185 0
M  V30 7 C 11.575994 9.427758 -5.748860 0
M  V30 8 C 11.834878 7.839406 -3.891879 0
M  V30 9 N 12.234811 7.549287 -2.558496 0
M  V30 10 C 11.982857 9.154975 -4.423115 0
M  V30 11 C 12.174798 6.169078 -2.095913 0
M  V30 12 C 12.891117 8.592385 -1.781051 0
M  V30 13 H 9.035766 7.321366 -8.379911 0
M  V30 14 H 10.591018 6.873235 -9.046530 0
M  V30 15 H 11.139658 5.819735 -4.349222 0
M  V30 16 H 11.000040 5.387809 -7.207635 0
M  V30 17 H 9.351517 5.770851 -6.590389 0
M  V30 18 H 11.684207 10.420258 -6.160698 0
M  V30 19 H 12.402631 9.943742 -3.822077 0
M  V30 20 H 12.634771 5.485923 -2.805908 0
M  V30 21 H 12.707098 6.045059 -1.153529 0
M  V30 22 H 11.139197 5.865967 -1.939052 0
M  V30 23 H 13.776460 8.968226 -2.291667 0
M  V30 24 H 12.210429 9.425238 -1.600186 0
M  V30 25 H 13.208071 8.217424 -0.808193 0
M  V30 END ATOM
M  V30 BEGIN BOND
M  V30 1 1 2 1
M  V30 2 1 3 2
M  V30 3 2 4 3
M  V30 4 1 5 4
M  V30 5 1 6 1
M  V30 6 1 6 4
M  V30 7 1 7 3
M  V30 8 2 8 5
M  V30 9 1 9 8
M  V30 10 2 10 7
M  V30 11 1 10 8
M  V30 12 1 11 9
M  V30 13 1 12 9
M  V30 14 1 13 1
M  V30 15 1 14 1
M  V30 16 1 15 5
M  V30 17 1 16 6
M  V30 18 1 17 6
M  V30 19 1 18 7
M  V30 20 1 19 10
M  V30 21 1 20 11
M  V30 22 1 21 11
M  V30 23 1 22 11
M  V30 24 1 23 12
M  V30 25 1 24 12
M  V30 26 1 25 12
M  V30 END BOND
M  V30 END CTAB
M  END
>  <i_epik_Tot_Q>  (1) 
0

>  <i_epik_Tot_abs_Q>  (1) 
0

>  <i_i_glide_confnum>  (1) 
1

>  <i_i_glide_lignum>  (1) 
93

>  <i_i_glide_posenum>  (1) 
255

>  <i_i_glide_rotatable_bonds>  (1) 
1

>  <i_lp_mmshare_version>  (1) 
72125

>  <i_m_source_file_index>  (1) 
87

>  <i_f3d_flags>  (1) 
0

>  <num_sample>  (1) 
100

>  <b_lp_Chiralities_Consistent>  (1) 
1

>  <r_epik_Charging_Adjusted_Penalty>  (1) 
0.017477600144237933

>  <r_epik_Ionization_Penalty>  (1) 
0.017477600144237951

>  <r_epik_Ionization_Penalty_Charging>  (1) 
0

>  <r_epik_Ionization_Penalty_Neutral>  (1) 
0.017477600144237951

>  <r_epik_State_Penalty>  (1) 
0.017477600144237933

>  <r_glide_ring_energy>  (1) 
0

>  <r_i_docking_score>  (1) 
-6.8694285850764922

>  <r_i_glide_ecoul>  (1) 
-1.9884845876367958

>  <r_i_glide_eff_state_penalty>  (1) 
0.017477600144237933

>  <r_i_glide_einternal>  (1) 
0.043978463249256361

>  <r_i_glide_emodel>  (1) 
-37.26923665776286

>  <r_i_glide_emodel_strain>  (1) 
0.15510689568320402

>  <r_i_glide_energy>  (1) 
-26.382567957139223

>  <r_i_glide_erotb>  (1) 
0

>  <r_i_glide_esite>  (1) 
0

>  <r_i_glide_evdw>  (1) 
-24.394083369502425

>  <r_i_glide_gscore>  (1) 
-6.8869061852207301

>  <r_i_glide_gscore_strain>  (1) 
0

>  <r_i_glide_hbond>  (1) 
0

>  <r_i_glide_ligand_efficiency>  (1) 
-0.57245238208970772

>  <r_i_glide_ligand_efficiency_ln>  (1) 
-1.9711944322796666

>  <r_i_glide_ligand_efficiency_sa>  (1) 
-1.3105887899233406

>  <r_i_glide_lipo>  (1) 
-2.102263714625455

>  <r_i_glide_metal>  (1) 
-0

>  <r_i_glide_rewards>  (1) 
-3.2666656139746344

>  <r_lp_Energy>  (1) 
28.069341999999999

>  <r_lp_tautomer_probability>  (1) 
1

>  <s_epik_cmdline>  (1) 
J2VwaWtfcHl0aG9uJywgJy1waHQnLCAnMS4wJywgJy1waCcsICc3LjQnLCAnLXRuJywgJzgnLCAnLW1hJywgJzUwMCcsICctaW1hZScsICc8aW5maWxlLm1hZT4nLCAnLW9tYWUnLCAnPG91dGZpbGUubWFlPic=

>  <s_epik_input>  (1) 
TzFbQ0gyXVtDSDJdYyhjMTIpW2NIXWMoTihbQ0gzXSlbQ0gzXSlbY0hdW2NIXTI=

>  <s_glide_docking_method>  (1) 
confgen

>  <s_i_glide_gridfile>  (1) 
gpcr_drd2_6luq_protein_autoprepared_prepared

>  <s_lp_Force_Field>  (1) 
S-OPLS

>  <s_lp_Variant>  (1) 
Pocket2Mol_86_num_sample_100-1

>  <s_m_source_file>  (1) 
generated__ligand_Pocket2Mol_2026-05-06_prepared.sdf

>  <GenAI_Model>  (1) 
Pocket2Mol

>  <Protein>  (1) 
generic_title2

$$$$
Pocket2Mol_93_num_sample_100
     RDKit          3D

  0  0  0  0  0  0  0  0  0  0999 V3000
M  V30 BEGIN CTAB
M  V30 COUNTS 23 25 0 0 1
M  V30 BEGIN ATOM
M  V30 1 C 12.539973 8.533224 -1.991173 0
M  V30 2 O 12.480184 9.515229 -3.091696 0
M  V30 3 C 12.017133 8.768784 -4.112415 0
M  V30 4 C 11.834843 7.458319 -3.842533 0
M  V30 5 C 11.340647 6.569301 -4.810757 0
M  V30 6 C 11.034825 7.059701 -6.099465 0
M  V30 7 O 10.544801 6.205426 -7.060479 0
M  V30 8 C 12.178946 7.053745 -2.475333 0
M  V30 9 C 11.243148 8.442610 -6.392092 0
M  V30 10 O 10.971828 8.943007 -7.643890 0
M  V30 11 C 11.733292 9.301158 -5.382036 0
M  V30 12 C 9.882038 6.846391 -8.140988 0
M  V30 13 C 10.778866 7.972401 -8.665612 0
M  V30 14 H 13.528505 8.569304 -1.534763 0
M  V30 15 H 11.834754 8.850193 -1.221671 0
M  V30 16 H 11.192657 5.529049 -4.572518 0
M  V30 17 H 11.330748 6.617484 -1.946271 0
M  V30 18 H 13.034953 6.379901 -2.460694 0
M  V30 19 H 11.889549 10.350745 -5.583293 0
M  V30 20 H 9.687072 6.113858 -8.924568 0
M  V30 21 H 8.917151 7.234507 -7.812066 0
M  V30 22 H 11.742779 7.578870 -8.990780 0
M  V30 23 H 10.316630 8.455937 -9.526747 0
M  V30 END ATOM
M  V30 BEGIN BOND
M  V30 1 1 2 1
M  V30 2 1 3 2
M  V30 3 1 4 3
M  V30 4 2 5 4
M  V30 5 1 6 5
M  V30 6 1 7 6
M  V30 7 1 8 1
M  V30 8 1 8 4
M  V30 9 2 9 6
M  V30 10 1 10 9
M  V30 11 2 11 3
M  V30 12 1 11 9
M  V30 13 1 12 7
M  V30 14 1 13 10
M  V30 15 1 13 12
M  V30 16 1 14 1
M  V30 17 1 15 1
M  V30 18 1 16 5
M  V30 19 1 17 8
M  V30 20 1 18 8
M  V30 21 1 19 11
M  V30 22 1 20 12
M  V30 23 1 21 12
M  V30 24 1 22 13
M  V30 25 1 23 13
M  V30 END BOND
M  V30 END CTAB
M  END
>  <i_epik_Tot_Q>  (1) 
0

>  <i_epik_Tot_abs_Q>  (1) 
0

>  <i_i_glide_confnum>  (1) 
2

>  <i_i_glide_lignum>  (1) 
102

>  <i_i_glide_posenum>  (1) 
10

>  <i_i_glide_rotatable_bonds>  (1) 
0

>  <i_lp_mmshare_version>  (1) 
72125

>  <i_m_source_file_index>  (1) 
94

>  <i_f3d_flags>  (1) 
0

>  <num_sample>  (1) 
100

>  <b_lp_Chiralities_Consistent>  (1) 
1

>  <r_epik_Charging_Adjusted_Penalty>  (1) 
0

>  <r_epik_Ionization_Penalty>  (1) 
0

>  <r_epik_Ionization_Penalty_Charging>  (1) 
0

>  <r_epik_Ionization_Penalty_Neutral>  (1) 
0

>  <r_epik_State_Penalty>  (1) 
-0

>  <r_glide_ring_energy>  (1) 
0.0016243131038040329

>  <r_i_docking_score>  (1) 
-6.7554264214316024

>  <r_i_glide_ecoul>  (1) 
-1.1147121393212287

>  <r_i_glide_eff_state_penalty>  (1) 
-0

>  <r_i_glide_einternal>  (1) 
0

>  <r_i_glide_emodel>  (1) 
-38.199696811235683

>  <r_i_glide_emodel_strain>  (1) 
1.4788597013648541e-09

>  <r_i_glide_energy>  (1) 
-26.978956100568162

>  <r_i_glide_erotb>  (1) 
0

>  <r_i_glide_esite>  (1) 
0

>  <r_i_glide_evdw>  (1) 
-25.864243961246935

>  <r_i_glide_gscore>  (1) 
-6.7554264214316024

>  <r_i_glide_gscore_strain>  (1) 
0

>  <r_i_glide_hbond>  (1) 
0

>  <r_i_glide_ligand_efficiency>  (1) 
-0.51964818626396947

>  <r_i_glide_ligand_efficiency_ln>  (1) 
-1.8949571912690175

>  <r_i_glide_ligand_efficiency_sa>  (1) 
-1.2218668057736488

>  <r_i_glide_lipo>  (1) 
-2.3198656599844196

>  <r_i_glide_metal>  (1) 
-0

>  <r_i_glide_rewards>  (1) 
-2.9751417424866515

>  <r_lp_Energy>  (1) 
18.084001999999998

>  <r_lp_tautomer_probability>  (1) 
1

>  <s_epik_cmdline>  (1) 
J2VwaWtfcHl0aG9uJywgJy1waHQnLCAnMS4wJywgJy1waCcsICc3LjQnLCAnLXRuJywgJzgnLCAnLW1hJywgJzUwMCcsICctaW1hZScsICc8aW5maWxlLm1hZT4nLCAnLW9tYWUnLCAnPG91dGZpbGUubWFlPic=

>  <s_epik_input>  (1) 
TzFbQ0gyXVtDSDJdYyhjMTIpW2NIXWMzYyhbY0hdMilPW0NIMl1bQ0gyXU8z

>  <s_glide_docking_method>  (1) 
confgen

>  <s_i_glide_gridfile>  (1) 
gpcr_drd2_6luq_protein_autoprepared_prepared

>  <s_lp_Force_Field>  (1) 
S-OPLS

>  <s_lp_Variant>  (1) 
Pocket2Mol_93_num_sample_100-1

>  <s_m_source_file>  (1) 
generated__ligand_Pocket2Mol_2026-05-06_prepared.sdf

>  <GenAI_Model>  (1) 
Pocket2Mol

>  <Protein>  (1) 
generic_title2

$$$$
Pocket2Mol_84_num_sample_100
     RDKit          3D

  0  0  0  0  0  0  0  0  0  0999 V3000
M  V30 BEGIN CTAB
M  V30 COUNTS 23 24 0 0 1
M  V30 BEGIN ATOM
M  V30 1 C 11.872729 7.669451 -3.509129 0
M  V30 2 O 11.890937 8.889927 -4.342227 0
M  V30 3 C 11.434839 8.420140 -5.526480 0
M  V30 4 C 11.031253 7.135238 -5.531582 0
M  V30 5 C 10.535274 6.522441 -6.698200 0
M  V30 6 C 11.165546 6.441839 -4.247270 0
M  V30 7 C 10.478623 7.272725 -7.900244 0
M  V30 8 N 9.997455 6.692722 -9.099455 0
M  V30 9 C 11.406111 9.194253 -6.692278 0
M  V30 10 C 10.932215 8.615121 -7.892321 0
M  V30 11 O 9.434982 7.626113 -9.991577 0
M  V30 12 C 9.046653 5.597387 -8.929004 0
M  V30 13 H 11.434840 7.867637 -2.531996 0
M  V30 14 H 12.914534 7.408697 -3.313487 0
M  V30 15 H 10.215135 5.494622 -6.677564 0
M  V30 16 H 10.200915 6.169263 -3.825818 0
M  V30 17 H 11.826630 5.580251 -4.320195 0
M  V30 18 H 11.746661 10.217254 -6.676082 0
M  V30 19 H 10.912016 9.201206 -8.798378 0
M  V30 20 H 8.518305 7.769302 -9.707829 0
M  V30 21 H 8.532909 5.382023 -9.868624 0
M  V30 22 H 9.560606 4.680441 -8.637924 0
M  V30 23 H 8.286060 5.835282 -8.181522 0
M  V30 END ATOM
M  V30 BEGIN BOND
M  V30 1 1 2 1
M  V30 2 1 3 2
M  V30 3 2 4 3
M  V30 4 1 5 4
M  V30 5 1 6 1
M  V30 6 1 6 4
M  V30 7 2 7 5
M  V30 8 1 8 7
M  V30 9 1 9 3
M  V30 10 1 10 7
M  V30 11 2 10 9
M  V30 12 1 11 8
M  V30 13 1 12 8
M  V30 14 1 13 1
M  V30 15 1 14 1
M  V30 16 1 15 5
M  V30 17 1 16 6
M  V30 18 1 17 6
M  V30 19 1 18 9
M  V30 20 1 19 10
M  V30 21 1 20 11
M  V30 22 1 21 12
M  V30 23 1 22 12
M  V30 24 1 23 12
M  V30 END BOND
M  V30 END CTAB
M  END
>  <i_epik_Tot_Q>  (1) 
0

>  <i_epik_Tot_abs_Q>  (1) 
0

>  <i_i_glide_confnum>  (1) 
2

>  <i_i_glide_lignum>  (1) 
91

>  <i_i_glide_posenum>  (1) 
116

>  <i_i_glide_rotatable_bonds>  (1) 
2

>  <i_lp_mmshare_version>  (1) 
72125

>  <i_m_source_file_index>  (1) 
85

>  <i_f3d_flags>  (1) 
0

>  <num_sample>  (1) 
100

>  <b_lp_Chiralities_Consistent>  (1) 
1

>  <r_epik_Charging_Adjusted_Penalty>  (1) 
0

>  <r_epik_Ionization_Penalty>  (1) 
0.00097486698469066322

>  <r_epik_Ionization_Penalty_Charging>  (1) 
0

>  <r_epik_Ionization_Penalty_Neutral>  (1) 
0.00097486698469066322

>  <r_epik_State_Penalty>  (1) 
-0

>  <r_glide_ring_energy>  (1) 
0

>  <r_i_docking_score>  (1) 
-6.7362623567342084

>  <r_i_glide_ecoul>  (1) 
-8.1067152603463661

>  <r_i_glide_eff_state_penalty>  (1) 
-0

>  <r_i_glide_einternal>  (1) 
1.4093070300410995

>  <r_i_glide_emodel>  (1) 
-38.01981387047131

>  <r_i_glide_emodel_strain>  (1) 
0.010020498442386838

>  <r_i_glide_energy>  (1) 
-27.383609007462105

>  <r_i_glide_erotb>  (1) 
0

>  <r_i_glide_esite>  (1) 
-0.071186976243572966

>  <r_i_glide_evdw>  (1) 
-19.276893747115739

>  <r_i_glide_gscore>  (1) 
-6.7362623567342084

>  <r_i_glide_gscore_strain>  (1) 
0

>  <r_i_glide_hbond>  (1) 
-0.16

>  <r_i_glide_ligand_efficiency>  (1) 
-0.56135519639451736

>  <r_i_glide_ligand_efficiency_ln>  (1) 
-1.932982152375301

>  <r_i_glide_ligand_efficiency_sa>  (1) 
-1.2851825768882537

>  <r_i_glide_lipo>  (1) 
-1.6267537753257904

>  <r_i_glide_metal>  (1) 
-0

>  <r_i_glide_rewards>  (1) 
-2.6984696287571035

>  <r_lp_Energy>  (1) 
21.474352

>  <r_lp_tautomer_probability>  (1) 
1

>  <s_epik_Chemistry_Notes>  (1) 
This compound has a N-S or N-O group and may undergo hydrolysis at high or low pH.

>  <s_epik_cmdline>  (1) 
J2VwaWtfcHl0aG9uJywgJy1waHQnLCAnMS4wJywgJy1waCcsICc3LjQnLCAnLXRuJywgJzgnLCAnLW1hJywgJzUwMCcsICctaW1hZScsICc8aW5maWxlLm1hZT4nLCAnLW9tYWUnLCAnPG91dGZpbGUubWFlPic=

>  <s_epik_input>  (1) 
TzFbQ0gyXVtDSDJdYyhjMTIpW2NIXWMoTihbT0hdKVtDSDNdKVtjSF1bY0hdMg==

>  <s_glide_docking_method>  (1) 
confgen

>  <s_i_glide_gridfile>  (1) 
gpcr_drd2_6luq_protein_autoprepared_prepared

>  <s_lp_Force_Field>  (1) 
S-OPLS

>  <s_lp_Variant>  (1) 
Pocket2Mol_84_num_sample_100-1

>  <s_m_source_file>  (1) 
generated__ligand_Pocket2Mol_2026-05-06_prepared.sdf

>  <GenAI_Model>  (1) 
Pocket2Mol

>  <Protein>  (1) 
generic_title2

$$$$
Pocket2Mol_90_num_sample_100
     RDKit          3D

  0  0  0  0  0  0  0  0  0  0999 V3000
M  V30 BEGIN CTAB
M  V30 COUNTS 23 24 0 0 1
M  V30 BEGIN ATOM
M  V30 1 C 12.533271 8.283909 -1.918945 0
M  V30 2 O 12.634881 9.369288 -2.913288 0
M  V30 3 C 12.106867 8.786548 -4.006054 0
M  V30 4 C 11.834837 7.471495 -3.890913 0
M  V30 5 C 11.256829 6.744989 -4.942537 0
M  V30 6 C 12.166127 6.883155 -2.589662 0
M  V30 7 C 11.834466 9.488735 -5.190534 0
M  V30 8 C 10.958078 7.405911 -6.156846 0
M  V30 9 N 10.349664 6.637874 -7.222036 0
M  V30 10 C 11.255971 8.803322 -6.281245 0
M  V30 11 C 10.031382 7.098050 -8.456817 0
M  V30 12 O 10.258736 8.229266 -8.867487 0
M  V30 13 N 9.435356 6.169285 -9.198282 0
M  V30 14 H 13.434838 8.223065 -1.315436 0
M  V30 15 H 11.733905 8.566070 -1.233489 0
M  V30 16 H 11.037597 5.698294 -4.822266 0
M  V30 17 H 11.321477 6.380630 -2.117696 0
M  V30 18 H 13.021995 6.214153 -2.670192 0
M  V30 19 H 12.056774 10.542762 -5.265301 0
M  V30 20 H 10.129318 5.678128 -7.011401 0
M  V30 21 H 11.043519 9.347225 -7.177116 0
M  V30 22 H 9.260383 5.252367 -8.822082 0
M  V30 23 H 9.131265 6.400922 -10.132436 0
M  V30 END ATOM
M  V30 BEGIN BOND
M  V30 1 1 2 1
M  V30 2 1 3 2
M  V30 3 2 4 3
M  V30 4 1 5 4
M  V30 5 1 6 1
M  V30 6 1 6 4
M  V30 7 1 7 3
M  V30 8 2 8 5
M  V30 9 1 9 8
M  V30 10 2 10 7
M  V30 11 1 10 8
M  V30 12 1 11 9
M  V30 13 2 12 11
M  V30 14 1 13 11
M  V30 15 1 14 1
M  V30 16 1 15 1
M  V30 17 1 16 5
M  V30 18 1 17 6
M  V30 19 1 18 6
M  V30 20 1 19 7
M  V30 21 1 20 9
M  V30 22 1 21 10
M  V30 23 1 22 13
M  V30 24 1 23 13
M  V30 END BOND
M  V30 END CTAB
M  END
>  <i_epik_Tot_Q>  (1) 
0

>  <i_epik_Tot_abs_Q>  (1) 
0

>  <i_i_glide_confnum>  (1) 
1

>  <i_i_glide_lignum>  (1) 
97

>  <i_i_glide_posenum>  (1) 
214

>  <i_i_glide_rotatable_bonds>  (1) 
2

>  <i_lp_mmshare_version>  (1) 
72125

>  <i_m_source_file_index>  (1) 
91

>  <i_f3d_flags>  (1) 
0

>  <num_sample>  (1) 
100

>  <b_lp_Chiralities_Consistent>  (1) 
1

>  <r_epik_Charging_Adjusted_Penalty>  (1) 
0

>  <r_epik_Ionization_Penalty>  (1) 
1.9038757045197726e-05

>  <r_epik_Ionization_Penalty_Charging>  (1) 
0

>  <r_epik_Ionization_Penalty_Neutral>  (1) 
1.9038757045197726e-05

>  <r_epik_State_Penalty>  (1) 
-0

>  <r_glide_ring_energy>  (1) 
0

>  <r_i_docking_score>  (1) 
-6.6207155374002955

>  <r_i_glide_ecoul>  (1) 
-1.4062919483335967

>  <r_i_glide_eff_state_penalty>  (1) 
-0

>  <r_i_glide_einternal>  (1) 
0.96416587497339457

>  <r_i_glide_emodel>  (1) 
-41.273767167626914

>  <r_i_glide_emodel_strain>  (1) 
0.0055783374396938257

>  <r_i_glide_energy>  (1) 
-30.090896851989228

>  <r_i_glide_erotb>  (1) 
0

>  <r_i_glide_esite>  (1) 
-0.15601369775446386

>  <r_i_glide_evdw>  (1) 
-28.684604903655632

>  <r_i_glide_gscore>  (1) 
-6.6207155374002955

>  <r_i_glide_gscore_strain>  (1) 
0

>  <r_i_glide_hbond>  (1) 
0

>  <r_i_glide_ligand_efficiency>  (1) 
-0.50928581056925348

>  <r_i_glide_ligand_efficiency_ln>  (1) 
-1.857169590233577

>  <r_i_glide_ligand_efficiency_sa>  (1) 
-1.1975013923554687

>  <r_i_glide_lipo>  (1) 
-2.3479614071391621

>  <r_i_glide_metal>  (1) 
-0

>  <r_i_glide_rewards>  (1) 
-2.471566395073848

>  <r_lp_Energy>  (1) 
13.450968999999999

>  <r_lp_tautomer_probability>  (1) 
1

>  <s_epik_cmdline>  (1) 
J2VwaWtfcHl0aG9uJywgJy1waHQnLCAnMS4wJywgJy1waCcsICc3LjQnLCAnLXRuJywgJzgnLCAnLW1hJywgJzUwMCcsICctaW1hZScsICc8aW5maWxlLm1hZT4nLCAnLW9tYWUnLCAnPG91dGZpbGUubWFlPic=

>  <s_epik_input>  (1) 
TzFbQ0gyXVtDSDJdYyhjMTIpW2NIXWMoW2NIXVtjSF0yKVtOSF1DKD1PKVtOSDJd

>  <s_glide_docking_method>  (1) 
confgen

>  <s_i_glide_gridfile>  (1) 
gpcr_drd2_6luq_protein_autoprepared_prepared

>  <s_lp_Force_Field>  (1) 
S-OPLS

>  <s_lp_Variant>  (1) 
Pocket2Mol_90_num_sample_100-1

>  <s_m_source_file>  (1) 
generated__ligand_Pocket2Mol_2026-05-06_prepared.sdf

>  <GenAI_Model>  (1) 
Pocket2Mol

>  <Protein>  (1) 
generic_title2

$$$$
Pocket2Mol_83_num_sample_100
     RDKit          3D

  0  0  0  0  0  0  0  0  0  0999 V3000
M  V30 BEGIN CTAB
M  V30 COUNTS 21 22 0 0 1
M  V30 BEGIN ATOM
M  V30 1 C 12.161253 7.801991 -2.374649 0
M  V30 2 O 12.442454 8.969303 -3.238863 0
M  V30 3 C 11.914945 8.571006 -4.418653 0
M  V30 4 C 11.434839 7.311034 -4.450731 0
M  V30 5 C 10.842881 6.775718 -5.609444 0
M  V30 6 C 11.558577 6.569301 -3.192412 0
M  V30 7 C 11.865219 9.397267 -5.553057 0
M  V30 8 C 10.760530 7.577200 -6.779326 0
M  V30 9 N 10.168920 7.064621 -7.964604 0
M  V30 10 C 11.293422 8.897624 -6.746082 0
M  V30 11 O 9.268679 6.009698 -7.748075 0
M  V30 12 O 9.834839 8.038772 -8.922448 0
M  V30 13 H 11.433759 8.128281 -1.631146 0
M  V30 14 H 13.034839 7.501558 -1.807739 0
M  V30 15 H 10.457410 5.769301 -5.604913 0
M  V30 16 H 10.602603 6.210635 -2.809689 0
M  V30 17 H 12.240872 5.733220 -3.292471 0
M  V30 18 H 12.260926 10.400576 -5.516136 0
M  V30 19 H 11.261151 9.518037 -7.623901 0
M  V30 20 H 8.446224 6.411474 -7.491667 0
M  V30 21 H 8.882492 8.027166 -9.002499 0
M  V30 END ATOM
M  V30 BEGIN BOND
M  V30 1 1 2 1
M  V30 2 1 3 2
M  V30 3 2 4 3
M  V30 4 1 5 4
M  V30 5 1 6 1
M  V30 6 1 6 4
M  V30 7 1 7 3
M  V30 8 2 8 5
M  V30 9 1 9 8
M  V30 10 2 10 7
M  V30 11 1 10 8
M  V30 12 1 11 9
M  V30 13 1 12 9
M  V30 14 1 13 1
M  V30 15 1 14 1
M  V30 16 1 15 5
M  V30 17 1 16 6
M  V30 18 1 17 6
M  V30 19 1 18 7
M  V30 20 1 19 10
M  V30 21 1 20 11
M  V30 22 1 21 12
M  V30 END BOND
M  V30 END CTAB
M  END
>  <i_epik_Tot_Q>  (1) 
0

>  <i_epik_Tot_abs_Q>  (1) 
0

>  <i_i_glide_confnum>  (1) 
1

>  <i_i_glide_lignum>  (1) 
90

>  <i_i_glide_posenum>  (1) 
96

>  <i_i_glide_rotatable_bonds>  (1) 
3

>  <i_lp_mmshare_version>  (1) 
72125

>  <i_m_source_file_index>  (1) 
84

>  <i_f3d_flags>  (1) 
0

>  <num_sample>  (1) 
100

>  <b_lp_Chiralities_Consistent>  (1) 
1

>  <r_epik_Charging_Adjusted_Penalty>  (1) 
0

>  <r_epik_Ionization_Penalty>  (1) 
0.00063218327523872333

>  <r_epik_Ionization_Penalty_Charging>  (1) 
0

>  <r_epik_Ionization_Penalty_Neutral>  (1) 
0.00063218327523872333

>  <r_epik_State_Penalty>  (1) 
-0

>  <r_glide_ring_energy>  (1) 
0

>  <r_i_docking_score>  (1) 
-6.5776136854850051

>  <r_i_glide_ecoul>  (1) 
-4.4636656328803088

>  <r_i_glide_eff_state_penalty>  (1) 
-0

>  <r_i_glide_einternal>  (1) 
1.1796574992412721

>  <r_i_glide_emodel>  (1) 
-40.148875777340919

>  <r_i_glide_emodel_strain>  (1) 
0.80183316940066618

>  <r_i_glide_energy>  (1) 
-27.950037835234241

>  <r_i_glide_erotb>  (1) 
0

>  <r_i_glide_esite>  (1) 
-0.031306592186083469

>  <r_i_glide_evdw>  (1) 
-23.48637220235393

>  <r_i_glide_gscore>  (1) 
-6.5776136854850051

>  <r_i_glide_gscore_strain>  (1) 
0

>  <r_i_glide_hbond>  (1) 
-0.18299946726571689

>  <r_i_glide_ligand_efficiency>  (1) 
-0.54813447379041713

>  <r_i_glide_ligand_efficiency_ln>  (1) 
-1.8874576413360011

>  <r_i_glide_ligand_efficiency_sa>  (1) 
-1.2549146779647329

>  <r_i_glide_lipo>  (1) 
-1.9159641909081162

>  <r_i_glide_metal>  (1) 
-0

>  <r_i_glide_rewards>  (1) 
-2.6034749800753461

>  <r_lp_Energy>  (1) 
14.636832

>  <r_lp_tautomer_probability>  (1) 
1

>  <s_epik_Chemistry_Notes>  (1) 
This compound has a N-S or N-O group and may undergo hydrolysis at high or low pH.

>  <s_epik_cmdline>  (1) 
J2VwaWtfcHl0aG9uJywgJy1waHQnLCAnMS4wJywgJy1waCcsICc3LjQnLCAnLXRuJywgJzgnLCAnLW1hJywgJzUwMCcsICctaW1hZScsICc8aW5maWxlLm1hZT4nLCAnLW9tYWUnLCAnPG91dGZpbGUubWFlPic=

>  <s_epik_input>  (1) 
TzFbQ0gyXVtDSDJdYyhjMTIpW2NIXWMoTihbT0hdKVtPSF0pW2NIXVtjSF0y

>  <s_glide_docking_method>  (1) 
confgen

>  <s_i_glide_gridfile>  (1) 
gpcr_drd2_6luq_protein_autoprepared_prepared

>  <s_lp_Force_Field>  (1) 
S-OPLS

>  <s_lp_Variant>  (1) 
Pocket2Mol_83_num_sample_100-1

>  <s_m_source_file>  (1) 
generated__ligand_Pocket2Mol_2026-05-06_prepared.sdf

>  <GenAI_Model>  (1) 
Pocket2Mol

>  <Protein>  (1) 
generic_title2

$$$$
Pocket2Mol_60_num_sample_100
     RDKit          3D

  0  0  0  0  0  0  0  0  0  0999 V3000
M  V30 BEGIN CTAB
M  V30 COUNTS 19 20 0 0 1
M  V30 BEGIN ATOM
M  V30 1 C 11.618164 8.998448 -7.120522 0
M  V30 2 O 11.771748 9.610554 -5.845380 0
M  V30 3 C 11.834838 8.715792 -4.801838 0
M  V30 4 C 10.441342 8.024450 -7.052774 0
M  V30 5 O 10.784137 6.986072 -6.149374 0
M  V30 6 C 11.344650 7.392395 -4.958659 0
M  V30 7 C 12.400231 9.109558 -3.573246 0
M  V30 8 C 12.484543 8.191168 -2.508560 0
M  V30 9 C 11.434839 6.485973 -3.892404 0
M  V30 10 O 13.034839 8.569302 -1.322799 0
M  V30 11 C 12.003508 6.881355 -2.669509 0
M  V30 12 H 11.435593 9.769020 -7.865803 0
M  V30 13 H 12.537693 8.487867 -7.411382 0
M  V30 14 H 9.528802 8.525866 -6.725651 0
M  V30 15 H 10.242763 7.591228 -8.033254 0
M  V30 16 H 12.775785 10.112151 -3.450446 0
M  V30 17 H 11.063484 5.482456 -4.013002 0
M  V30 18 H 13.336856 9.473253 -1.314624 0
M  V30 19 H 12.068963 6.176788 -1.853022 0
M  V30 END ATOM
M  V30 BEGIN BOND
M  V30 1 1 2 1
M  V30 2 1 3 2
M  V30 3 1 4 1
M  V30 4 1 5 4
M  V30 5 2 6 3
M  V30 6 1 6 5
M  V30 7 1 7 3
M  V30 8 2 8 7
M  V30 9 1 9 6
M  V30 10 1 10 8
M  V30 11 1 11 8
M  V30 12 2 11 9
M  V30 13 1 12 1
M  V30 14 1 13 1
M  V30 15 1 14 4
M  V30 16 1 15 4
M  V30 17 1 16 7
M  V30 18 1 17 9
M  V30 19 1 18 10
M  V30 20 1 19 11
M  V30 END BOND
M  V30 END CTAB
M  END
>  <i_epik_Tot_Q>  (1) 
0

>  <i_epik_Tot_abs_Q>  (1) 
0

>  <i_i_glide_confnum>  (1) 
2

>  <i_i_glide_lignum>  (1) 
67

>  <i_i_glide_posenum>  (1) 
239

>  <i_i_glide_rotatable_bonds>  (1) 
1

>  <i_lp_mmshare_version>  (1) 
72125

>  <i_m_source_file_index>  (1) 
61

>  <i_f3d_flags>  (1) 
0

>  <num_sample>  (1) 
100

>  <b_lp_Chiralities_Consistent>  (1) 
1

>  <r_epik_Charging_Adjusted_Penalty>  (1) 
0

>  <r_epik_Ionization_Penalty>  (1) 
0.0014130578134093086

>  <r_epik_Ionization_Penalty_Charging>  (1) 
0

>  <r_epik_Ionization_Penalty_Neutral>  (1) 
0.0014130578134093086

>  <r_epik_State_Penalty>  (1) 
-0

>  <r_glide_ring_energy>  (1) 
0.0030884842251178704

>  <r_i_docking_score>  (1) 
-6.5642005300388186

>  <r_i_glide_ecoul>  (1) 
-4.4739461367288893

>  <r_i_glide_eff_state_penalty>  (1) 
-0

>  <r_i_glide_einternal>  (1) 
0.0022034873548658213

>  <r_i_glide_emodel>  (1) 
-34.105834656034624

>  <r_i_glide_emodel_strain>  (1) 
0

>  <r_i_glide_energy>  (1) 
-24.181693106175842

>  <r_i_glide_erotb>  (1) 
0

>  <r_i_glide_esite>  (1) 
0

>  <r_i_glide_evdw>  (1) 
-19.707746969446955

>  <r_i_glide_gscore>  (1) 
-6.5642005300388186

>  <r_i_glide_gscore_strain>  (1) 
0

>  <r_i_glide_hbond>  (1) 
-0.32000000000000001

>  <r_i_glide_ligand_efficiency>  (1) 
-0.59674550273080174

>  <r_i_glide_ligand_efficiency_ln>  (1) 
-1.9318430978694661

>  <r_i_glide_ligand_efficiency_sa>  (1) 
-1.3271501172100801

>  <r_i_glide_lipo>  (1) 
-1.8491957924263924

>  <r_i_glide_metal>  (1) 
-0

>  <r_i_glide_rewards>  (1) 
-2.738525468630745

>  <r_lp_Energy>  (1) 
13.915925999999999

>  <r_lp_tautomer_probability>  (1) 
1

>  <s_epik_cmdline>  (1) 
J2VwaWtfcHl0aG9uJywgJy1waHQnLCAnMS4wJywgJy1waCcsICc3LjQnLCAnLXRuJywgJzgnLCAnLW1hJywgJzUwMCcsICctaW1hZScsICc8aW5maWxlLm1hZT4nLCAnLW9tYWUnLCAnPG91dGZpbGUubWFlPic=

>  <s_epik_input>  (1) 
TzFbQ0gyXVtDSDJdT2MoYzEyKVtjSF1bY0hdYyhbY0hdMilbT0hd

>  <s_glide_docking_method>  (1) 
confgen

>  <s_i_glide_gridfile>  (1) 
gpcr_drd2_6luq_protein_autoprepared_prepared

>  <s_lp_Force_Field>  (1) 
S-OPLS

>  <s_lp_Variant>  (1) 
Pocket2Mol_60_num_sample_100-1

>  <s_m_source_file>  (1) 
generated__ligand_Pocket2Mol_2026-05-06_prepared.sdf

>  <GenAI_Model>  (1) 
Pocket2Mol

>  <Protein>  (1) 
generic_title2

$$$$
Pocket2Mol_98_num_sample_100
     RDKit          3D

  0  0  0  0  0  0  0  0  0  0999 V3000
M  V30 BEGIN CTAB
M  V30 COUNTS 24 25 0 0 1
M  V30 BEGIN ATOM
M  V30 1 C 12.534774 8.299152 -1.891668 0
M  V30 2 O 12.634840 9.369302 -2.902682 0
M  V30 3 C 12.107079 8.768715 -3.985571 0
M  V30 4 C 11.834839 7.455965 -3.848715 0
M  V30 5 C 11.256161 6.712625 -4.888100 0
M  V30 6 C 12.166048 6.888606 -2.538323 0
M  V30 7 C 10.960537 7.352573 -6.114045 0
M  V30 8 N 10.351231 6.567998 -7.164595 0
M  V30 9 C 11.834837 9.451163 -5.182352 0
M  V30 10 C 11.257889 8.746945 -6.262274 0
M  V30 11 C 10.122984 6.973730 -8.439211 0
M  V30 12 O 10.442243 8.071982 -8.884535 0
M  V30 13 C 9.434838 5.959329 -9.345711 0
M  V30 14 H 13.434840 8.246282 -1.285089 0
M  V30 15 H 11.736551 8.591044 -1.208492 0
M  V30 16 H 11.035479 5.667537 -4.750369 0
M  V30 17 H 11.319606 6.395462 -2.058608 0
M  V30 18 H 13.021749 6.217029 -2.605180 0
M  V30 19 H 12.055596 10.503802 -5.273812 0
M  V30 20 H 11.041493 9.275034 -7.167405 0
M  V30 21 H 8.365999 5.933963 -9.131399 0
M  V30 22 H 9.564029 6.229806 -10.393891 0
M  V30 23 H 9.834841 4.956552 -9.196545 0
M  V30 24 H 10.078545 5.627597 -6.921828 0
M  V30 END ATOM
M  V30 BEGIN BOND
M  V30 1 1 2 1
M  V30 2 1 3 2
M  V30 3 2 4 3
M  V30 4 1 5 4
M  V30 5 1 6 1
M  V30 6 1 6 4
M  V30 7 2 7 5
M  V30 8 1 8 7
M  V30 9 1 9 3
M  V30 10 1 10 7
M  V30 11 2 10 9
M  V30 12 1 11 8
M  V30 13 2 12 11
M  V30 14 1 13 11
M  V30 15 1 14 1
M  V30 16 1 15 1
M  V30 17 1 16 5
M  V30 18 1 17 6
M  V30 19 1 18 6
M  V30 20 1 19 9
M  V30 21 1 20 10
M  V30 22 1 21 13
M  V30 23 1 22 13
M  V30 24 1 23 13
M  V30 25 1 24 8
M  V30 END BOND
M  V30 END CTAB
M  END
>  <i_epik_Tot_Q>  (1) 
0

>  <i_epik_Tot_abs_Q>  (1) 
0

>  <i_i_glide_confnum>  (1) 
1

>  <i_i_glide_lignum>  (1) 
107

>  <i_i_glide_posenum>  (1) 
277

>  <i_i_glide_rotatable_bonds>  (1) 
2

>  <i_lp_mmshare_version>  (1) 
72125

>  <i_m_source_file_index>  (1) 
99

>  <i_f3d_flags>  (1) 
0

>  <num_sample>  (1) 
100

>  <b_lp_Chiralities_Consistent>  (1) 
1

>  <r_epik_Charging_Adjusted_Penalty>  (1) 
0

>  <r_epik_Ionization_Penalty>  (1) 
1.4103773659367358e-07

>  <r_epik_Ionization_Penalty_Charging>  (1) 
0

>  <r_epik_Ionization_Penalty_Neutral>  (1) 
1.4103773659367358e-07

>  <r_epik_State_Penalty>  (1) 
-0

>  <r_glide_ring_energy>  (1) 
0

>  <r_i_docking_score>  (1) 
-6.5424376223650755

>  <r_i_glide_ecoul>  (1) 
-1.3910366237416001

>  <r_i_glide_eff_state_penalty>  (1) 
-0

>  <r_i_glide_einternal>  (1) 
0.80986162637249404

>  <r_i_glide_emodel>  (1) 
-40.212164866193923

>  <r_i_glide_emodel_strain>  (1) 
0.023856686177211373

>  <r_i_glide_energy>  (1) 
-30.193835229136486

>  <r_i_glide_erotb>  (1) 
0

>  <r_i_glide_esite>  (1) 
-0.058946464098062881

>  <r_i_glide_evdw>  (1) 
-28.802798605394887

>  <r_i_glide_gscore>  (1) 
-6.5424376223650755

>  <r_i_glide_gscore_strain>  (1) 
0

>  <r_i_glide_hbond>  (1) 
0

>  <r_i_glide_ligand_efficiency>  (1) 
-0.50326443248962116

>  <r_i_glide_ligand_efficiency_ln>  (1) 
-1.8352119388937669

>  <r_i_glide_ligand_efficiency_sa>  (1) 
-1.1833431172089479

>  <r_i_glide_lipo>  (1) 
-2.3579533657756349

>  <r_i_glide_metal>  (1) 
-0

>  <r_i_glide_rewards>  (1) 
-2.4767423686603927

>  <r_lp_Energy>  (1) 
14.229996

>  <r_lp_tautomer_probability>  (1) 
1

>  <s_epik_cmdline>  (1) 
J2VwaWtfcHl0aG9uJywgJy1waHQnLCAnMS4wJywgJy1waCcsICc3LjQnLCAnLXRuJywgJzgnLCAnLW1hJywgJzUwMCcsICctaW1hZScsICc8aW5maWxlLm1hZT4nLCAnLW9tYWUnLCAnPG91dGZpbGUubWFlPic=

>  <s_epik_input>  (1) 
TzFbQ0gyXVtDSDJdYyhjMTIpW2NIXWMoW2NIXVtjSF0yKS9OPUMoXFtPSF0pW0NIM10=

>  <s_glide_docking_method>  (1) 
confgen

>  <s_i_glide_gridfile>  (1) 
gpcr_drd2_6luq_protein_autoprepared_prepared

>  <s_lp_Force_Field>  (1) 
S-OPLS

>  <s_lp_Variant>  (1) 
Pocket2Mol_98_num_sample_100-1

>  <s_m_source_file>  (1) 
generated__ligand_Pocket2Mol_2026-05-06_prepared.sdf

>  <GenAI_Model>  (1) 
Pocket2Mol

>  <Protein>  (1) 
generic_title2

$$$$
Pocket2Mol_94_num_sample_100
     RDKit          3D

  0  0  0  0  0  0  0  0  0  0999 V3000
M  V30 BEGIN CTAB
M  V30 COUNTS 24 25 0 0 1
M  V30 BEGIN ATOM
M  V30 1 C 12.534194 8.300393 -1.917089 0
M  V30 2 O 12.634850 9.369286 -2.929955 0
M  V30 3 C 12.106801 8.768305 -4.012651 0
M  V30 4 C 11.834839 7.455887 -3.874849 0
M  V30 5 C 11.256679 6.711473 -4.913831 0
M  V30 6 C 12.166161 6.889641 -2.563756 0
M  V30 7 C 11.834769 9.449839 -5.210162 0
M  V30 8 C 10.960673 7.350106 -6.140198 0
M  V30 9 N 10.352063 6.563768 -7.190462 0
M  V30 10 C 11.257638 8.744560 -6.289505 0
M  V30 11 C 10.120095 6.969273 -8.464392 0
M  V30 12 C 9.434847 5.952246 -9.370203 0
M  V30 13 O 10.433883 8.069112 -8.909652 0
M  V30 14 H 13.434842 8.248011 -1.311119 0
M  V30 15 H 11.735344 8.592349 -1.234512 0
M  V30 16 H 11.037106 5.666592 -4.775558 0
M  V30 17 H 11.320240 6.396166 -2.083458 0
M  V30 18 H 13.022027 6.218590 -2.630720 0
M  V30 19 H 12.055893 10.502345 -5.302824 0
M  V30 20 H 10.083005 5.622174 -6.947908 0
M  V30 21 H 11.041553 9.271726 -7.194995 0
M  V30 22 H 8.365637 5.925301 -9.158403 0
M  V30 23 H 9.567318 6.220098 -10.418619 0
M  V30 24 H 9.834869 4.950027 -9.217105 0
M  V30 END ATOM
M  V30 BEGIN BOND
M  V30 1 1 2 1
M  V30 2 1 3 2
M  V30 3 2 4 3
M  V30 4 1 5 4
M  V30 5 1 6 1
M  V30 6 1 6 4
M  V30 7 1 7 3
M  V30 8 2 8 5
M  V30 9 1 9 8
M  V30 10 2 10 7
M  V30 11 1 10 8
M  V30 12 1 11 9
M  V30 13 1 12 11
M  V30 14 2 13 11
M  V30 15 1 14 1
M  V30 16 1 15 1
M  V30 17 1 16 5
M  V30 18 1 17 6
M  V30 19 1 18 6
M  V30 20 1 19 7
M  V30 21 1 20 9
M  V30 22 1 21 10
M  V30 23 1 22 12
M  V30 24 1 23 12
M  V30 25 1 24 12
M  V30 END BOND
M  V30 END CTAB
M  END
>  <i_epik_Tot_Q>  (1) 
0

>  <i_epik_Tot_abs_Q>  (1) 
0

>  <i_i_glide_confnum>  (1) 
1

>  <i_i_glide_lignum>  (1) 
103

>  <i_i_glide_posenum>  (1) 
31

>  <i_i_glide_rotatable_bonds>  (1) 
2

>  <i_lp_mmshare_version>  (1) 
72125

>  <i_m_source_file_index>  (1) 
95

>  <i_f3d_flags>  (1) 
0

>  <num_sample>  (1) 
100

>  <b_lp_Chiralities_Consistent>  (1) 
1

>  <r_epik_Charging_Adjusted_Penalty>  (1) 
0

>  <r_epik_Ionization_Penalty>  (1) 
1.4103773659367358e-07

>  <r_epik_Ionization_Penalty_Charging>  (1) 
0

>  <r_epik_Ionization_Penalty_Neutral>  (1) 
1.4103773659367358e-07

>  <r_epik_State_Penalty>  (1) 
-0

>  <r_glide_ring_energy>  (1) 
0

>  <r_i_docking_score>  (1) 
-6.5384417782884023

>  <r_i_glide_ecoul>  (1) 
-1.3909591004843778

>  <r_i_glide_eff_state_penalty>  (1) 
-0

>  <r_i_glide_einternal>  (1) 
1.3213396312139194

>  <r_i_glide_emodel>  (1) 
-39.916767247107394

>  <r_i_glide_emodel_strain>  (1) 
0.024641421529253194

>  <r_i_glide_energy>  (1) 
-30.173435101462683

>  <r_i_glide_erotb>  (1) 
0

>  <r_i_glide_esite>  (1) 
-0.059459952360293958

>  <r_i_glide_evdw>  (1) 
-28.782476000978306

>  <r_i_glide_gscore>  (1) 
-6.5384417782884023

>  <r_i_glide_gscore_strain>  (1) 
0

>  <r_i_glide_hbond>  (1) 
0

>  <r_i_glide_ligand_efficiency>  (1) 
-0.50295705986833861

>  <r_i_glide_ligand_efficiency_ln>  (1) 
-1.8340910690928229

>  <r_i_glide_ligand_efficiency_sa>  (1) 
-1.1826203813024705

>  <r_i_glide_lipo>  (1) 
-2.3515624881048338

>  <r_i_glide_metal>  (1) 
-0

>  <r_i_glide_rewards>  (1) 
-2.4796516727017019

>  <r_lp_Energy>  (1) 
14.229996

>  <r_lp_tautomer_probability>  (1) 
1

>  <s_epik_cmdline>  (1) 
J2VwaWtfcHl0aG9uJywgJy1waHQnLCAnMS4wJywgJy1waCcsICc3LjQnLCAnLXRuJywgJzgnLCAnLW1hJywgJzUwMCcsICctaW1hZScsICc8aW5maWxlLm1hZT4nLCAnLW9tYWUnLCAnPG91dGZpbGUubWFlPic=

>  <s_epik_input>  (1) 
TzFbQ0gyXVtDSDJdYyhjMTIpW2NIXWMoW2NIXVtjSF0yKVtOSF1DKD1PKVtDSDNd

>  <s_glide_docking_method>  (1) 
confgen

>  <s_i_glide_gridfile>  (1) 
gpcr_drd2_6luq_protein_autoprepared_prepared

>  <s_lp_Force_Field>  (1) 
S-OPLS

>  <s_lp_Variant>  (1) 
Pocket2Mol_94_num_sample_100-1

>  <s_m_source_file>  (1) 
generated__ligand_Pocket2Mol_2026-05-06_prepared.sdf

>  <GenAI_Model>  (1) 
Pocket2Mol

>  <Protein>  (1) 
generic_title2

$$$$
Pocket2Mol_50_num_sample_100
     RDKit          3D

  0  0  0  0  0  0  0  0  0  0999 V3000
M  V30 BEGIN CTAB
M  V30 COUNTS 16 17 0 0 1
M  V30 BEGIN ATOM
M  V30 1 C 11.055405 8.632886 -6.769519 0
M  V30 2 O 11.693475 9.572331 -5.843381 0
M  V30 3 C 11.831570 8.771031 -4.782729 0
M  V30 4 C 11.374136 7.533873 -4.970979 0
M  V30 5 C 11.435191 6.563964 -3.963158 0
M  V30 6 C 12.404067 9.165548 -3.564938 0
M  V30 7 C 12.489308 8.221196 -2.515798 0
M  V30 8 O 13.034832 8.569378 -1.323145 0
M  V30 9 C 12.002337 6.909417 -2.715933 0
M  V30 10 O 10.862777 7.314931 -6.183027 0
M  V30 11 H 10.072411 9.001755 -7.071988 0
M  V30 12 H 11.679050 8.528398 -7.660200 0
M  V30 13 H 11.056855 5.569999 -4.139849 0
M  V30 14 H 12.772558 10.169301 -3.432221 0
M  V30 15 H 13.349800 9.470853 -1.318136 0
M  V30 16 H 12.065089 6.178505 -1.922972 0
M  V30 END ATOM
M  V30 BEGIN BOND
M  V30 1 1 2 1
M  V30 2 1 3 2
M  V30 3 2 4 3
M  V30 4 1 5 4
M  V30 5 1 6 3
M  V30 6 2 7 6
M  V30 7 1 8 7
M  V30 8 2 9 5
M  V30 9 1 9 7
M  V30 10 1 10 1
M  V30 11 1 10 4
M  V30 12 1 11 1
M  V30 13 1 12 1
M  V30 14 1 13 5
M  V30 15 1 14 6
M  V30 16 1 15 8
M  V30 17 1 16 9
M  V30 END BOND
M  V30 END CTAB
M  END
>  <i_epik_Tot_Q>  (1) 
0

>  <i_epik_Tot_abs_Q>  (1) 
0

>  <i_i_glide_confnum>  (1) 
1

>  <i_i_glide_lignum>  (1) 
57

>  <i_i_glide_posenum>  (1) 
25

>  <i_i_glide_rotatable_bonds>  (1) 
1

>  <i_lp_mmshare_version>  (1) 
72125

>  <i_m_source_file_index>  (1) 
51

>  <i_f3d_flags>  (1) 
0

>  <num_sample>  (1) 
100

>  <b_lp_Chiralities_Consistent>  (1) 
1

>  <r_epik_Charging_Adjusted_Penalty>  (1) 
0

>  <r_epik_Ionization_Penalty>  (1) 
0.0018243540331301816

>  <r_epik_Ionization_Penalty_Charging>  (1) 
0

>  <r_epik_Ionization_Penalty_Neutral>  (1) 
0.0018243540331301816

>  <r_epik_State_Penalty>  (1) 
-0

>  <r_glide_ring_energy>  (1) 
0

>  <r_i_docking_score>  (1) 
-6.5342231889560276

>  <r_i_glide_ecoul>  (1) 
-4.4672846336500074

>  <r_i_glide_eff_state_penalty>  (1) 
-0

>  <r_i_glide_einternal>  (1) 
0.00031797281806295041

>  <r_i_glide_emodel>  (1) 
-33.608610545391613

>  <r_i_glide_emodel_strain>  (1) 
0

>  <r_i_glide_energy>  (1) 
-23.14038571962945

>  <r_i_glide_erotb>  (1) 
0

>  <r_i_glide_esite>  (1) 
0

>  <r_i_glide_evdw>  (1) 
-18.673101085979443

>  <r_i_glide_gscore>  (1) 
-6.5342231889560276

>  <r_i_glide_gscore_strain>  (1) 
0

>  <r_i_glide_hbond>  (1) 
-0.32000000000000001

>  <r_i_glide_ligand_efficiency>  (1) 
-0.65342231889560276

>  <r_i_glide_ligand_efficiency_ln>  (1) 
-1.9785177383672663

>  <r_i_glide_ligand_efficiency_sa>  (1) 
-1.4077557110697627

>  <r_i_glide_lipo>  (1) 
-1.5946888470579901

>  <r_i_glide_metal>  (1) 
-0

>  <r_i_glide_rewards>  (1) 
-3.0157865925515646

>  <r_lp_Energy>  (1) 
16.555202999999999

>  <r_lp_tautomer_probability>  (1) 
1

>  <s_epik_Chemistry_Notes>  (1) 
This compound contains an acetal/aminal-like group ( X-CH(R)-Y where X, Y are N, S, or O) that may be acid/base labile, releasing an aldehyde.

>  <s_epik_cmdline>  (1) 
J2VwaWtfcHl0aG9uJywgJy1waHQnLCAnMS4wJywgJy1waCcsICc3LjQnLCAnLXRuJywgJzgnLCAnLW1hJywgJzUwMCcsICctaW1hZScsICc8aW5maWxlLm1hZT4nLCAnLW9tYWUnLCAnPG91dGZpbGUubWFlPic=

>  <s_epik_input>  (1) 
TzFbQ0gyXU9jKGMxMilbY0hdW2NIXWMoW2NIXTIpW09IXQ==

>  <s_glide_docking_method>  (1) 
confgen

>  <s_i_glide_gridfile>  (1) 
gpcr_drd2_6luq_protein_autoprepared_prepared

>  <s_lp_Force_Field>  (1) 
S-OPLS

>  <s_lp_Variant>  (1) 
Pocket2Mol_50_num_sample_100-1

>  <s_m_source_file>  (1) 
generated__ligand_Pocket2Mol_2026-05-06_prepared.sdf

>  <GenAI_Model>  (1) 
Pocket2Mol

>  <Protein>  (1) 
generic_title2

$$$$
Pocket2Mol_0_num_sample_100
     RDKit          3D

  0  0  0  0  0  0  0  0  0  0999 V3000
M  V30 BEGIN CTAB
M  V30 COUNTS 21 23 0 0 1
M  V30 BEGIN ATOM
M  V30 1 C 12.565635 8.544469 -2.020365 0
M  V30 2 O 12.565922 9.491313 -3.149918 0
M  V30 3 C 12.071258 8.740666 -4.152838 0
M  V30 4 C 11.834839 7.456155 -3.854803 0
M  V30 5 C 11.307548 6.569303 -4.798643 0
M  V30 6 C 12.162881 7.068237 -2.476864 0
M  V30 7 C 11.813038 9.252870 -5.428895 0
M  V30 8 C 11.017518 7.019605 -6.112045 0
M  V30 9 N 10.502780 6.169304 -7.037270 0
M  V30 10 C 10.234838 6.693685 -8.246585 0
M  V30 11 C 11.285063 8.408644 -6.439925 0
M  V30 12 C 10.498405 8.030238 -8.563650 0
M  V30 13 N 11.037662 8.892340 -7.681564 0
M  V30 14 H 11.843264 8.908370 -1.288554 0
M  V30 15 H 13.537695 8.569294 -1.528885 0
M  V30 16 H 11.118866 5.543430 -4.527712 0
M  V30 17 H 11.304036 6.667277 -1.937171 0
M  V30 18 H 13.000030 6.370577 -2.449440 0
M  V30 19 H 12.015644 10.290908 -5.644625 0
M  V30 20 H 9.800006 6.028680 -8.978427 0
M  V30 21 H 10.270678 8.419099 -9.545526 0
M  V30 END ATOM
M  V30 BEGIN BOND
M  V30 1 1 2 1
M  V30 2 1 3 2
M  V30 3 1 4 3
M  V30 4 2 5 4
M  V30 5 1 6 1
M  V30 6 1 6 4
M  V30 7 2 7 3
M  V30 8 1 8 5
M  V30 9 2 9 8
M  V30 10 1 10 9
M  V30 11 1 11 7
M  V30 12 1 11 8
M  V30 13 2 12 10
M  V30 14 2 13 11
M  V30 15 1 13 12
M  V30 16 1 14 1
M  V30 17 1 15 1
M  V30 18 1 16 5
M  V30 19 1 17 6
M  V30 20 1 18 6
M  V30 21 1 19 7
M  V30 22 1 20 10
M  V30 23 1 21 12
M  V30 END BOND
M  V30 END CTAB
M  END
>  <i_epik_Tot_Q>  (1) 
0

>  <i_epik_Tot_abs_Q>  (1) 
0

>  <i_i_glide_confnum>  (1) 
1

>  <i_i_glide_lignum>  (1) 
1

>  <i_i_glide_posenum>  (1) 
211

>  <i_i_glide_rotatable_bonds>  (1) 
0

>  <i_lp_mmshare_version>  (1) 
72125

>  <i_m_source_file_index>  (1) 
1

>  <i_f3d_flags>  (1) 
0

>  <num_sample>  (1) 
100

>  <b_lp_Chiralities_Consistent>  (1) 
1

>  <r_epik_Charging_Adjusted_Penalty>  (1) 
0

>  <r_epik_Ionization_Penalty>  (1) 
2.4588925185764017e-06

>  <r_epik_Ionization_Penalty_Charging>  (1) 
0

>  <r_epik_Ionization_Penalty_Neutral>  (1) 
2.4588925185764017e-06

>  <r_epik_State_Penalty>  (1) 
-0

>  <r_glide_ring_energy>  (1) 
0

>  <r_i_docking_score>  (1) 
-6.4659556633302442

>  <r_i_glide_ecoul>  (1) 
-0.99674696750524139

>  <r_i_glide_eff_state_penalty>  (1) 
-0

>  <r_i_glide_einternal>  (1) 
0

>  <r_i_glide_emodel>  (1) 
-36.207775758848527

>  <r_i_glide_emodel_strain>  (1) 
0

>  <r_i_glide_energy>  (1) 
-26.035197994528755

>  <r_i_glide_erotb>  (1) 
0

>  <r_i_glide_esite>  (1) 
0

>  <r_i_glide_evdw>  (1) 
-25.038451027023513

>  <r_i_glide_gscore>  (1) 
-6.4659556633302442

>  <r_i_glide_gscore_strain>  (1) 
0

>  <r_i_glide_hbond>  (1) 
0

>  <r_i_glide_ligand_efficiency>  (1) 
-0.49738120487155724

>  <r_i_glide_ligand_efficiency_ln>  (1) 
-1.8137580691845796

>  <r_i_glide_ligand_efficiency_sa>  (1) 
-1.1695096800348372

>  <r_i_glide_lipo>  (1) 
-2.2906781966671694

>  <r_i_glide_metal>  (1) 
-0

>  <r_i_glide_rewards>  (1) 
-2.7738428701861118

>  <r_lp_Energy>  (1) 
22.769921999999998

>  <r_lp_tautomer_probability>  (1) 
1

>  <s_epik_cmdline>  (1) 
J2VwaWtfcHl0aG9uJywgJy1waHQnLCAnMS4wJywgJy1waCcsICc3LjQnLCAnLXRuJywgJzgnLCAnLW1hJywgJzUwMCcsICctaW1hZScsICc8aW5maWxlLm1hZT4nLCAnLW9tYWUnLCAnPG91dGZpbGUubWFlPic=

>  <s_epik_input>  (1) 
TzFbQ0gyXVtDSDJdYyhjMTIpW2NIXWMzYyhbY0hdMiluW2NIXVtjSF1uMw==

>  <s_glide_docking_method>  (1) 
confgen

>  <s_i_glide_gridfile>  (1) 
gpcr_drd2_6luq_protein_autoprepared_prepared

>  <s_lp_Force_Field>  (1) 
S-OPLS

>  <s_lp_Variant>  (1) 
Pocket2Mol_0_num_sample_100-1

>  <s_m_source_file>  (1) 
generated__ligand_Pocket2Mol_2026-05-06_prepared.sdf

>  <GenAI_Model>  (1) 
Pocket2Mol

>  <Protein>  (1) 
generic_title2

$$$$
Pocket2Mol_51_num_sample_100
     RDKit          3D

  0  0  0  0  0  0  0  0  0  0999 V3000
M  V30 BEGIN CTAB
M  V30 COUNTS 15 16 0 0 1
M  V30 BEGIN ATOM
M  V30 1 C 12.634775 8.618312 -1.957842 0
M  V30 2 O 12.485913 9.517242 -3.093970 0
M  V30 3 C 12.016706 8.760932 -4.121220 0
M  V30 4 C 11.834850 7.423448 -3.884950 0
M  V30 5 C 11.339149 6.569036 -4.877516 0
M  V30 6 C 11.723650 9.311327 -5.384631 0
M  V30 7 C 11.233603 8.466453 -6.408927 0
M  V30 8 S 12.231930 6.851970 -2.320685 0
M  V30 9 F 10.959162 8.969241 -7.632292 0
M  V30 10 C 11.034839 7.091840 -6.150734 0
M  V30 11 H 13.663276 8.672032 -1.604132 0
M  V30 12 H 12.003029 8.968287 -1.140758 0
M  V30 13 H 11.194031 5.521561 -4.669980 0
M  V30 14 H 11.873480 10.363904 -5.570432 0
M  V30 15 H 10.655026 6.443494 -6.927088 0
M  V30 END ATOM
M  V30 BEGIN BOND
M  V30 1 1 2 1
M  V30 2 1 3 2
M  V30 3 2 4 3
M  V30 4 1 5 4
M  V30 5 1 6 3
M  V30 6 2 7 6
M  V30 7 1 8 1
M  V30 8 1 8 4
M  V30 9 1 9 7
M  V30 10 2 10 5
M  V30 11 1 10 7
M  V30 12 1 11 1
M  V30 13 1 12 1
M  V30 14 1 13 5
M  V30 15 1 14 6
M  V30 16 1 15 10
M  V30 END BOND
M  V30 END CTAB
M  END
>  <i_epik_Tot_Q>  (1) 
0

>  <i_epik_Tot_abs_Q>  (1) 
0

>  <i_i_glide_confnum>  (1) 
1

>  <i_i_glide_lignum>  (1) 
58

>  <i_i_glide_posenum>  (1) 
162

>  <i_i_glide_rotatable_bonds>  (1) 
0

>  <i_lp_mmshare_version>  (1) 
72125

>  <i_m_source_file_index>  (1) 
52

>  <i_f3d_flags>  (1) 
0

>  <num_sample>  (1) 
100

>  <b_lp_Chiralities_Consistent>  (1) 
1

>  <r_epik_Charging_Adjusted_Penalty>  (1) 
0

>  <r_epik_Ionization_Penalty>  (1) 
0

>  <r_epik_Ionization_Penalty_Charging>  (1) 
0

>  <r_epik_Ionization_Penalty_Neutral>  (1) 
0

>  <r_epik_State_Penalty>  (1) 
-0

>  <r_glide_ring_energy>  (1) 
0

>  <r_i_docking_score>  (1) 
-6.4545579018316213

>  <r_i_glide_ecoul>  (1) 
-0.68878727865615563

>  <r_i_glide_eff_state_penalty>  (1) 
-0

>  <r_i_glide_einternal>  (1) 
0

>  <r_i_glide_emodel>  (1) 
-30.01010095546139

>  <r_i_glide_emodel_strain>  (1) 
0

>  <r_i_glide_energy>  (1) 
-21.800121725208395

>  <r_i_glide_erotb>  (1) 
0

>  <r_i_glide_esite>  (1) 
0

>  <r_i_glide_evdw>  (1) 
-21.111334446552238

>  <r_i_glide_gscore>  (1) 
-6.4545579018316213

>  <r_i_glide_gscore_strain>  (1) 
0

>  <r_i_glide_hbond>  (1) 
0

>  <r_i_glide_ligand_efficiency>  (1) 
-0.64545579018316213

>  <r_i_glide_ligand_efficiency_ln>  (1) 
-1.9543956385935453

>  <r_i_glide_ligand_efficiency_sa>  (1) 
-1.3905923452525457

>  <r_i_glide_lipo>  (1) 
-2.2961140331507872

>  <r_i_glide_metal>  (1) 
-0

>  <r_i_glide_rewards>  (1) 
-2.9995590545547985

>  <r_lp_Energy>  (1) 
4.072584

>  <r_lp_tautomer_probability>  (1) 
1

>  <s_epik_Chemistry_Notes>  (1) 
This compound contains an acetal/aminal-like group ( X-CH(R)-Y where X, Y are N, S, or O) that may be acid/base labile, releasing an aldehyde.

>  <s_epik_cmdline>  (1) 
J2VwaWtfcHl0aG9uJywgJy1waHQnLCAnMS4wJywgJy1waCcsICc3LjQnLCAnLXRuJywgJzgnLCAnLW1hJywgJzUwMCcsICctaW1hZScsICc8aW5maWxlLm1hZT4nLCAnLW9tYWUnLCAnPG91dGZpbGUubWFlPic=

>  <s_epik_input>  (1) 
TzFbQ0gyXVNjKGMxMilbY0hdW2NIXWMoRilbY0hdMg==

>  <s_glide_docking_method>  (1) 
confgen

>  <s_i_glide_gridfile>  (1) 
gpcr_drd2_6luq_protein_autoprepared_prepared

>  <s_lp_Force_Field>  (1) 
S-OPLS

>  <s_lp_Variant>  (1) 
Pocket2Mol_51_num_sample_100-1

>  <s_m_source_file>  (1) 
generated__ligand_Pocket2Mol_2026-05-06_prepared.sdf

>  <GenAI_Model>  (1) 
Pocket2Mol

>  <Protein>  (1) 
generic_title2

$$$$
Pocket2Mol_83_num_sample_100
     RDKit          3D

  0  0  0  0  0  0  0  0  0  0999 V3000
M  V30 BEGIN CTAB
M  V30 COUNTS 21 22 0 0 1
M  V30 BEGIN ATOM
M  V30 1 C 12.234949 8.129503 -2.243782 0
M  V30 2 O 12.357489 9.289020 -3.150679 0
M  V30 3 C 11.883750 8.781727 -4.308972 0
M  V30 4 C 11.573918 7.467230 -4.291712 0
M  V30 5 C 11.049560 6.818497 -5.427422 0
M  V30 6 C 11.823994 6.790523 -3.012215 0
M  V30 7 C 11.719169 9.553638 -5.468693 0
M  V30 8 C 10.860973 7.565998 -6.624297 0
M  V30 9 N 10.347163 6.947927 -7.793451 0
M  V30 10 C 11.212725 8.943230 -6.636665 0
M  V30 11 O 9.645339 5.769301 -7.554862 0
M  V30 12 O 9.834839 7.839718 -8.747670 0
M  V30 13 H 11.465973 8.372443 -1.509043 0
M  V30 14 H 13.158747 7.998296 -1.684510 0
M  V30 15 H 10.803621 5.769301 -5.387438 0
M  V30 16 H 10.932366 6.312684 -2.604839 0
M  V30 17 H 12.634839 6.071628 -3.091248 0
M  V30 18 H 11.979093 10.600582 -5.469803 0
M  V30 19 H 11.094360 9.521141 -7.533186 0
M  V30 20 H 10.111427 5.099630 -8.032410 0
M  V30 21 H 8.883535 7.769363 -8.691667 0
M  V30 END ATOM
M  V30 BEGIN BOND
M  V30 1 1 2 1
M  V30 2 1 3 2
M  V30 3 2 4 3
M  V30 4 1 5 4
M  V30 5 1 6 1
M  V30 6 1 6 4
M  V30 7 1 7 3
M  V30 8 2 8 5
M  V30 9 1 9 8
M  V30 10 2 10 7
M  V30 11 1 10 8
M  V30 12 1 11 9
M  V30 13 1 12 9
M  V30 14 1 13 1
M  V30 15 1 14 1
M  V30 16 1 15 5
M  V30 17 1 16 6
M  V30 18 1 17 6
M  V30 19 1 18 7
M  V30 20 1 19 10
M  V30 21 1 20 11
M  V30 22 1 21 12
M  V30 END BOND
M  V30 END CTAB
M  END
>  <i_epik_Tot_Q>  (1) 
0

>  <i_epik_Tot_abs_Q>  (1) 
0

>  <i_i_glide_confnum>  (1) 
1

>  <i_i_glide_lignum>  (1) 
90

>  <i_i_glide_posenum>  (1) 
146

>  <i_i_glide_rotatable_bonds>  (1) 
3

>  <i_lp_mmshare_version>  (1) 
72125

>  <i_m_source_file_index>  (1) 
84

>  <i_f3d_flags>  (1) 
0

>  <num_sample>  (1) 
100

>  <b_lp_Chiralities_Consistent>  (1) 
1

>  <r_epik_Charging_Adjusted_Penalty>  (1) 
0

>  <r_epik_Ionization_Penalty>  (1) 
0.00063218327523872333

>  <r_epik_Ionization_Penalty_Charging>  (1) 
0

>  <r_epik_Ionization_Penalty_Neutral>  (1) 
0.00063218327523872333

>  <r_epik_State_Penalty>  (1) 
-0

>  <r_glide_ring_energy>  (1) 
0

>  <r_i_docking_score>  (1) 
-6.453757461568693

>  <r_i_glide_ecoul>  (1) 
-2.4377955540322156

>  <r_i_glide_eff_state_penalty>  (1) 
-0

>  <r_i_glide_einternal>  (1) 
0.64617079947818512

>  <r_i_glide_emodel>  (1) 
-39.160463642013461

>  <r_i_glide_emodel_strain>  (1) 
0.37965966874421753

>  <r_i_glide_energy>  (1) 
-26.528617462191253

>  <r_i_glide_erotb>  (1) 
0

>  <r_i_glide_esite>  (1) 
-0.0024261126204822925

>  <r_i_glide_evdw>  (1) 
-24.090821908159036

>  <r_i_glide_gscore>  (1) 
-6.453757461568693

>  <r_i_glide_gscore_strain>  (1) 
0

>  <r_i_glide_hbond>  (1) 
-0.15118944190392763

>  <r_i_glide_ligand_efficiency>  (1) 
-0.53781312179739105

>  <r_i_glide_ligand_efficiency_ln>  (1) 
-1.8519168833292274

>  <r_i_glide_ligand_efficiency_sa>  (1) 
-1.2312846807070867

>  <r_i_glide_lipo>  (1) 
-2.1580972838096599

>  <r_i_glide_metal>  (1) 
-0

>  <r_i_glide_rewards>  (1) 
-2.5718341947218386

>  <r_lp_Energy>  (1) 
14.636832

>  <r_lp_tautomer_probability>  (1) 
1

>  <s_epik_Chemistry_Notes>  (1) 
This compound has a N-S or N-O group and may undergo hydrolysis at high or low pH.

>  <s_epik_cmdline>  (1) 
J2VwaWtfcHl0aG9uJywgJy1waHQnLCAnMS4wJywgJy1waCcsICc3LjQnLCAnLXRuJywgJzgnLCAnLW1hJywgJzUwMCcsICctaW1hZScsICc8aW5maWxlLm1hZT4nLCAnLW9tYWUnLCAnPG91dGZpbGUubWFlPic=

>  <s_epik_input>  (1) 
TzFbQ0gyXVtDSDJdYyhjMTIpW2NIXWMoTihbT0hdKVtPSF0pW2NIXVtjSF0y

>  <s_glide_docking_method>  (1) 
confgen

>  <s_i_glide_gridfile>  (1) 
gpcr_drd2_6luq_protein_autoprepared_prepared

>  <s_lp_Force_Field>  (1) 
S-OPLS

>  <s_lp_Variant>  (1) 
Pocket2Mol_83_num_sample_100-1

>  <s_m_source_file>  (1) 
generated__ligand_Pocket2Mol_2026-05-06_prepared.sdf

>  <GenAI_Model>  (1) 
Pocket2Mol

>  <Protein>  (1) 
generic_title2

$$$$
Pocket2Mol_84_num_sample_100
     RDKit          3D

  0  0  0  0  0  0  0  0  0  0999 V3000
M  V30 BEGIN CTAB
M  V30 COUNTS 23 24 0 0 1
M  V30 BEGIN ATOM
M  V30 1 C 11.949075 9.507872 -4.493753 0
M  V30 2 O 11.462992 8.128186 -4.298799 0
M  V30 3 C 11.072847 7.792265 -5.546165 0
M  V30 4 C 11.312162 8.710743 -6.502736 0
M  V30 5 C 10.955952 8.486006 -7.845552 0
M  V30 6 C 11.969073 9.933694 -6.031497 0
M  V30 7 C 10.332788 7.259257 -8.197094 0
M  V30 8 N 9.969502 7.008867 -9.541754 0
M  V30 9 C 10.464668 6.569089 -5.847631 0
M  V30 10 C 10.092107 6.292076 -7.180057 0
M  V30 11 O 9.434843 8.133207 -10.182661 0
M  V30 12 C 9.041988 5.896614 -9.746447 0
M  V30 13 H 12.939330 9.623338 -4.051541 0
M  V30 14 H 11.281000 10.169022 -3.941589 0
M  V30 15 H 11.158443 9.233720 -8.599233 0
M  V30 16 H 12.989467 9.998756 -6.405446 0
M  V30 17 H 11.403627 10.839161 -6.253004 0
M  V30 18 H 10.284268 5.842788 -5.068750 0
M  V30 19 H 9.624819 5.350569 -7.416841 0
M  V30 20 H 8.512600 8.167918 -9.891638 0
M  V30 21 H 9.555641 4.941348 -9.630133 0
M  V30 22 H 8.201856 5.933532 -9.052324 0
M  V30 23 H 8.634731 5.914657 -10.759039 0
M  V30 END ATOM
M  V30 BEGIN BOND
M  V30 1 1 2 1
M  V30 2 1 3 2
M  V30 3 2 4 3
M  V30 4 1 5 4
M  V30 5 1 6 1
M  V30 6 1 6 4
M  V30 7 2 7 5
M  V30 8 1 8 7
M  V30 9 1 9 3
M  V30 10 1 10 7
M  V30 11 2 10 9
M  V30 12 1 11 8
M  V30 13 1 12 8
M  V30 14 1 13 1
M  V30 15 1 14 1
M  V30 16 1 15 5
M  V30 17 1 16 6
M  V30 18 1 17 6
M  V30 19 1 18 9
M  V30 20 1 19 10
M  V30 21 1 20 11
M  V30 22 1 21 12
M  V30 23 1 22 12
M  V30 24 1 23 12
M  V30 END BOND
M  V30 END CTAB
M  END
>  <i_epik_Tot_Q>  (1) 
0

>  <i_epik_Tot_abs_Q>  (1) 
0

>  <i_i_glide_confnum>  (1) 
2

>  <i_i_glide_lignum>  (1) 
91

>  <i_i_glide_posenum>  (1) 
246

>  <i_i_glide_rotatable_bonds>  (1) 
2

>  <i_lp_mmshare_version>  (1) 
72125

>  <i_m_source_file_index>  (1) 
85

>  <i_f3d_flags>  (1) 
0

>  <num_sample>  (1) 
100

>  <b_lp_Chiralities_Consistent>  (1) 
1

>  <r_epik_Charging_Adjusted_Penalty>  (1) 
0

>  <r_epik_Ionization_Penalty>  (1) 
0.00097486698469066322

>  <r_epik_Ionization_Penalty_Charging>  (1) 
0

>  <r_epik_Ionization_Penalty_Neutral>  (1) 
0.00097486698469066322

>  <r_epik_State_Penalty>  (1) 
-0

>  <r_glide_ring_energy>  (1) 
0

>  <r_i_docking_score>  (1) 
-6.451129469450029

>  <r_i_glide_ecoul>  (1) 
-6.766676105271265

>  <r_i_glide_eff_state_penalty>  (1) 
-0

>  <r_i_glide_einternal>  (1) 
0.5800799466436537

>  <r_i_glide_emodel>  (1) 
-36.668701404791712

>  <r_i_glide_emodel_strain>  (1) 
0.0019834013047059784

>  <r_i_glide_energy>  (1) 
-26.090306534653234

>  <r_i_glide_erotb>  (1) 
0

>  <r_i_glide_esite>  (1) 
-0.084037279506140386

>  <r_i_glide_evdw>  (1) 
-19.323630429381968

>  <r_i_glide_gscore>  (1) 
-6.451129469450029

>  <r_i_glide_gscore_strain>  (1) 
0

>  <r_i_glide_hbond>  (1) 
-0.16

>  <r_i_glide_ligand_efficiency>  (1) 
-0.53759412245416904

>  <r_i_glide_ligand_efficiency_ln>  (1) 
-1.8511627764383516

>  <r_i_glide_ligand_efficiency_sa>  (1) 
-1.2307832973724946

>  <r_i_glide_lipo>  (1) 
-1.6502856444102569

>  <r_i_glide_metal>  (1) 
-0

>  <r_i_glide_rewards>  (1) 
-2.5756236082738435

>  <r_lp_Energy>  (1) 
21.474352

>  <r_lp_tautomer_probability>  (1) 
1

>  <s_epik_Chemistry_Notes>  (1) 
This compound has a N-S or N-O group and may undergo hydrolysis at high or low pH.

>  <s_epik_cmdline>  (1) 
J2VwaWtfcHl0aG9uJywgJy1waHQnLCAnMS4wJywgJy1waCcsICc3LjQnLCAnLXRuJywgJzgnLCAnLW1hJywgJzUwMCcsICctaW1hZScsICc8aW5maWxlLm1hZT4nLCAnLW9tYWUnLCAnPG91dGZpbGUubWFlPic=

>  <s_epik_input>  (1) 
TzFbQ0gyXVtDSDJdYyhjMTIpW2NIXWMoTihbT0hdKVtDSDNdKVtjSF1bY0hdMg==

>  <s_glide_docking_method>  (1) 
confgen

>  <s_i_glide_gridfile>  (1) 
gpcr_drd2_6luq_protein_autoprepared_prepared

>  <s_lp_Force_Field>  (1) 
S-OPLS

>  <s_lp_Variant>  (1) 
Pocket2Mol_84_num_sample_100-1

>  <s_m_source_file>  (1) 
generated__ligand_Pocket2Mol_2026-05-06_prepared.sdf

>  <GenAI_Model>  (1) 
Pocket2Mol

>  <Protein>  (1) 
generic_title2

$$$$
Pocket2Mol_73_num_sample_100
     RDKit          3D

  0  0  0  0  0  0  0  0  0  0999 V3000
M  V30 BEGIN CTAB
M  V30 COUNTS 20 21 0 0 1
M  V30 BEGIN ATOM
M  V30 1 C 12.501081 8.493886 -1.927948 0
M  V30 2 O 12.234839 9.611845 -2.853592 0
M  V30 3 C 11.843355 8.964789 -3.969309 0
M  V30 4 C 11.834859 7.618104 -3.891852 0
M  V30 5 C 11.434438 6.822349 -4.976027 0
M  V30 6 C 12.252458 7.068753 -2.601171 0
M  V30 7 C 11.456138 9.631047 -5.143899 0
M  V30 8 C 11.034902 7.449465 -6.180702 0
M  V30 9 N 10.644091 6.667883 -7.279032 0
M  V30 10 C 11.049703 8.870716 -6.263252 0
M  V30 11 O 9.834568 7.336822 -8.217309 0
M  V30 12 H 11.853163 8.609125 -1.058980 0
M  V30 13 H 13.528528 8.569360 -1.571704 0
M  V30 14 H 11.430734 5.749194 -4.889208 0
M  V30 15 H 11.454703 6.502861 -2.119158 0
M  V30 16 H 13.158658 6.472088 -2.691458 0
M  V30 17 H 11.467919 10.709393 -5.189988 0
M  V30 18 H 10.321476 5.723386 -7.115377 0
M  V30 19 H 10.752900 9.369296 -7.173260 0
M  V30 20 H 8.941159 7.327514 -7.889086 0
M  V30 END ATOM
M  V30 BEGIN BOND
M  V30 1 1 2 1
M  V30 2 1 3 2
M  V30 3 2 4 3
M  V30 4 1 5 4
M  V30 5 1 6 1
M  V30 6 1 6 4
M  V30 7 1 7 3
M  V30 8 2 8 5
M  V30 9 1 9 8
M  V30 10 2 10 7
M  V30 11 1 10 8
M  V30 12 1 11 9
M  V30 13 1 12 1
M  V30 14 1 13 1
M  V30 15 1 14 5
M  V30 16 1 15 6
M  V30 17 1 16 6
M  V30 18 1 17 7
M  V30 19 1 18 9
M  V30 20 1 19 10
M  V30 21 1 20 11
M  V30 END BOND
M  V30 END CTAB
M  END
>  <i_epik_Tot_Q>  (1) 
0

>  <i_epik_Tot_abs_Q>  (1) 
0

>  <i_i_glide_confnum>  (1) 
1

>  <i_i_glide_lignum>  (1) 
80

>  <i_i_glide_posenum>  (1) 
197

>  <i_i_glide_rotatable_bonds>  (1) 
2

>  <i_lp_mmshare_version>  (1) 
72125

>  <i_m_source_file_index>  (1) 
74

>  <i_f3d_flags>  (1) 
0

>  <num_sample>  (1) 
100

>  <b_lp_Chiralities_Consistent>  (1) 
1

>  <r_epik_Charging_Adjusted_Penalty>  (1) 
0

>  <r_epik_Ionization_Penalty>  (1) 
0.00049506315318442675

>  <r_epik_Ionization_Penalty_Charging>  (1) 
0

>  <r_epik_Ionization_Penalty_Neutral>  (1) 
0.00049506315318442675

>  <r_epik_State_Penalty>  (1) 
-0

>  <r_glide_ring_energy>  (1) 
0

>  <r_i_docking_score>  (1) 
-6.4274943057871532

>  <r_i_glide_ecoul>  (1) 
-1.6783181716536442

>  <r_i_glide_eff_state_penalty>  (1) 
-0

>  <r_i_glide_einternal>  (1) 
0.24310681031618042

>  <r_i_glide_emodel>  (1) 
-37.308588459473093

>  <r_i_glide_emodel_strain>  (1) 
0

>  <r_i_glide_energy>  (1) 
-26.125450490919981

>  <r_i_glide_erotb>  (1) 
0

>  <r_i_glide_esite>  (1) 
0

>  <r_i_glide_evdw>  (1) 
-24.447132319266338

>  <r_i_glide_gscore>  (1) 
-6.4274943057871532

>  <r_i_glide_gscore_strain>  (1) 
0

>  <r_i_glide_hbond>  (1) 
0

>  <r_i_glide_ligand_efficiency>  (1) 
-0.58431766416246844

>  <r_i_glide_ligand_efficiency_ln>  (1) 
-1.8916104793582194

>  <r_i_glide_ligand_efficiency_sa>  (1) 
-1.2995108516652976

>  <r_i_glide_lipo>  (1) 
-2.309378330148109

>  <r_i_glide_metal>  (1) 
-0

>  <r_i_glide_rewards>  (1) 
-2.6440116339276805

>  <r_lp_Energy>  (1) 
14.863064999999999

>  <r_lp_tautomer_probability>  (1) 
1

>  <s_epik_Chemistry_Notes>  (1) 
This compound has a N-S or N-O group and may undergo hydrolysis at high or low pH.

>  <s_epik_cmdline>  (1) 
J2VwaWtfcHl0aG9uJywgJy1waHQnLCAnMS4wJywgJy1waCcsICc3LjQnLCAnLXRuJywgJzgnLCAnLW1hJywgJzUwMCcsICctaW1hZScsICc8aW5maWxlLm1hZT4nLCAnLW9tYWUnLCAnPG91dGZpbGUubWFlPic=

>  <s_epik_input>  (1) 
TzFbQ0gyXVtDSDJdYyhjMTIpW2NIXWMoW05IXVtPSF0pW2NIXVtjSF0y

>  <s_glide_docking_method>  (1) 
confgen

>  <s_i_glide_gridfile>  (1) 
gpcr_drd2_6luq_protein_autoprepared_prepared

>  <s_lp_Force_Field>  (1) 
S-OPLS

>  <s_lp_Variant>  (1) 
Pocket2Mol_73_num_sample_100-1

>  <s_m_source_file>  (1) 
generated__ligand_Pocket2Mol_2026-05-06_prepared.sdf

>  <GenAI_Model>  (1) 
Pocket2Mol

>  <Protein>  (1) 
generic_title2

$$$$
Pocket2Mol_92_num_sample_100
     RDKit          3D

  0  0  0  0  0  0  0  0  0  0999 V3000
M  V30 BEGIN CTAB
M  V30 COUNTS 26 27 0 0 1
M  V30 BEGIN ATOM
M  V30 1 C 9.902174 7.363470 -9.295717 0
M  V30 2 O 11.247319 7.568924 -9.695377 0
M  V30 3 C 9.799737 6.849843 -7.850663 0
M  V30 4 O 9.777099 7.932462 -6.931460 0
M  V30 5 C 11.875458 8.674027 -9.069338 0
M  V30 6 C 11.004436 8.587676 -6.619833 0 CFG=1
M  V30 7 C 11.434839 8.299910 -5.188580 0
M  V30 8 C 12.183614 8.378442 -7.596050 0
M  V30 9 C 11.419900 6.981381 -4.685984 0
M  V30 10 N 11.837992 9.369368 -4.461246 0
M  V30 11 C 12.234815 9.137290 -3.187756 0
M  V30 12 C 12.250454 7.859335 -2.599208 0
M  V30 13 C 11.834855 6.760731 -3.363766 0
M  V30 14 H 9.487326 6.608836 -9.964265 0
M  V30 15 H 9.309426 8.267373 -9.443337 0
M  V30 16 H 10.566300 6.110628 -7.616838 0
M  V30 17 H 8.842139 6.340495 -7.737719 0
M  V30 18 H 12.814551 8.839366 -9.597760 0
M  V30 19 H 11.294007 9.589088 -9.186023 0
M  V30 20 H 12.996307 9.033032 -7.281690 0
M  V30 21 H 12.581224 7.369083 -7.499346 0
M  V30 22 H 11.093483 6.158394 -5.304434 0
M  V30 23 H 12.548464 9.999859 -2.622402 0
M  V30 24 H 12.576123 7.728051 -1.578207 0
M  V30 25 H 11.833548 5.768879 -2.943801 0
M  V30 26 H 10.749562 9.647344 -6.653439 0
M  V30 END ATOM
M  V30 BEGIN BOND
M  V30 1 1 2 1
M  V30 2 1 3 1
M  V30 3 1 4 3
M  V30 4 1 5 2
M  V30 5 1 6 4
M  V30 6 1 7 6
M  V30 7 1 8 5
M  V30 8 1 8 6
M  V30 9 1 9 7
M  V30 10 2 10 7
M  V30 11 1 11 10
M  V30 12 2 12 11
M  V30 13 2 13 9
M  V30 14 1 13 12
M  V30 15 1 14 1
M  V30 16 1 15 1
M  V30 17 1 16 3
M  V30 18 1 17 3
M  V30 19 1 18 5
M  V30 20 1 19 5
M  V30 21 1 20 8
M  V30 22 1 21 8
M  V30 23 1 22 9
M  V30 24 1 23 11
M  V30 25 1 24 12
M  V30 26 1 25 13
M  V30 27 1 6 26 CFG=1
M  V30 END BOND
M  V30 END CTAB
M  END
>  <i_epik_Tot_Q>  (1) 
0

>  <i_epik_Tot_abs_Q>  (1) 
0

>  <i_i_glide_confnum>  (1) 
16

>  <i_i_glide_lignum>  (1) 
100

>  <i_i_glide_posenum>  (1) 
12

>  <i_i_glide_rotatable_bonds>  (1) 
1

>  <i_lp_mmshare_version>  (1) 
72125

>  <i_m_source_file_index>  (1) 
93

>  <i_f3d_flags>  (1) 
0

>  <num_sample>  (1) 
100

>  <b_lp_Chiralities_Consistent>  (1) 
1

>  <r_epik_Charging_Adjusted_Penalty>  (1) 
0.0037896276157117258

>  <r_epik_Ionization_Penalty>  (1) 
0.0037896276174286705

>  <r_epik_Ionization_Penalty_Charging>  (1) 
0

>  <r_epik_Ionization_Penalty_Neutral>  (1) 
0.0037896276174286705

>  <r_epik_State_Penalty>  (1) 
0.0037896276157117258

>  <r_glide_ring_energy>  (1) 
1.3090148209089068

>  <r_i_docking_score>  (1) 
-6.4158156205194565

>  <r_i_glide_ecoul>  (1) 
-2.0465405070872951

>  <r_i_glide_eff_state_penalty>  (1) 
0.0037896276157117258

>  <r_i_glide_einternal>  (1) 
1.5198022459341551

>  <r_i_glide_emodel>  (1) 
-40.633748836276297

>  <r_i_glide_emodel_strain>  (1) 
0

>  <r_i_glide_energy>  (1) 
-30.203804091281896

>  <r_i_glide_erotb>  (1) 
0.4895878840251785

>  <r_i_glide_esite>  (1) 
0

>  <r_i_glide_evdw>  (1) 
-28.157263584194602

>  <r_i_glide_gscore>  (1) 
-6.4196052481351682

>  <r_i_glide_gscore_strain>  (1) 
0

>  <r_i_glide_hbond>  (1) 
0

>  <r_i_glide_ligand_efficiency>  (1) 
-0.49352427850149666

>  <r_i_glide_ligand_efficiency_ln>  (1) 
-1.7996933412506908

>  <r_i_glide_ligand_efficiency_sa>  (1) 
-1.160440755272929

>  <r_i_glide_lipo>  (1) 
-2.2397673175760655

>  <r_i_glide_metal>  (1) 
-0

>  <r_i_glide_rewards>  (1) 
-2.9545815593114573

>  <r_lp_Energy>  (1) 
20.645538999999999

>  <s_epik_cmdline>  (1) 
J2VwaWtfcHl0aG9uJywgJy1waHQnLCAnMS4wJywgJy1waCcsICc3LjQnLCAnLXRuJywgJzgnLCAnLW1hJywgJzUwMCcsICctaW1hZScsICc8aW5maWxlLm1hZT4nLCAnLW9tYWUnLCAnPG91dGZpbGUubWFlPic=

>  <s_epik_input>  (1) 
W0NIMl0xW0NIMl1PW0NIMl1bQ0gyXU8vQzE9QzJcW0NIXT1bQ0hdW0NIXT1bQ0hdW05IXTI=

>  <s_glide_docking_method>  (1) 
confgen

>  <s_i_glide_gridfile>  (1) 
gpcr_drd2_6luq_protein_autoprepared_prepared

>  <s_lp_Force_Field>  (1) 
S-OPLS

>  <s_lp_Variant>  (1) 
Pocket2Mol_92_num_sample_100-1

>  <s_m_source_file>  (1) 
generated__ligand_Pocket2Mol_2026-05-06_prepared.sdf

>  <GenAI_Model>  (1) 
Pocket2Mol

>  <Protein>  (1) 
generic_title2

$$$$
Pocket2Mol_70_num_sample_100
     RDKit          3D

  0  0  0  0  0  0  0  0  0  0999 V3000
M  V30 BEGIN CTAB
M  V30 COUNTS 20 21 0 0 1
M  V30 BEGIN ATOM
M  V30 1 C 11.120473 8.569334 -7.947863 0
M  V30 2 O 11.263440 9.302312 -6.733310 0
M  V30 3 C 11.434746 8.561291 -5.586402 0
M  V30 4 C 10.998861 7.214810 -5.521430 0
M  V30 5 C 11.203425 6.469773 -4.344849 0
M  V30 6 C 12.057714 9.146923 -4.467439 0
M  V30 7 C 12.257018 8.394483 -3.294027 0
M  V30 8 C 10.312519 6.569301 -6.715338 0
M  V30 9 F 12.856592 8.957967 -2.223473 0
M  V30 10 C 11.834934 7.055996 -3.235341 0
M  V30 11 C 9.972331 7.573090 -7.815529 0
M  V30 12 H 10.926813 9.267541 -8.761872 0
M  V30 13 H 12.055395 8.060008 -8.188516 0
M  V30 14 H 10.873271 5.445383 -4.292158 0
M  V30 15 H 12.388999 10.169191 -4.512273 0
M  V30 16 H 10.984888 5.809949 -7.115126 0
M  V30 17 H 9.407177 6.059135 -6.385550 0
M  V30 18 H 11.988851 6.479797 -2.334731 0
M  V30 19 H 9.056258 8.111267 -7.562281 0
M  V30 20 H 9.781011 7.059826 -8.758819 0
M  V30 END ATOM
M  V30 BEGIN BOND
M  V30 1 1 2 1
M  V30 2 1 3 2
M  V30 3 2 4 3
M  V30 4 1 5 4
M  V30 5 1 6 3
M  V30 6 2 7 6
M  V30 7 1 8 4
M  V30 8 1 9 7
M  V30 9 2 10 5
M  V30 10 1 10 7
M  V30 11 1 11 1
M  V30 12 1 11 8
M  V30 13 1 12 1
M  V30 14 1 13 1
M  V30 15 1 14 5
M  V30 16 1 15 6
M  V30 17 1 16 8
M  V30 18 1 17 8
M  V30 19 1 18 10
M  V30 20 1 19 11
M  V30 21 1 20 11
M  V30 END BOND
M  V30 END CTAB
M  END
>  <i_epik_Tot_Q>  (1) 
0

>  <i_epik_Tot_abs_Q>  (1) 
0

>  <i_i_glide_confnum>  (1) 
1

>  <i_i_glide_lignum>  (1) 
77

>  <i_i_glide_posenum>  (1) 
282

>  <i_i_glide_rotatable_bonds>  (1) 
0

>  <i_lp_mmshare_version>  (1) 
72125

>  <i_m_source_file_index>  (1) 
71

>  <i_f3d_flags>  (1) 
0

>  <num_sample>  (1) 
100

>  <b_lp_Chiralities_Consistent>  (1) 
1

>  <r_epik_Charging_Adjusted_Penalty>  (1) 
0

>  <r_epik_Ionization_Penalty>  (1) 
0

>  <r_epik_Ionization_Penalty_Charging>  (1) 
0

>  <r_epik_Ionization_Penalty_Neutral>  (1) 
0

>  <r_epik_State_Penalty>  (1) 
-0

>  <r_glide_ring_energy>  (1) 
0

>  <r_i_docking_score>  (1) 
-6.3962468360545142

>  <r_i_glide_ecoul>  (1) 
-0.84627959353134607

>  <r_i_glide_eff_state_penalty>  (1) 
-0

>  <r_i_glide_einternal>  (1) 
0

>  <r_i_glide_emodel>  (1) 
-29.050558685950122

>  <r_i_glide_emodel_strain>  (1) 
0

>  <r_i_glide_energy>  (1) 
-20.564049543615408

>  <r_i_glide_erotb>  (1) 
0

>  <r_i_glide_esite>  (1) 
0

>  <r_i_glide_evdw>  (1) 
-19.717769950084062

>  <r_i_glide_gscore>  (1) 
-6.3962468360545142

>  <r_i_glide_gscore_strain>  (1) 
0

>  <r_i_glide_hbond>  (1) 
0

>  <r_i_glide_ligand_efficiency>  (1) 
-0.58147698509586487

>  <r_i_glide_ligand_efficiency_ln>  (1) 
-1.8824143543384788

>  <r_i_glide_ligand_efficiency_sa>  (1) 
-1.2931932379774744

>  <r_i_glide_lipo>  (1) 
-2.1392179993817488

>  <r_i_glide_metal>  (1) 
-0

>  <r_i_glide_rewards>  (1) 
-3.144198400138861

>  <r_lp_Energy>  (1) 
13.183325999999999

>  <r_lp_tautomer_probability>  (1) 
1

>  <s_epik_cmdline>  (1) 
J2VwaWtfcHl0aG9uJywgJy1waHQnLCAnMS4wJywgJy1waCcsICc3LjQnLCAnLXRuJywgJzgnLCAnLW1hJywgJzUwMCcsICctaW1hZScsICc8aW5maWxlLm1hZT4nLCAnLW9tYWUnLCAnPG91dGZpbGUubWFlPic=

>  <s_epik_input>  (1) 
TzFbQ0gyXVtDSDJdW0NIMl1jKGMxMilbY0hdW2NIXWMoRilbY0hdMg==

>  <s_glide_docking_method>  (1) 
confgen

>  <s_i_glide_gridfile>  (1) 
gpcr_drd2_6luq_protein_autoprepared_prepared

>  <s_lp_Force_Field>  (1) 
S-OPLS

>  <s_lp_Variant>  (1) 
Pocket2Mol_70_num_sample_100-1

>  <s_m_source_file>  (1) 
generated__ligand_Pocket2Mol_2026-05-06_prepared.sdf

>  <GenAI_Model>  (1) 
Pocket2Mol

>  <Protein>  (1) 
generic_title2

$$$$
Pocket2Mol_69_num_sample_100
     RDKit          3D

  0  0  0  0  0  0  0  0  0  0999 V3000
M  V30 BEGIN CTAB
M  V30 COUNTS 18 19 0 0 1
M  V30 BEGIN ATOM
M  V30 1 C 11.841376 6.662907 -2.292037 0
M  V30 2 O 11.434881 6.298230 -3.630188 0
M  V30 3 C 11.434815 7.208422 -4.679509 0
M  V30 4 C 11.834842 8.551243 -4.469907 0
M  V30 5 C 11.833659 9.458383 -5.548129 0
M  V30 6 C 11.034682 6.789210 -5.962550 0
M  V30 7 C 11.036590 7.696920 -7.035701 0
M  V30 8 C 12.239247 8.969301 -3.147657 0
M  V30 9 F 10.659288 7.287365 -8.268675 0
M  V30 10 C 12.247131 8.112627 -2.133218 0
M  V30 11 C 11.435372 9.028957 -6.829456 0
M  V30 12 H 12.678722 6.027585 -2.000538 0
M  V30 13 H 11.021417 6.444976 -1.608101 0
M  V30 14 H 12.140465 10.482006 -5.395074 0
M  V30 15 H 10.729644 5.769306 -6.123362 0
M  V30 16 H 12.536022 9.995827 -3.006258 0
M  V30 17 H 12.553237 8.436749 -1.148582 0
M  V30 18 H 11.439585 9.722700 -7.655738 0
M  V30 END ATOM
M  V30 BEGIN BOND
M  V30 1 1 2 1
M  V30 2 1 3 2
M  V30 3 2 4 3
M  V30 4 1 5 4
M  V30 5 1 6 3
M  V30 6 2 7 6
M  V30 7 1 8 4
M  V30 8 1 9 7
M  V30 9 1 10 1
M  V30 10 2 10 8
M  V30 11 2 11 5
M  V30 12 1 11 7
M  V30 13 1 12 1
M  V30 14 1 13 1
M  V30 15 1 14 5
M  V30 16 1 15 6
M  V30 17 1 16 8
M  V30 18 1 17 10
M  V30 19 1 18 11
M  V30 END BOND
M  V30 END CTAB
M  END
>  <i_epik_Tot_Q>  (1) 
0

>  <i_epik_Tot_abs_Q>  (1) 
0

>  <i_i_glide_confnum>  (1) 
1

>  <i_i_glide_lignum>  (1) 
76

>  <i_i_glide_posenum>  (1) 
35

>  <i_i_glide_rotatable_bonds>  (1) 
0

>  <i_lp_mmshare_version>  (1) 
72125

>  <i_m_source_file_index>  (1) 
70

>  <i_f3d_flags>  (1) 
0

>  <num_sample>  (1) 
100

>  <b_lp_Chiralities_Consistent>  (1) 
1

>  <r_epik_Charging_Adjusted_Penalty>  (1) 
0

>  <r_epik_Ionization_Penalty>  (1) 
0

>  <r_epik_Ionization_Penalty_Charging>  (1) 
0

>  <r_epik_Ionization_Penalty_Neutral>  (1) 
0

>  <r_epik_State_Penalty>  (1) 
-0

>  <r_glide_ring_energy>  (1) 
0

>  <r_i_docking_score>  (1) 
-6.3704042151051485

>  <r_i_glide_ecoul>  (1) 
0.43424791971866072

>  <r_i_glide_eff_state_penalty>  (1) 
-0

>  <r_i_glide_einternal>  (1) 
0

>  <r_i_glide_emodel>  (1) 
-30.674824213624007

>  <r_i_glide_emodel_strain>  (1) 
0

>  <r_i_glide_energy>  (1) 
-22.389943358875531

>  <r_i_glide_erotb>  (1) 
0

>  <r_i_glide_esite>  (1) 
-0.021380053814242329

>  <r_i_glide_evdw>  (1) 
-22.824191278594192

>  <r_i_glide_gscore>  (1) 
-6.3704042151051485

>  <r_i_glide_gscore_strain>  (1) 
0

>  <r_i_glide_hbond>  (1) 
0

>  <r_i_glide_ligand_efficiency>  (1) 
-0.5791276559186499

>  <r_i_glide_ligand_efficiency_ln>  (1) 
-1.8748088753950143

>  <r_i_glide_ligand_efficiency_sa>  (1) 
-1.2879683766611545

>  <r_i_glide_lipo>  (1) 
-2.4617382332346542

>  <r_i_glide_metal>  (1) 
-0

>  <r_i_glide_rewards>  (1) 
-2.8112135520843413

>  <r_lp_Energy>  (1) 
13.322941

>  <r_lp_tautomer_probability>  (1) 
1

>  <s_epik_cmdline>  (1) 
J2VwaWtfcHl0aG9uJywgJy1waHQnLCAnMS4wJywgJy1waCcsICc3LjQnLCAnLXRuJywgJzgnLCAnLW1hJywgJzUwMCcsICctaW1hZScsICc8aW5maWxlLm1hZT4nLCAnLW9tYWUnLCAnPG91dGZpbGUubWFlPic=

>  <s_epik_input>  (1) 
TzFbQ0gyXVtDSF09W0NIXWMoYzEyKVtjSF1bY0hdYyhGKVtjSF0y

>  <s_glide_docking_method>  (1) 
confgen

>  <s_i_glide_gridfile>  (1) 
gpcr_drd2_6luq_protein_autoprepared_prepared

>  <s_lp_Force_Field>  (1) 
S-OPLS

>  <s_lp_Variant>  (1) 
Pocket2Mol_69_num_sample_100-1

>  <s_m_source_file>  (1) 
generated__ligand_Pocket2Mol_2026-05-06_prepared.sdf

>  <GenAI_Model>  (1) 
Pocket2Mol

>  <Protein>  (1) 
generic_title2

$$$$
Pocket2Mol_93_num_sample_100
     RDKit          3D

  0  0  0  0  0  0  0  0  0  0999 V3000
M  V30 BEGIN CTAB
M  V30 COUNTS 23 25 0 0 1
M  V30 BEGIN ATOM
M  V30 1 C 12.234837 8.108995 -2.330977 0
M  V30 2 O 11.834912 6.872230 -3.033097 0
M  V30 3 C 11.620505 7.320370 -4.291665 0
M  V30 4 C 11.834839 8.635404 -4.489792 0
M  V30 5 C 11.658022 9.229974 -5.753598 0
M  V30 6 C 11.245277 8.418965 -6.836362 0
M  V30 7 O 11.080305 8.969301 -8.086137 0
M  V30 8 C 12.265657 9.369303 -3.304512 0
M  V30 9 C 11.005546 7.030535 -6.617909 0
M  V30 10 O 10.590061 6.219193 -7.647909 0
M  V30 11 C 11.201144 6.487468 -5.332450 0
M  V30 12 C 10.958247 8.042900 -9.157569 0
M  V30 13 C 10.013254 6.910689 -8.745129 0
M  V30 14 H 11.531245 8.285933 -1.516440 0
M  V30 15 H 13.211042 7.969165 -1.871152 0
M  V30 16 H 11.840968 10.285005 -5.896207 0
M  V30 17 H 13.270222 9.769306 -3.436613 0
M  V30 18 H 11.557155 10.148341 -3.019637 0
M  V30 19 H 11.033078 5.441835 -5.151447 0
M  V30 20 H 10.567058 8.564912 -10.030991 0
M  V30 21 H 11.941083 7.652167 -9.424907 0
M  V30 22 H 9.034840 7.301094 -8.464649 0
M  V30 23 H 9.862728 6.213258 -9.569159 0
M  V30 END ATOM
M  V30 BEGIN BOND
M  V30 1 1 2 1
M  V30 2 1 3 2
M  V30 3 1 4 3
M  V30 4 2 5 4
M  V30 5 1 6 5
M  V30 6 1 7 6
M  V30 7 1 8 1
M  V30 8 1 8 4
M  V30 9 2 9 6
M  V30 10 1 10 9
M  V30 11 2 11 3
M  V30 12 1 11 9
M  V30 13 1 12 7
M  V30 14 1 13 10
M  V30 15 1 13 12
M  V30 16 1 14 1
M  V30 17 1 15 1
M  V30 18 1 16 5
M  V30 19 1 17 8
M  V30 20 1 18 8
M  V30 21 1 19 11
M  V30 22 1 20 12
M  V30 23 1 21 12
M  V30 24 1 22 13
M  V30 25 1 23 13
M  V30 END BOND
M  V30 END CTAB
M  END
>  <i_epik_Tot_Q>  (1) 
0

>  <i_epik_Tot_abs_Q>  (1) 
0

>  <i_i_glide_confnum>  (1) 
2

>  <i_i_glide_lignum>  (1) 
102

>  <i_i_glide_posenum>  (1) 
52

>  <i_i_glide_rotatable_bonds>  (1) 
0

>  <i_lp_mmshare_version>  (1) 
72125

>  <i_m_source_file_index>  (1) 
94

>  <i_f3d_flags>  (1) 
0

>  <num_sample>  (1) 
100

>  <b_lp_Chiralities_Consistent>  (1) 
1

>  <r_epik_Charging_Adjusted_Penalty>  (1) 
0

>  <r_epik_Ionization_Penalty>  (1) 
0

>  <r_epik_Ionization_Penalty_Charging>  (1) 
0

>  <r_epik_Ionization_Penalty_Neutral>  (1) 
0

>  <r_epik_State_Penalty>  (1) 
-0

>  <r_glide_ring_energy>  (1) 
0.0016243131038040329

>  <r_i_docking_score>  (1) 
-6.3624048437398244

>  <r_i_glide_ecoul>  (1) 
-0.6455297809670415

>  <r_i_glide_eff_state_penalty>  (1) 
-0

>  <r_i_glide_einternal>  (1) 
0

>  <r_i_glide_emodel>  (1) 
-34.13210239082197

>  <r_i_glide_emodel_strain>  (1) 
0

>  <r_i_glide_energy>  (1) 
-23.564169205905465

>  <r_i_glide_erotb>  (1) 
0

>  <r_i_glide_esite>  (1) 
0

>  <r_i_glide_evdw>  (1) 
-22.918639424938423

>  <r_i_glide_gscore>  (1) 
-6.3624048437398244

>  <r_i_glide_gscore_strain>  (1) 
0

>  <r_i_glide_hbond>  (1) 
0

>  <r_i_glide_ligand_efficiency>  (1) 
-0.4894157572107557

>  <r_i_glide_ligand_efficiency_ln>  (1) 
-1.7847111433499432

>  <r_i_glide_ligand_efficiency_sa>  (1) 
-1.1507802466467705

>  <r_i_glide_lipo>  (1) 
-2.1760594309127916

>  <r_i_glide_metal>  (1) 
-0

>  <r_i_glide_rewards>  (1) 
-2.943583974435056

>  <r_lp_Energy>  (1) 
18.084001999999998

>  <r_lp_tautomer_probability>  (1) 
1

>  <s_epik_cmdline>  (1) 
J2VwaWtfcHl0aG9uJywgJy1waHQnLCAnMS4wJywgJy1waCcsICc3LjQnLCAnLXRuJywgJzgnLCAnLW1hJywgJzUwMCcsICctaW1hZScsICc8aW5maWxlLm1hZT4nLCAnLW9tYWUnLCAnPG91dGZpbGUubWFlPic=

>  <s_epik_input>  (1) 
TzFbQ0gyXVtDSDJdYyhjMTIpW2NIXWMzYyhbY0hdMilPW0NIMl1bQ0gyXU8z

>  <s_glide_docking_method>  (1) 
confgen

>  <s_i_glide_gridfile>  (1) 
gpcr_drd2_6luq_protein_autoprepared_prepared

>  <s_lp_Force_Field>  (1) 
S-OPLS

>  <s_lp_Variant>  (1) 
Pocket2Mol_93_num_sample_100-1

>  <s_m_source_file>  (1) 
generated__ligand_Pocket2Mol_2026-05-06_prepared.sdf

>  <GenAI_Model>  (1) 
Pocket2Mol

>  <Protein>  (1) 
generic_title2

$$$$
Pocket2Mol_84_num_sample_100
     RDKit          3D

  0  0  0  0  0  0  0  0  0  0999 V3000
M  V30 BEGIN CTAB
M  V30 COUNTS 23 24 0 0 1
M  V30 BEGIN ATOM
M  V30 1 C 12.082394 7.727645 -2.372690 0
M  V30 2 O 12.315192 8.951798 -3.166585 0
M  V30 3 C 11.874936 8.579970 -4.388515 0
M  V30 4 C 11.434862 7.308767 -4.491795 0
M  V30 5 C 10.937493 6.795844 -5.704058 0
M  V30 6 C 11.507460 6.527644 -3.254462 0
M  V30 7 C 10.909374 7.637564 -6.851196 0
M  V30 8 N 10.415021 7.161719 -8.093508 0
M  V30 9 C 11.875484 9.442381 -5.495591 0
M  V30 10 C 11.400103 8.968603 -6.738537 0
M  V30 11 O 9.843189 8.169432 -8.895595 0
M  V30 12 C 9.457374 6.063097 -8.003116 0
M  V30 13 H 11.380531 7.971198 -1.575880 0
M  V30 14 H 13.010442 7.430216 -1.887258 0
M  V30 15 H 10.585638 5.777556 -5.755642 0
M  V30 16 H 10.531973 6.169574 -2.925008 0
M  V30 17 H 12.211929 5.704121 -3.344338 0
M  V30 18 H 12.238352 10.454527 -5.400576 0
M  V30 19 H 11.410116 9.619365 -7.598108 0
M  V30 20 H 8.894883 8.072428 -8.823846 0
M  V30 21 H 8.930739 5.920893 -8.948590 0
M  V30 22 H 9.973720 5.131154 -7.783163 0
M  V30 23 H 8.705587 6.244712 -7.232775 0
M  V30 END ATOM
M  V30 BEGIN BOND
M  V30 1 1 2 1
M  V30 2 1 3 2
M  V30 3 2 4 3
M  V30 4 1 5 4
M  V30 5 1 6 1
M  V30 6 1 6 4
M  V30 7 2 7 5
M  V30 8 1 8 7
M  V30 9 1 9 3
M  V30 10 1 10 7
M  V30 11 2 10 9
M  V30 12 1 11 8
M  V30 13 1 12 8
M  V30 14 1 13 1
M  V30 15 1 14 1
M  V30 16 1 15 5
M  V30 17 1 16 6
M  V30 18 1 17 6
M  V30 19 1 18 9
M  V30 20 1 19 10
M  V30 21 1 20 11
M  V30 22 1 21 12
M  V30 23 1 22 12
M  V30 24 1 23 12
M  V30 END BOND
M  V30 END CTAB
M  END
>  <i_epik_Tot_Q>  (1) 
0

>  <i_epik_Tot_abs_Q>  (1) 
0

>  <i_i_glide_confnum>  (1) 
2

>  <i_i_glide_lignum>  (1) 
91

>  <i_i_glide_posenum>  (1) 
74

>  <i_i_glide_rotatable_bonds>  (1) 
2

>  <i_lp_mmshare_version>  (1) 
72125

>  <i_m_source_file_index>  (1) 
85

>  <i_f3d_flags>  (1) 
0

>  <num_sample>  (1) 
100

>  <b_lp_Chiralities_Consistent>  (1) 
1

>  <r_epik_Charging_Adjusted_Penalty>  (1) 
0

>  <r_epik_Ionization_Penalty>  (1) 
0.00097486698469066322

>  <r_epik_Ionization_Penalty_Charging>  (1) 
0

>  <r_epik_Ionization_Penalty_Neutral>  (1) 
0.00097486698469066322

>  <r_epik_State_Penalty>  (1) 
-0

>  <r_glide_ring_energy>  (1) 
0

>  <r_i_docking_score>  (1) 
-6.3616629632628134

>  <r_i_glide_ecoul>  (1) 
-3.4783342330396017

>  <r_i_glide_eff_state_penalty>  (1) 
-0

>  <r_i_glide_einternal>  (1) 
0.65177253510086786

>  <r_i_glide_emodel>  (1) 
-37.189392024134676

>  <r_i_glide_emodel_strain>  (1) 
0.40661186080120615

>  <r_i_glide_energy>  (1) 
-27.202226646989587

>  <r_i_glide_erotb>  (1) 
0

>  <r_i_glide_esite>  (1) 
-0.027078411647811114

>  <r_i_glide_evdw>  (1) 
-23.723892413949986

>  <r_i_glide_gscore>  (1) 
-6.3616629632628134

>  <r_i_glide_gscore_strain>  (1) 
0

>  <r_i_glide_hbond>  (1) 
-0.16

>  <r_i_glide_ligand_efficiency>  (1) 
-0.53013858027190108

>  <r_i_glide_ligand_efficiency_ln>  (1) 
-1.8254902075066535

>  <r_i_glide_ligand_efficiency_sa>  (1) 
-1.2137143667284962

>  <r_i_glide_lipo>  (1) 
-1.8748539196026051

>  <r_i_glide_metal>  (1) 
-0

>  <r_i_glide_rewards>  (1) 
-2.5917858763589572

>  <r_lp_Energy>  (1) 
21.474352

>  <r_lp_tautomer_probability>  (1) 
1

>  <s_epik_Chemistry_Notes>  (1) 
This compound has a N-S or N-O group and may undergo hydrolysis at high or low pH.

>  <s_epik_cmdline>  (1) 
J2VwaWtfcHl0aG9uJywgJy1waHQnLCAnMS4wJywgJy1waCcsICc3LjQnLCAnLXRuJywgJzgnLCAnLW1hJywgJzUwMCcsICctaW1hZScsICc8aW5maWxlLm1hZT4nLCAnLW9tYWUnLCAnPG91dGZpbGUubWFlPic=

>  <s_epik_input>  (1) 
TzFbQ0gyXVtDSDJdYyhjMTIpW2NIXWMoTihbT0hdKVtDSDNdKVtjSF1bY0hdMg==

>  <s_glide_docking_method>  (1) 
confgen

>  <s_i_glide_gridfile>  (1) 
gpcr_drd2_6luq_protein_autoprepared_prepared

>  <s_lp_Force_Field>  (1) 
S-OPLS

>  <s_lp_Variant>  (1) 
Pocket2Mol_84_num_sample_100-1

>  <s_m_source_file>  (1) 
generated__ligand_Pocket2Mol_2026-05-06_prepared.sdf

>  <GenAI_Model>  (1) 
Pocket2Mol

>  <Protein>  (1) 
generic_title2

$$$$
Pocket2Mol_70_num_sample_100
     RDKit          3D

  0  0  0  0  0  0  0  0  0  0999 V3000
M  V30 BEGIN CTAB
M  V30 COUNTS 20 21 0 0 1
M  V30 BEGIN ATOM
M  V30 1 C 12.295694 6.698137 -2.386535 0
M  V30 2 O 11.434841 6.390175 -3.474137 0
M  V30 3 C 11.434848 7.256188 -4.545257 0
M  V30 4 C 11.834839 8.609246 -4.384560 0
M  V30 5 C 11.832166 9.476284 -5.495483 0
M  V30 6 C 11.030742 6.793461 -5.811908 0
M  V30 7 C 11.033216 7.662794 -6.917033 0
M  V30 8 C 12.267546 9.126714 -3.023949 0
M  V30 9 F 10.651650 7.210400 -8.134238 0
M  V30 10 C 11.434838 9.000993 -6.759520 0
M  V30 11 C 12.056581 8.121531 -1.891669 0
M  V30 12 H 12.112559 5.982119 -1.584952 0
M  V30 13 H 13.333997 6.569321 -2.691665 0
M  V30 14 H 12.136860 10.505528 -5.379238 0
M  V30 15 H 10.722553 5.769304 -5.936698 0
M  V30 16 H 13.328281 9.369301 -3.092295 0
M  V30 17 H 11.746814 10.057311 -2.795088 0
M  V30 18 H 11.437419 9.664591 -7.609919 0
M  V30 19 H 11.034840 8.179120 -1.514840 0
M  V30 20 H 12.710188 8.365948 -1.055361 0
M  V30 END ATOM
M  V30 BEGIN BOND
M  V30 1 1 2 1
M  V30 2 1 3 2
M  V30 3 2 4 3
M  V30 4 1 5 4
M  V30 5 1 6 3
M  V30 6 2 7 6
M  V30 7 1 8 4
M  V30 8 1 9 7
M  V30 9 2 10 5
M  V30 10 1 10 7
M  V30 11 1 11 1
M  V30 12 1 11 8
M  V30 13 1 12 1
M  V30 14 1 13 1
M  V30 15 1 14 5
M  V30 16 1 15 6
M  V30 17 1 16 8
M  V30 18 1 17 8
M  V30 19 1 18 10
M  V30 20 1 19 11
M  V30 21 1 20 11
M  V30 END BOND
M  V30 END CTAB
M  END
>  <i_epik_Tot_Q>  (1) 
0

>  <i_epik_Tot_abs_Q>  (1) 
0

>  <i_i_glide_confnum>  (1) 
1

>  <i_i_glide_lignum>  (1) 
77

>  <i_i_glide_posenum>  (1) 
231

>  <i_i_glide_rotatable_bonds>  (1) 
0

>  <i_lp_mmshare_version>  (1) 
72125

>  <i_m_source_file_index>  (1) 
71

>  <i_f3d_flags>  (1) 
0

>  <num_sample>  (1) 
100

>  <b_lp_Chiralities_Consistent>  (1) 
1

>  <r_epik_Charging_Adjusted_Penalty>  (1) 
0

>  <r_epik_Ionization_Penalty>  (1) 
0

>  <r_epik_Ionization_Penalty_Charging>  (1) 
0

>  <r_epik_Ionization_Penalty_Neutral>  (1) 
0

>  <r_epik_State_Penalty>  (1) 
-0

>  <r_glide_ring_energy>  (1) 
0

>  <r_i_docking_score>  (1) 
-6.3530230063330686

>  <r_i_glide_ecoul>  (1) 
0.47511495663796877

>  <r_i_glide_eff_state_penalty>  (1) 
-0

>  <r_i_glide_einternal>  (1) 
0

>  <r_i_glide_emodel>  (1) 
-30.580552578411297

>  <r_i_glide_emodel_strain>  (1) 
0

>  <r_i_glide_energy>  (1) 
-22.151392602783229

>  <r_i_glide_erotb>  (1) 
0

>  <r_i_glide_esite>  (1) 
-0.015525049959445989

>  <r_i_glide_evdw>  (1) 
-22.626507559421199

>  <r_i_glide_gscore>  (1) 
-6.3530230063330686

>  <r_i_glide_gscore_strain>  (1) 
0

>  <r_i_glide_hbond>  (1) 
0

>  <r_i_glide_ligand_efficiency>  (1) 
-0.57754754603027891

>  <r_i_glide_ligand_efficiency_ln>  (1) 
-1.8696935886140402

>  <r_i_glide_ligand_efficiency_sa>  (1) 
-1.2844542437285058

>  <r_i_glide_lipo>  (1) 
-2.4853041489547816

>  <r_i_glide_metal>  (1) 
-0

>  <r_i_glide_rewards>  (1) 
-2.7921356729434761

>  <r_lp_Energy>  (1) 
13.183325999999999

>  <r_lp_tautomer_probability>  (1) 
1

>  <s_epik_cmdline>  (1) 
J2VwaWtfcHl0aG9uJywgJy1waHQnLCAnMS4wJywgJy1waCcsICc3LjQnLCAnLXRuJywgJzgnLCAnLW1hJywgJzUwMCcsICctaW1hZScsICc8aW5maWxlLm1hZT4nLCAnLW9tYWUnLCAnPG91dGZpbGUubWFlPic=

>  <s_epik_input>  (1) 
TzFbQ0gyXVtDSDJdW0NIMl1jKGMxMilbY0hdW2NIXWMoRilbY0hdMg==

>  <s_glide_docking_method>  (1) 
confgen

>  <s_i_glide_gridfile>  (1) 
gpcr_drd2_6luq_protein_autoprepared_prepared

>  <s_lp_Force_Field>  (1) 
S-OPLS

>  <s_lp_Variant>  (1) 
Pocket2Mol_70_num_sample_100-1

>  <s_m_source_file>  (1) 
generated__ligand_Pocket2Mol_2026-05-06_prepared.sdf

>  <GenAI_Model>  (1) 
Pocket2Mol

>  <Protein>  (1) 
generic_title2

$$$$
Pocket2Mol_65_num_sample_100
     RDKit          3D

  0  0  0  0  0  0  0  0  0  0999 V3000
M  V30 BEGIN CTAB
M  V30 COUNTS 18 19 0 0 1
M  V30 BEGIN ATOM
M  V30 1 C 10.321991 7.963068 -8.029012 0
M  V30 2 O 10.694145 8.969301 -7.095900 0
M  V30 3 C 11.168884 8.523870 -5.885495 0
M  V30 4 C 11.834840 9.418278 -5.025772 0
M  V30 5 C 9.508473 6.890928 -7.304575 0
M  V30 6 C 10.991334 7.171078 -5.496452 0
M  V30 7 O 10.336185 6.288215 -6.322597 0
M  V30 8 C 11.488145 6.728632 -4.257107 0
M  V30 9 C 12.160518 7.625372 -3.402895 0
M  V30 10 F 12.634839 7.196156 -2.210968 0
M  V30 11 C 12.331166 8.969301 -3.785707 0
M  V30 12 H 11.212117 7.534026 -8.491274 0
M  V30 13 H 9.728134 8.418403 -8.822200 0
M  V30 14 H 11.967062 10.449156 -5.319251 0
M  V30 15 H 9.156130 6.130779 -8.002205 0
M  V30 16 H 8.634579 7.330412 -6.825997 0
M  V30 17 H 11.353402 5.703004 -3.959633 0
M  V30 18 H 12.843401 9.656405 -3.127859 0
M  V30 END ATOM
M  V30 BEGIN BOND
M  V30 1 1 2 1
M  V30 2 1 3 2
M  V30 3 1 4 3
M  V30 4 1 5 1
M  V30 5 2 6 3
M  V30 6 1 7 5
M  V30 7 1 7 6
M  V30 8 1 8 6
M  V30 9 2 9 8
M  V30 10 1 10 9
M  V30 11 2 11 4
M  V30 12 1 11 9
M  V30 13 1 12 1
M  V30 14 1 13 1
M  V30 15 1 14 4
M  V30 16 1 15 5
M  V30 17 1 16 5
M  V30 18 1 17 8
M  V30 19 1 18 11
M  V30 END BOND
M  V30 END CTAB
M  END
>  <i_epik_Tot_Q>  (1) 
0

>  <i_epik_Tot_abs_Q>  (1) 
0

>  <i_i_glide_confnum>  (1) 
2

>  <i_i_glide_lignum>  (1) 
72

>  <i_i_glide_posenum>  (1) 
115

>  <i_i_glide_rotatable_bonds>  (1) 
0

>  <i_lp_mmshare_version>  (1) 
72125

>  <i_m_source_file_index>  (1) 
66

>  <i_f3d_flags>  (1) 
0

>  <num_sample>  (1) 
100

>  <b_lp_Chiralities_Consistent>  (1) 
1

>  <r_epik_Charging_Adjusted_Penalty>  (1) 
0

>  <r_epik_Ionization_Penalty>  (1) 
0

>  <r_epik_Ionization_Penalty_Charging>  (1) 
0

>  <r_epik_Ionization_Penalty_Neutral>  (1) 
0

>  <r_epik_State_Penalty>  (1) 
-0

>  <r_glide_ring_energy>  (1) 
0.0030884427186306492

>  <r_i_docking_score>  (1) 
-6.3417068365794869

>  <r_i_glide_ecoul>  (1) 
-1.0273258784555963

>  <r_i_glide_eff_state_penalty>  (1) 
-0

>  <r_i_glide_einternal>  (1) 
0

>  <r_i_glide_emodel>  (1) 
-31.173316653224191

>  <r_i_glide_emodel_strain>  (1) 
0

>  <r_i_glide_energy>  (1) 
-22.278199103696451

>  <r_i_glide_erotb>  (1) 
0

>  <r_i_glide_esite>  (1) 
0

>  <r_i_glide_evdw>  (1) 
-21.250873225240856

>  <r_i_glide_gscore>  (1) 
-6.3417068365794869

>  <r_i_glide_gscore_strain>  (1) 
0

>  <r_i_glide_hbond>  (1) 
0

>  <r_i_glide_ligand_efficiency>  (1) 
-0.57651880332540795

>  <r_i_glide_ligand_efficiency_ln>  (1) 
-1.8663632417831144

>  <r_i_glide_ligand_efficiency_sa>  (1) 
-1.2821663404345542

>  <r_i_glide_lipo>  (1) 
-1.8475000093800631

>  <r_i_glide_metal>  (1) 
-0

>  <r_i_glide_rewards>  (1) 
-3.2775642841690407

>  <r_lp_Energy>  (1) 
15.305638999999999

>  <r_lp_tautomer_probability>  (1) 
1

>  <s_epik_cmdline>  (1) 
J2VwaWtfcHl0aG9uJywgJy1waHQnLCAnMS4wJywgJy1waCcsICc3LjQnLCAnLXRuJywgJzgnLCAnLW1hJywgJzUwMCcsICctaW1hZScsICc8aW5maWxlLm1hZT4nLCAnLW9tYWUnLCAnPG91dGZpbGUubWFlPic=

>  <s_epik_input>  (1) 
TzFbQ0gyXVtDSDJdT2MoYzEyKVtjSF1jKEYpW2NIXVtjSF0y

>  <s_glide_docking_method>  (1) 
confgen

>  <s_i_glide_gridfile>  (1) 
gpcr_drd2_6luq_protein_autoprepared_prepared

>  <s_lp_Force_Field>  (1) 
S-OPLS

>  <s_lp_Variant>  (1) 
Pocket2Mol_65_num_sample_100-1

>  <s_m_source_file>  (1) 
generated__ligand_Pocket2Mol_2026-05-06_prepared.sdf

>  <GenAI_Model>  (1) 
Pocket2Mol

>  <Protein>  (1) 
generic_title2

$$$$
Pocket2Mol_61_num_sample_100
     RDKit          3D

  0  0  0  0  0  0  0  0  0  0999 V3000
M  V30 BEGIN CTAB
M  V30 COUNTS 18 19 0 0 1
M  V30 BEGIN ATOM
M  V30 1 C 12.634838 8.313769 -1.987910 0
M  V30 2 O 12.353759 9.369301 -2.830769 0
M  V30 3 C 11.861803 8.838668 -3.994252 0
M  V30 4 C 11.834839 7.439830 -3.891729 0
M  V30 5 C 11.337278 6.724871 -5.011595 0
M  V30 6 C 10.886255 7.411158 -6.171109 0
M  V30 7 C 12.337883 7.107660 -2.595364 0
M  V30 8 N 10.379150 6.675940 -7.254884 0
M  V30 9 C 10.939028 8.830000 -6.220576 0
M  V30 10 C 11.434838 9.543685 -5.120185 0
M  V30 11 O 10.417987 7.349217 -8.487042 0
M  V30 12 H 13.032257 8.578069 -1.018899 0
M  V30 13 H 11.290514 5.650352 -4.975596 0
M  V30 14 H 12.450881 6.114905 -2.183057 0
M  V30 15 H 10.656564 5.708914 -7.354565 0
M  V30 16 H 10.595663 9.359780 -7.094826 0
M  V30 17 H 11.476846 10.622115 -5.140016 0
M  V30 18 H 9.509202 7.478319 -8.734646 0
M  V30 END ATOM
M  V30 BEGIN BOND
M  V30 1 1 2 1
M  V30 2 1 3 2
M  V30 3 1 4 3
M  V30 4 2 5 4
M  V30 5 1 6 5
M  V30 6 2 7 1
M  V30 7 1 7 4
M  V30 8 1 8 6
M  V30 9 2 9 6
M  V30 10 2 10 3
M  V30 11 1 10 9
M  V30 12 1 11 8
M  V30 13 1 12 1
M  V30 14 1 13 5
M  V30 15 1 14 7
M  V30 16 1 15 8
M  V30 17 1 16 9
M  V30 18 1 17 10
M  V30 19 1 18 11
M  V30 END BOND
M  V30 END CTAB
M  END
>  <i_epik_Tot_Q>  (1) 
0

>  <i_epik_Tot_abs_Q>  (1) 
0

>  <i_i_glide_confnum>  (1) 
1

>  <i_i_glide_lignum>  (1) 
68

>  <i_i_glide_posenum>  (1) 
63

>  <i_i_glide_rotatable_bonds>  (1) 
2

>  <i_lp_mmshare_version>  (1) 
72125

>  <i_m_source_file_index>  (1) 
62

>  <i_f3d_flags>  (1) 
0

>  <num_sample>  (1) 
100

>  <b_lp_Chiralities_Consistent>  (1) 
1

>  <r_epik_Charging_Adjusted_Penalty>  (1) 
0

>  <r_epik_Ionization_Penalty>  (1) 
0.00016546089717554426

>  <r_epik_Ionization_Penalty_Charging>  (1) 
0

>  <r_epik_Ionization_Penalty_Neutral>  (1) 
0.00016546089717554426

>  <r_epik_State_Penalty>  (1) 
-0

>  <r_glide_ring_energy>  (1) 
0

>  <r_i_docking_score>  (1) 
-6.3267158691218004

>  <r_i_glide_ecoul>  (1) 
-1.6254113465472577

>  <r_i_glide_eff_state_penalty>  (1) 
-0

>  <r_i_glide_einternal>  (1) 
1.0254374479913411

>  <r_i_glide_emodel>  (1) 
-35.713621301205002

>  <r_i_glide_emodel_strain>  (1) 
0

>  <r_i_glide_energy>  (1) 
-25.757103510109207

>  <r_i_glide_erotb>  (1) 
0

>  <r_i_glide_esite>  (1) 
0

>  <r_i_glide_evdw>  (1) 
-24.131692163561951

>  <r_i_glide_gscore>  (1) 
-6.3267158691218004

>  <r_i_glide_gscore_strain>  (1) 
0

>  <r_i_glide_hbond>  (1) 
0

>  <r_i_glide_ligand_efficiency>  (1) 
-0.57515598810198187

>  <r_i_glide_ligand_efficiency_ln>  (1) 
-1.8619514026138217

>  <r_i_glide_ligand_efficiency_sa>  (1) 
-1.2791354665105299

>  <r_i_glide_lipo>  (1) 
-2.322176661430428

>  <r_i_glide_metal>  (1) 
-0

>  <r_i_glide_rewards>  (1) 
-2.5541428975311864

>  <r_lp_Energy>  (1) 
13.798807999999999

>  <r_lp_tautomer_probability>  (1) 
1

>  <s_epik_Chemistry_Notes>  (1) 
This compound has a N-S or N-O group and may undergo hydrolysis at high or low pH.

>  <s_epik_cmdline>  (1) 
J2VwaWtfcHl0aG9uJywgJy1waHQnLCAnMS4wJywgJy1waCcsICc3LjQnLCAnLXRuJywgJzgnLCAnLW1hJywgJzUwMCcsICctaW1hZScsICc8aW5maWxlLm1hZT4nLCAnLW9tYWUnLCAnPG91dGZpbGUubWFlPic=

>  <s_epik_input>  (1) 
bzFbY0hdW2NIXWMoYzEyKVtjSF1jKFtOSF1bT0hdKVtjSF1bY0hdMg==

>  <s_glide_docking_method>  (1) 
confgen

>  <s_i_glide_gridfile>  (1) 
gpcr_drd2_6luq_protein_autoprepared_prepared

>  <s_lp_Force_Field>  (1) 
S-OPLS

>  <s_lp_Variant>  (1) 
Pocket2Mol_61_num_sample_100-1

>  <s_m_source_file>  (1) 
generated__ligand_Pocket2Mol_2026-05-06_prepared.sdf

>  <GenAI_Model>  (1) 
Pocket2Mol

>  <Protein>  (1) 
generic_title2

$$$$
Pocket2Mol_75_num_sample_100
     RDKit          3D

  0  0  0  0  0  0  0  0  0  0999 V3000
M  V30 BEGIN CTAB
M  V30 COUNTS 17 18 0 0 1
M  V30 BEGIN ATOM
M  V30 1 C 9.834839 7.313522 -8.178342 0
M  V30 2 O 10.306513 8.569301 -7.852237 0
M  V30 3 C 10.845056 8.484121 -6.591824 0
M  V30 4 C 10.725243 7.167716 -6.122880 0
M  V30 5 C 11.236428 6.898572 -4.826090 0
M  V30 6 C 11.834839 7.935210 -4.050318 0
M  V30 7 C 10.074828 6.417904 -7.152815 0
M  V30 8 N 12.354664 7.641734 -2.698105 0 CHG=1
M  V30 9 C 11.926588 9.249882 -4.576508 0
M  V30 10 O 12.259946 6.489461 -2.291667 0 CHG=-1
M  V30 11 C 11.427905 9.520665 -5.858762 0
M  V30 12 O 12.847858 8.569301 -2.065374 0
M  V30 13 H 9.362179 7.222097 -9.147119 0
M  V30 14 H 11.164384 5.897931 -4.423655 0
M  V30 15 H 9.819212 5.369652 -7.122971 0
M  V30 16 H 12.377992 10.038466 -3.994730 0
M  V30 17 H 11.490220 10.515820 -6.273377 0
M  V30 END ATOM
M  V30 BEGIN BOND
M  V30 1 1 2 1
M  V30 2 1 3 2
M  V30 3 1 4 3
M  V30 4 2 5 4
M  V30 5 1 6 5
M  V30 6 2 7 1
M  V30 7 1 7 4
M  V30 8 1 8 6
M  V30 9 2 9 6
M  V30 10 1 10 8
M  V30 11 2 11 3
M  V30 12 1 11 9
M  V30 13 2 12 8
M  V30 14 1 13 1
M  V30 15 1 14 5
M  V30 16 1 15 7
M  V30 17 1 16 9
M  V30 18 1 17 11
M  V30 END BOND
M  V30 END CTAB
M  END
>  <i_epik_Tot_Q>  (1) 
0

>  <i_epik_Tot_abs_Q>  (1) 
2

>  <i_i_glide_confnum>  (1) 
1

>  <i_i_glide_lignum>  (1) 
82

>  <i_i_glide_posenum>  (1) 
127

>  <i_i_glide_rotatable_bonds>  (1) 
1

>  <i_lp_mmshare_version>  (1) 
72125

>  <i_m_source_file_index>  (1) 
76

>  <i_f3d_flags>  (1) 
0

>  <num_sample>  (1) 
100

>  <b_lp_Chiralities_Consistent>  (1) 
1

>  <r_epik_Charging_Adjusted_Penalty>  (1) 
0

>  <r_epik_Ionization_Penalty>  (1) 
0

>  <r_epik_Ionization_Penalty_Charging>  (1) 
0

>  <r_epik_Ionization_Penalty_Neutral>  (1) 
0

>  <r_epik_State_Penalty>  (1) 
-0

>  <r_glide_ring_energy>  (1) 
0

>  <r_i_docking_score>  (1) 
-6.324956313085079

>  <r_i_glide_ecoul>  (1) 
-0.15454482039259654

>  <r_i_glide_eff_state_penalty>  (1) 
-0

>  <r_i_glide_einternal>  (1) 
0.052266215277317229

>  <r_i_glide_emodel>  (1) 
-36.778361962945262

>  <r_i_glide_emodel_strain>  (1) 
0

>  <r_i_glide_energy>  (1) 
-26.434053093947231

>  <r_i_glide_erotb>  (1) 
0

>  <r_i_glide_esite>  (1) 
0

>  <r_i_glide_evdw>  (1) 
-26.279508273554633

>  <r_i_glide_gscore>  (1) 
-6.324956313085079

>  <r_i_glide_gscore_strain>  (1) 
0

>  <r_i_glide_hbond>  (1) 
0

>  <r_i_glide_ligand_efficiency>  (1) 
-0.52707969275708988

>  <r_i_glide_ligand_efficiency_ln>  (1) 
-1.8149571706518592

>  <r_i_glide_ligand_efficiency_sa>  (1) 
-1.2067112625193501

>  <r_i_glide_lipo>  (1) 
-1.7294658430151244

>  <r_i_glide_metal>  (1) 
-0

>  <r_i_glide_rewards>  (1) 
-3.2583333333333337

>  <r_lp_Energy>  (1) 
17.097996999999999

>  <r_lp_tautomer_probability>  (1) 
1

>  <s_epik_cmdline>  (1) 
J2VwaWtfcHl0aG9uJywgJy1waHQnLCAnMS4wJywgJy1waCcsICc3LjQnLCAnLXRuJywgJzgnLCAnLW1hJywgJzUwMCcsICctaW1hZScsICc8aW5maWxlLm1hZT4nLCAnLW9tYWUnLCAnPG91dGZpbGUubWFlPic=

>  <s_epik_input>  (1) 
bzFbY0hdW2NIXWMoYzEyKVtjSF1jKFtOK10oW08tXSk9TylbY0hdW2NIXTI=

>  <s_glide_docking_method>  (1) 
confgen

>  <s_i_glide_gridfile>  (1) 
gpcr_drd2_6luq_protein_autoprepared_prepared

>  <s_lp_Force_Field>  (1) 
S-OPLS

>  <s_lp_Variant>  (1) 
Pocket2Mol_75_num_sample_100-1

>  <s_m_source_file>  (1) 
generated__ligand_Pocket2Mol_2026-05-06_prepared.sdf

>  <GenAI_Model>  (1) 
Pocket2Mol

>  <Protein>  (1) 
generic_title2

$$$$
Pocket2Mol_83_num_sample_100
     RDKit          3D

  0  0  0  0  0  0  0  0  0  0999 V3000
M  V30 BEGIN CTAB
M  V30 COUNTS 21 22 0 0 1
M  V30 BEGIN ATOM
M  V30 1 C 11.395611 8.993667 -5.669078 0
M  V30 2 O 12.215680 9.305918 -6.858239 0
M  V30 3 C 11.607725 8.569301 -7.816318 0
M  V30 4 C 10.557453 7.829810 -7.407873 0
M  V30 5 C 9.832816 7.021496 -8.296013 0
M  V30 6 C 10.234838 7.946000 -5.991605 0
M  V30 7 C 12.023926 8.563306 -9.157138 0
M  V30 8 C 10.208465 6.988117 -9.663850 0
M  V30 9 N 9.494379 6.184358 -10.587353 0
M  V30 10 C 11.321445 7.769302 -10.092272 0
M  V30 11 O 8.234839 5.769299 -10.141425 0
M  V30 12 O 9.638228 6.568091 -11.926504 0
M  V30 13 H 10.964375 9.922006 -5.292241 0
M  V30 14 H 12.042840 8.608554 -4.880571 0
M  V30 15 H 8.994644 6.440577 -7.938379 0
M  V30 16 H 9.229951 8.356248 -5.891666 0
M  V30 17 H 10.336425 6.996338 -5.465138 0
M  V30 18 H 12.867318 9.159235 -9.470887 0
M  V30 19 H 11.631473 7.757209 -11.124856 0
M  V30 20 H 7.753134 6.565872 -9.891858 0
M  V30 21 H 10.020192 5.819256 -12.361004 0
M  V30 END ATOM
M  V30 BEGIN BOND
M  V30 1 1 2 1
M  V30 2 1 3 2
M  V30 3 2 4 3
M  V30 4 1 5 4
M  V30 5 1 6 1
M  V30 6 1 6 4
M  V30 7 1 7 3
M  V30 8 2 8 5
M  V30 9 1 9 8
M  V30 10 2 10 7
M  V30 11 1 10 8
M  V30 12 1 11 9
M  V30 13 1 12 9
M  V30 14 1 13 1
M  V30 15 1 14 1
M  V30 16 1 15 5
M  V30 17 1 16 6
M  V30 18 1 17 6
M  V30 19 1 18 7
M  V30 20 1 19 10
M  V30 21 1 20 11
M  V30 22 1 21 12
M  V30 END BOND
M  V30 END CTAB
M  END
>  <i_epik_Tot_Q>  (1) 
0

>  <i_epik_Tot_abs_Q>  (1) 
0

>  <i_i_glide_confnum>  (1) 
1

>  <i_i_glide_lignum>  (1) 
90

>  <i_i_glide_posenum>  (1) 
138

>  <i_i_glide_rotatable_bonds>  (1) 
3

>  <i_lp_mmshare_version>  (1) 
72125

>  <i_m_source_file_index>  (1) 
84

>  <i_f3d_flags>  (1) 
0

>  <num_sample>  (1) 
100

>  <b_lp_Chiralities_Consistent>  (1) 
1

>  <r_epik_Charging_Adjusted_Penalty>  (1) 
0

>  <r_epik_Ionization_Penalty>  (1) 
0.00063218327523872333

>  <r_epik_Ionization_Penalty_Charging>  (1) 
0

>  <r_epik_Ionization_Penalty_Neutral>  (1) 
0.00063218327523872333

>  <r_epik_State_Penalty>  (1) 
-0

>  <r_glide_ring_energy>  (1) 
0

>  <r_i_docking_score>  (1) 
-6.3209607959047744

>  <r_i_glide_ecoul>  (1) 
-6.1843616027164092

>  <r_i_glide_eff_state_penalty>  (1) 
-0

>  <r_i_glide_einternal>  (1) 
0.38700981831985537

>  <r_i_glide_emodel>  (1) 
-39.576702841473264

>  <r_i_glide_emodel_strain>  (1) 
0.00065912184045657796

>  <r_i_glide_energy>  (1) 
-26.710656752729449

>  <r_i_glide_erotb>  (1) 
0

>  <r_i_glide_esite>  (1) 
-0.057987558024315655

>  <r_i_glide_evdw>  (1) 
-20.526295150013038

>  <r_i_glide_gscore>  (1) 
-6.3209607959047744

>  <r_i_glide_gscore_strain>  (1) 
0

>  <r_i_glide_hbond>  (1) 
-0.16

>  <r_i_glide_ligand_efficiency>  (1) 
-0.52674673299206454

>  <r_i_glide_ligand_efficiency_ln>  (1) 
-1.8138106500756057

>  <r_i_glide_ligand_efficiency_sa>  (1) 
-1.2059489749489067

>  <r_i_glide_lipo>  (1) 
-1.2795565218711278

>  <r_i_glide_metal>  (1) 
-0

>  <r_i_glide_rewards>  (1) 
-2.8694477181012186

>  <r_lp_Energy>  (1) 
14.636832

>  <r_lp_tautomer_probability>  (1) 
1

>  <s_epik_Chemistry_Notes>  (1) 
This compound has a N-S or N-O group and may undergo hydrolysis at high or low pH.

>  <s_epik_cmdline>  (1) 
J2VwaWtfcHl0aG9uJywgJy1waHQnLCAnMS4wJywgJy1waCcsICc3LjQnLCAnLXRuJywgJzgnLCAnLW1hJywgJzUwMCcsICctaW1hZScsICc8aW5maWxlLm1hZT4nLCAnLW9tYWUnLCAnPG91dGZpbGUubWFlPic=

>  <s_epik_input>  (1) 
TzFbQ0gyXVtDSDJdYyhjMTIpW2NIXWMoTihbT0hdKVtPSF0pW2NIXVtjSF0y

>  <s_glide_docking_method>  (1) 
confgen

>  <s_i_glide_gridfile>  (1) 
gpcr_drd2_6luq_protein_autoprepared_prepared

>  <s_lp_Force_Field>  (1) 
S-OPLS

>  <s_lp_Variant>  (1) 
Pocket2Mol_83_num_sample_100-1

>  <s_m_source_file>  (1) 
generated__ligand_Pocket2Mol_2026-05-06_prepared.sdf

>  <GenAI_Model>  (1) 
Pocket2Mol

>  <Protein>  (1) 
generic_title2

$$$$
Pocket2Mol_58_num_sample_100
     RDKit          3D

  0  0  0  0  0  0  0  0  0  0999 V3000
M  V30 BEGIN CTAB
M  V30 COUNTS 18 19 0 0 1
M  V30 BEGIN ATOM
M  V30 1 C 11.844590 6.660922 -2.291668 0
M  V30 2 O 11.434899 6.297982 -3.629901 0
M  V30 3 C 11.434839 7.209353 -4.678043 0
M  V30 4 C 11.834838 8.552948 -4.466067 0
M  V30 5 C 11.832480 9.462393 -5.542265 0
M  V30 6 C 11.034766 6.791687 -5.961950 0
M  V30 7 C 11.034558 7.703320 -7.032858 0
M  V30 8 C 12.239790 8.969225 -3.142411 0
M  V30 9 C 11.434888 9.035590 -6.823807 0
M  V30 10 C 12.248993 8.110898 -2.130215 0
M  V30 11 H 12.681158 6.025992 -1.998948 0
M  V30 12 H 11.023703 6.443896 -1.607991 0
M  V30 13 H 12.136132 10.486579 -5.386535 0
M  V30 14 H 10.728614 5.769333 -6.124996 0
M  V30 15 H 10.727265 7.379917 -8.016872 0
M  V30 16 H 12.534937 9.996565 -2.997972 0
M  V30 17 H 11.435673 9.732131 -7.647601 0
M  V30 18 H 12.553689 8.434042 -1.145599 0
M  V30 END ATOM
M  V30 BEGIN BOND
M  V30 1 1 2 1
M  V30 2 1 3 2
M  V30 3 1 4 3
M  V30 4 2 5 4
M  V30 5 2 6 3
M  V30 6 1 7 6
M  V30 7 1 8 4
M  V30 8 1 9 5
M  V30 9 2 9 7
M  V30 10 1 10 1
M  V30 11 2 10 8
M  V30 12 1 11 1
M  V30 13 1 12 1
M  V30 14 1 13 5
M  V30 15 1 14 6
M  V30 16 1 15 7
M  V30 17 1 16 8
M  V30 18 1 17 9
M  V30 19 1 18 10
M  V30 END BOND
M  V30 END CTAB
M  END
>  <i_epik_Tot_Q>  (1) 
0

>  <i_epik_Tot_abs_Q>  (1) 
0

>  <i_i_glide_confnum>  (1) 
1

>  <i_i_glide_lignum>  (1) 
65

>  <i_i_glide_posenum>  (1) 
14

>  <i_i_glide_rotatable_bonds>  (1) 
0

>  <i_lp_mmshare_version>  (1) 
72125

>  <i_m_source_file_index>  (1) 
59

>  <i_f3d_flags>  (1) 
0

>  <num_sample>  (1) 
100

>  <b_lp_Chiralities_Consistent>  (1) 
1

>  <r_epik_Charging_Adjusted_Penalty>  (1) 
0

>  <r_epik_Ionization_Penalty>  (1) 
0

>  <r_epik_Ionization_Penalty_Charging>  (1) 
0

>  <r_epik_Ionization_Penalty_Neutral>  (1) 
0

>  <r_epik_State_Penalty>  (1) 
-0

>  <r_glide_ring_energy>  (1) 
0

>  <r_i_docking_score>  (1) 
-6.317475800563221

>  <r_i_glide_ecoul>  (1) 
-0.05243790682857434

>  <r_i_glide_eff_state_penalty>  (1) 
-0

>  <r_i_glide_einternal>  (1) 
0

>  <r_i_glide_emodel>  (1) 
-30.428635513913036

>  <r_i_glide_emodel_strain>  (1) 
0

>  <r_i_glide_energy>  (1) 
-22.128787040231867

>  <r_i_glide_erotb>  (1) 
0

>  <r_i_glide_esite>  (1) 
0

>  <r_i_glide_evdw>  (1) 
-22.076349133403291

>  <r_i_glide_gscore>  (1) 
-6.317475800563221

>  <r_i_glide_gscore_strain>  (1) 
0

>  <r_i_glide_hbond>  (1) 
0

>  <r_i_glide_ligand_efficiency>  (1) 
-0.63174758005632214

>  <r_i_glide_ligand_efficiency_ln>  (1) 
-1.9128881232961499

>  <r_i_glide_ligand_efficiency_sa>  (1) 
-1.3610589018170351

>  <r_i_glide_lipo>  (1) 
-2.461201046351682

>  <r_i_glide_metal>  (1) 
-0

>  <r_i_glide_rewards>  (1) 
-2.7445916115170883

>  <r_lp_Energy>  (1) 
15.262369

>  <r_lp_tautomer_probability>  (1) 
1

>  <s_epik_cmdline>  (1) 
J2VwaWtfcHl0aG9uJywgJy1waHQnLCAnMS4wJywgJy1waCcsICc3LjQnLCAnLXRuJywgJzgnLCAnLW1hJywgJzUwMCcsICctaW1hZScsICc8aW5maWxlLm1hZT4nLCAnLW9tYWUnLCAnPG91dGZpbGUubWFlPic=

>  <s_epik_input>  (1) 
TzFbQ0gyXVtDSF09W0NIXWMoYzEyKVtjSF1bY0hdW2NIXVtjSF0y

>  <s_glide_docking_method>  (1) 
confgen

>  <s_i_glide_gridfile>  (1) 
gpcr_drd2_6luq_protein_autoprepared_prepared

>  <s_lp_Force_Field>  (1) 
S-OPLS

>  <s_lp_Variant>  (1) 
Pocket2Mol_58_num_sample_100-1

>  <s_m_source_file>  (1) 
generated__ligand_Pocket2Mol_2026-05-06_prepared.sdf

>  <GenAI_Model>  (1) 
Pocket2Mol

>  <Protein>  (1) 
generic_title2

$$$$
Pocket2Mol_92_num_sample_100
     RDKit          3D

  0  0  0  0  0  0  0  0  0  0999 V3000
M  V30 BEGIN CTAB
M  V30 COUNTS 26 27 0 0 1
M  V30 BEGIN ATOM
M  V30 1 C 10.119259 7.207875 -9.285922 0
M  V30 2 O 10.463320 8.577222 -9.344519 0
M  V30 3 C 9.434836 6.906583 -7.946329 0
M  V30 4 O 10.347698 6.845309 -6.868655 0
M  V30 5 C 11.765186 8.891576 -8.874642 0
M  V30 6 C 10.965417 8.078746 -6.515301 0 CFG=1
M  V30 7 C 11.434839 8.027104 -5.062102 0
M  V30 8 C 12.134617 8.311125 -7.494771 0
M  V30 9 C 11.434849 6.805121 -4.349035 0
M  V30 10 N 11.829307 9.206507 -4.518455 0
M  V30 11 C 12.234921 9.183672 -3.224814 0
M  V30 12 C 12.268113 8.015818 -2.438835 0
M  V30 13 C 11.860569 6.803556 -3.013111 0
M  V30 14 H 10.981486 6.569301 -9.468654 0
M  V30 15 H 9.407732 7.019754 -10.089692 0
M  V30 16 H 8.951670 5.931094 -8.008838 0
M  V30 17 H 8.643344 7.625349 -7.732322 0
M  V30 18 H 12.499381 8.568552 -9.613279 0
M  V30 19 H 11.834834 9.976829 -8.848087 0
M  V30 20 H 12.862224 8.991195 -7.051934 0
M  V30 21 H 12.663055 7.369298 -7.624496 0
M  V30 22 H 11.111191 5.888583 -4.820589 0
M  V30 23 H 12.541133 10.128871 -2.803631 0
M  V30 24 H 12.600273 8.054993 -1.413003 0
M  V30 25 H 11.872097 5.888511 -2.438506 0
M  V30 26 H 10.244012 8.896152 -6.581502 0
M  V30 END ATOM
M  V30 BEGIN BOND
M  V30 1 1 2 1
M  V30 2 1 3 1
M  V30 3 1 4 3
M  V30 4 1 5 2
M  V30 5 1 6 4
M  V30 6 1 7 6
M  V30 7 1 8 5
M  V30 8 1 8 6
M  V30 9 1 9 7
M  V30 10 2 10 7
M  V30 11 1 11 10
M  V30 12 2 12 11
M  V30 13 2 13 9
M  V30 14 1 13 12
M  V30 15 1 14 1
M  V30 16 1 15 1
M  V30 17 1 16 3
M  V30 18 1 17 3
M  V30 19 1 18 5
M  V30 20 1 19 5
M  V30 21 1 20 8
M  V30 22 1 21 8
M  V30 23 1 22 9
M  V30 24 1 23 11
M  V30 25 1 24 12
M  V30 26 1 25 13
M  V30 27 1 6 26 CFG=1
M  V30 END BOND
M  V30 END CTAB
M  END
>  <i_epik_Tot_Q>  (1) 
0

>  <i_epik_Tot_abs_Q>  (1) 
0

>  <i_i_glide_confnum>  (1) 
6

>  <i_i_glide_lignum>  (1) 
100

>  <i_i_glide_posenum>  (1) 
245

>  <i_i_glide_rotatable_bonds>  (1) 
1

>  <i_lp_mmshare_version>  (1) 
72125

>  <i_m_source_file_index>  (1) 
93

>  <i_f3d_flags>  (1) 
0

>  <num_sample>  (1) 
100

>  <b_lp_Chiralities_Consistent>  (1) 
1

>  <r_epik_Charging_Adjusted_Penalty>  (1) 
0.0037896276157117258

>  <r_epik_Ionization_Penalty>  (1) 
0.0037896276174286705

>  <r_epik_Ionization_Penalty_Charging>  (1) 
0

>  <r_epik_Ionization_Penalty_Neutral>  (1) 
0.0037896276174286705

>  <r_epik_State_Penalty>  (1) 
0.0037896276157117258

>  <r_glide_ring_energy>  (1) 
0.28659802225524172

>  <r_i_docking_score>  (1) 
-6.3171447003381989

>  <r_i_glide_ecoul>  (1) 
-1.4963732519557924

>  <r_i_glide_eff_state_penalty>  (1) 
0.0037896276157117258

>  <r_i_glide_einternal>  (1) 
1.8104759422490044

>  <r_i_glide_emodel>  (1) 
-37.90939044480811

>  <r_i_glide_emodel_strain>  (1) 
0.11506464016172657

>  <r_i_glide_energy>  (1) 
-27.911837886283486

>  <r_i_glide_erotb>  (1) 
0.4895878840251785

>  <r_i_glide_esite>  (1) 
0

>  <r_i_glide_evdw>  (1) 
-26.415464634327694

>  <r_i_glide_gscore>  (1) 
-6.3209343279539105

>  <r_i_glide_gscore_strain>  (1) 
0

>  <r_i_glide_hbond>  (1) 
0

>  <r_i_glide_ligand_efficiency>  (1) 
-0.48593420771832296

>  <r_i_glide_ligand_efficiency_ln>  (1) 
-1.7720152706001957

>  <r_i_glide_ligand_efficiency_sa>  (1) 
-1.1425939585581968

>  <r_i_glide_lipo>  (1) 
-2.201569992300064

>  <r_i_glide_metal>  (1) 
-0

>  <r_i_glide_rewards>  (1) 
-3.0637230001692712

>  <r_lp_Energy>  (1) 
20.645538999999999

>  <s_epik_cmdline>  (1) 
J2VwaWtfcHl0aG9uJywgJy1waHQnLCAnMS4wJywgJy1waCcsICc3LjQnLCAnLXRuJywgJzgnLCAnLW1hJywgJzUwMCcsICctaW1hZScsICc8aW5maWxlLm1hZT4nLCAnLW9tYWUnLCAnPG91dGZpbGUubWFlPic=

>  <s_epik_input>  (1) 
W0NIMl0xW0NIMl1PW0NIMl1bQ0gyXU8vQzE9QzJcW0NIXT1bQ0hdW0NIXT1bQ0hdW05IXTI=

>  <s_glide_docking_method>  (1) 
confgen

>  <s_i_glide_gridfile>  (1) 
gpcr_drd2_6luq_protein_autoprepared_prepared

>  <s_lp_Force_Field>  (1) 
S-OPLS

>  <s_lp_Variant>  (1) 
Pocket2Mol_92_num_sample_100-1

>  <s_m_source_file>  (1) 
generated__ligand_Pocket2Mol_2026-05-06_prepared.sdf

>  <GenAI_Model>  (1) 
Pocket2Mol

>  <Protein>  (1) 
generic_title2

$$$$
Pocket2Mol_93_num_sample_100
     RDKit          3D

  0  0  0  0  0  0  0  0  0  0999 V3000
M  V30 BEGIN CTAB
M  V30 COUNTS 23 25 0 0 1
M  V30 BEGIN ATOM
M  V30 1 C 10.237418 7.849878 -9.331772 0
M  V30 2 O 10.957936 8.969301 -8.690303 0
M  V30 3 C 11.084202 8.532770 -7.418195 0
M  V30 4 C 10.554502 7.320696 -7.162793 0
M  V30 5 C 10.642368 6.734374 -5.893063 0
M  V30 6 C 11.304376 7.424015 -4.859687 0
M  V30 7 O 11.434839 6.838746 -3.620071 0
M  V30 8 C 9.899232 6.675859 -8.304846 0
M  V30 9 C 11.834839 8.722021 -5.112742 0
M  V30 10 O 12.476216 9.422857 -4.117342 0
M  V30 11 C 11.726173 9.275958 -6.409529 0
M  V30 12 C 12.414866 7.415599 -2.773058 0
M  V30 13 C 12.277728 8.938370 -2.795933 0
M  V30 14 H 9.324947 8.233510 -9.787922 0
M  V30 15 H 10.853242 7.465385 -10.145396 0
M  V30 16 H 10.219573 5.769301 -5.712336 0
M  V30 17 H 10.364368 5.725359 -8.565997 0
M  V30 18 H 8.827384 6.555824 -8.138684 0
M  V30 19 H 12.138558 10.249264 -6.624985 0
M  V30 20 H 12.274694 7.035163 -1.762001 0
M  V30 21 H 13.412561 7.113307 -3.091669 0
M  V30 22 H 11.309045 9.262713 -2.419685 0
M  V30 23 H 13.034827 9.369301 -2.145220 0
M  V30 END ATOM
M  V30 BEGIN BOND
M  V30 1 1 2 1
M  V30 2 1 3 2
M  V30 3 1 4 3
M  V30 4 2 5 4
M  V30 5 1 6 5
M  V30 6 1 7 6
M  V30 7 1 8 1
M  V30 8 1 8 4
M  V30 9 2 9 6
M  V30 10 1 10 9
M  V30 11 2 11 3
M  V30 12 1 11 9
M  V30 13 1 12 7
M  V30 14 1 13 10
M  V30 15 1 13 12
M  V30 16 1 14 1
M  V30 17 1 15 1
M  V30 18 1 16 5
M  V30 19 1 17 8
M  V30 20 1 18 8
M  V30 21 1 19 11
M  V30 22 1 20 12
M  V30 23 1 21 12
M  V30 24 1 22 13
M  V30 25 1 23 13
M  V30 END BOND
M  V30 END CTAB
M  END
>  <i_epik_Tot_Q>  (1) 
0

>  <i_epik_Tot_abs_Q>  (1) 
0

>  <i_i_glide_confnum>  (1) 
2

>  <i_i_glide_lignum>  (1) 
102

>  <i_i_glide_posenum>  (1) 
50

>  <i_i_glide_rotatable_bonds>  (1) 
0

>  <i_lp_mmshare_version>  (1) 
72125

>  <i_m_source_file_index>  (1) 
94

>  <i_f3d_flags>  (1) 
0

>  <num_sample>  (1) 
100

>  <b_lp_Chiralities_Consistent>  (1) 
1

>  <r_epik_Charging_Adjusted_Penalty>  (1) 
0

>  <r_epik_Ionization_Penalty>  (1) 
0

>  <r_epik_Ionization_Penalty_Charging>  (1) 
0

>  <r_epik_Ionization_Penalty_Neutral>  (1) 
0

>  <r_epik_State_Penalty>  (1) 
-0

>  <r_glide_ring_energy>  (1) 
0.0016243131038040329

>  <r_i_docking_score>  (1) 
-6.3171376621732325

>  <r_i_glide_ecoul>  (1) 
-1.4133647079425207

>  <r_i_glide_eff_state_penalty>  (1) 
-0

>  <r_i_glide_einternal>  (1) 
0

>  <r_i_glide_emodel>  (1) 
-35.681735258118856

>  <r_i_glide_emodel_strain>  (1) 
1.124639936733729e-09

>  <r_i_glide_energy>  (1) 
-25.188990711644834

>  <r_i_glide_erotb>  (1) 
0

>  <r_i_glide_esite>  (1) 
0

>  <r_i_glide_evdw>  (1) 
-23.775626003702314

>  <r_i_glide_gscore>  (1) 
-6.3171376621732325

>  <r_i_glide_gscore_strain>  (1) 
0

>  <r_i_glide_hbond>  (1) 
0

>  <r_i_glide_ligand_efficiency>  (1) 
-0.48593366632101787

>  <r_i_glide_ligand_efficiency_ln>  (1) 
-1.7720132963323281

>  <r_i_glide_ligand_efficiency_sa>  (1) 
-1.1425926855519335

>  <r_i_glide_lipo>  (1) 
-1.9170579362625113

>  <r_i_glide_metal>  (1) 
-0

>  <r_i_glide_rewards>  (1) 
-2.9992937195342284

>  <r_lp_Energy>  (1) 
18.084001999999998

>  <r_lp_tautomer_probability>  (1) 
1

>  <s_epik_cmdline>  (1) 
J2VwaWtfcHl0aG9uJywgJy1waHQnLCAnMS4wJywgJy1waCcsICc3LjQnLCAnLXRuJywgJzgnLCAnLW1hJywgJzUwMCcsICctaW1hZScsICc8aW5maWxlLm1hZT4nLCAnLW9tYWUnLCAnPG91dGZpbGUubWFlPic=

>  <s_epik_input>  (1) 
TzFbQ0gyXVtDSDJdYyhjMTIpW2NIXWMzYyhbY0hdMilPW0NIMl1bQ0gyXU8z

>  <s_glide_docking_method>  (1) 
confgen

>  <s_i_glide_gridfile>  (1) 
gpcr_drd2_6luq_protein_autoprepared_prepared

>  <s_lp_Force_Field>  (1) 
S-OPLS

>  <s_lp_Variant>  (1) 
Pocket2Mol_93_num_sample_100-1

>  <s_m_source_file>  (1) 
generated__ligand_Pocket2Mol_2026-05-06_prepared.sdf

>  <GenAI_Model>  (1) 
Pocket2Mol

>  <Protein>  (1) 
generic_title2

$$$$
Pocket2Mol_70_num_sample_100
     RDKit          3D

  0  0  0  0  0  0  0  0  0  0999 V3000
M  V30 BEGIN CTAB
M  V30 COUNTS 20 21 0 0 1
M  V30 BEGIN ATOM
M  V30 1 C 10.248762 6.538396 -7.064536 0
M  V30 2 O 11.029314 6.203517 -5.921442 0
M  V30 3 C 11.420992 7.229580 -5.088507 0
M  V30 4 C 11.423181 8.573152 -5.544123 0
M  V30 5 C 11.828636 9.605719 -4.680796 0
M  V30 6 C 11.834829 6.938633 -3.772858 0
M  V30 7 C 12.239985 7.977868 -2.914103 0
M  V30 8 C 10.992742 8.903069 -6.957208 0
M  V30 9 F 12.634835 7.697445 -1.652955 0
M  V30 10 C 12.234835 9.308496 -3.366362 0
M  V30 11 C 10.912874 7.668031 -7.846700 0
M  V30 12 H 10.157093 5.652043 -7.692684 0
M  V30 13 H 9.238977 6.814617 -6.754906 0
M  V30 14 H 11.828262 10.627321 -5.028148 0
M  V30 15 H 11.838061 5.916652 -3.422392 0
M  V30 16 H 10.009360 9.369301 -6.895178 0
M  V30 17 H 11.672679 9.636630 -7.390742 0
M  V30 18 H 12.544800 10.102355 -2.702946 0
M  V30 19 H 11.916925 7.361981 -8.140915 0
M  V30 20 H 10.364299 7.889102 -8.762966 0
M  V30 END ATOM
M  V30 BEGIN BOND
M  V30 1 1 2 1
M  V30 2 1 3 2
M  V30 3 2 4 3
M  V30 4 1 5 4
M  V30 5 1 6 3
M  V30 6 2 7 6
M  V30 7 1 8 4
M  V30 8 1 9 7
M  V30 9 2 10 5
M  V30 10 1 10 7
M  V30 11 1 11 1
M  V30 12 1 11 8
M  V30 13 1 12 1
M  V30 14 1 13 1
M  V30 15 1 14 5
M  V30 16 1 15 6
M  V30 17 1 16 8
M  V30 18 1 17 8
M  V30 19 1 18 10
M  V30 20 1 19 11
M  V30 21 1 20 11
M  V30 END BOND
M  V30 END CTAB
M  END
>  <i_epik_Tot_Q>  (1) 
0

>  <i_epik_Tot_abs_Q>  (1) 
0

>  <i_i_glide_confnum>  (1) 
1

>  <i_i_glide_lignum>  (1) 
77

>  <i_i_glide_posenum>  (1) 
199

>  <i_i_glide_rotatable_bonds>  (1) 
0

>  <i_lp_mmshare_version>  (1) 
72125

>  <i_m_source_file_index>  (1) 
71

>  <i_f3d_flags>  (1) 
0

>  <num_sample>  (1) 
100

>  <b_lp_Chiralities_Consistent>  (1) 
1

>  <r_epik_Charging_Adjusted_Penalty>  (1) 
0

>  <r_epik_Ionization_Penalty>  (1) 
0

>  <r_epik_Ionization_Penalty_Charging>  (1) 
0

>  <r_epik_Ionization_Penalty_Neutral>  (1) 
0

>  <r_epik_State_Penalty>  (1) 
-0

>  <r_glide_ring_energy>  (1) 
0

>  <r_i_docking_score>  (1) 
-6.3168425837437994

>  <r_i_glide_ecoul>  (1) 
-0.43889189274947349

>  <r_i_glide_eff_state_penalty>  (1) 
-0

>  <r_i_glide_einternal>  (1) 
0

>  <r_i_glide_emodel>  (1) 
-28.885985985450603

>  <r_i_glide_emodel_strain>  (1) 
0

>  <r_i_glide_energy>  (1) 
-20.504830018258637

>  <r_i_glide_erotb>  (1) 
0

>  <r_i_glide_esite>  (1) 
0

>  <r_i_glide_evdw>  (1) 
-20.065938125509163

>  <r_i_glide_gscore>  (1) 
-6.3168425837437994

>  <r_i_glide_gscore_strain>  (1) 
0

>  <r_i_glide_hbond>  (1) 
0

>  <r_i_glide_ligand_efficiency>  (1) 
-0.57425841670398181

>  <r_i_glide_ligand_efficiency_ln>  (1) 
-1.8590456964088538

>  <r_i_glide_ligand_efficiency_sa>  (1) 
-1.2771392855915131

>  <r_i_glide_lipo>  (1) 
-2.197787425314246

>  <r_i_glide_metal>  (1) 
-0

>  <r_i_glide_rewards>  (1) 
-3.0499244682416742

>  <r_lp_Energy>  (1) 
13.183325999999999

>  <r_lp_tautomer_probability>  (1) 
1

>  <s_epik_cmdline>  (1) 
J2VwaWtfcHl0aG9uJywgJy1waHQnLCAnMS4wJywgJy1waCcsICc3LjQnLCAnLXRuJywgJzgnLCAnLW1hJywgJzUwMCcsICctaW1hZScsICc8aW5maWxlLm1hZT4nLCAnLW9tYWUnLCAnPG91dGZpbGUubWFlPic=

>  <s_epik_input>  (1) 
TzFbQ0gyXVtDSDJdW0NIMl1jKGMxMilbY0hdW2NIXWMoRilbY0hdMg==

>  <s_glide_docking_method>  (1) 
confgen

>  <s_i_glide_gridfile>  (1) 
gpcr_drd2_6luq_protein_autoprepared_prepared

>  <s_lp_Force_Field>  (1) 
S-OPLS

>  <s_lp_Variant>  (1) 
Pocket2Mol_70_num_sample_100-1

>  <s_m_source_file>  (1) 
generated__ligand_Pocket2Mol_2026-05-06_prepared.sdf

>  <GenAI_Model>  (1) 
Pocket2Mol

>  <Protein>  (1) 
generic_title2

$$$$
Pocket2Mol_80_num_sample_100
     RDKit          3D

  0  0  0  0  0  0  0  0  0  0999 V3000
M  V30 BEGIN CTAB
M  V30 COUNTS 19 20 0 0 1
M  V30 BEGIN ATOM
M  V30 1 C 10.096223 7.209986 -8.296005 0
M  V30 2 O 10.568220 8.569425 -7.964037 0
M  V30 3 C 10.993086 8.417543 -6.690571 0
M  V30 4 C 10.891080 7.171412 -6.184618 0
M  V30 5 C 11.303549 6.871982 -4.874661 0
M  V30 6 C 10.321127 6.178708 -7.099230 0
M  V30 7 C 11.834812 7.910000 -4.067253 0
M  V30 8 N 12.276519 7.628427 -2.687384 0 CHG=1
M  V30 9 O 12.194842 6.472108 -2.291711 0 CHG=-1
M  V30 10 O 12.698481 8.568686 -2.022682 0
M  V30 11 C 11.933789 9.224674 -4.599731 0
M  V30 12 C 11.509554 9.476552 -5.924314 0
M  V30 13 H 9.034840 7.266803 -8.539967 0
M  V30 14 H 10.605507 6.866352 -9.196403 0
M  V30 15 H 11.213667 5.865939 -4.489886 0
M  V30 16 H 11.029076 5.385312 -7.338585 0
M  V30 17 H 9.384796 5.770768 -6.717354 0
M  V30 18 H 12.333663 10.026563 -3.998677 0
M  V30 19 H 11.579880 10.469457 -6.342656 0
M  V30 END ATOM
M  V30 BEGIN BOND
M  V30 1 1 2 1
M  V30 2 1 3 2
M  V30 3 2 4 3
M  V30 4 1 5 4
M  V30 5 1 6 1
M  V30 6 1 6 4
M  V30 7 2 7 5
M  V30 8 1 8 7
M  V30 9 1 9 8
M  V30 10 2 10 8
M  V30 11 1 11 7
M  V30 12 1 12 3
M  V30 13 2 12 11
M  V30 14 1 13 1
M  V30 15 1 14 1
M  V30 16 1 15 5
M  V30 17 1 16 6
M  V30 18 1 17 6
M  V30 19 1 18 11
M  V30 20 1 19 12
M  V30 END BOND
M  V30 END CTAB
M  END
>  <i_epik_Tot_Q>  (1) 
0

>  <i_epik_Tot_abs_Q>  (1) 
2

>  <i_i_glide_confnum>  (1) 
1

>  <i_i_glide_lignum>  (1) 
87

>  <i_i_glide_posenum>  (1) 
11

>  <i_i_glide_rotatable_bonds>  (1) 
1

>  <i_lp_mmshare_version>  (1) 
72125

>  <i_m_source_file_index>  (1) 
81

>  <i_f3d_flags>  (1) 
0

>  <num_sample>  (1) 
100

>  <b_lp_Chiralities_Consistent>  (1) 
1

>  <r_epik_Charging_Adjusted_Penalty>  (1) 
0

>  <r_epik_Ionization_Penalty>  (1) 
0

>  <r_epik_Ionization_Penalty_Charging>  (1) 
0

>  <r_epik_Ionization_Penalty_Neutral>  (1) 
0

>  <r_epik_State_Penalty>  (1) 
-0

>  <r_glide_ring_energy>  (1) 
0

>  <r_i_docking_score>  (1) 
-6.3115148345992207

>  <r_i_glide_ecoul>  (1) 
-0.058651602247739021

>  <r_i_glide_eff_state_penalty>  (1) 
-0

>  <r_i_glide_einternal>  (1) 
0.012528829455966894

>  <r_i_glide_emodel>  (1) 
-36.689550221478434

>  <r_i_glide_emodel_strain>  (1) 
0

>  <r_i_glide_energy>  (1) 
-26.325791624977665

>  <r_i_glide_erotb>  (1) 
0

>  <r_i_glide_esite>  (1) 
0

>  <r_i_glide_evdw>  (1) 
-26.267140022729926

>  <r_i_glide_gscore>  (1) 
-6.3115148345992207

>  <r_i_glide_gscore_strain>  (1) 
0

>  <r_i_glide_hbond>  (1) 
0

>  <r_i_glide_ligand_efficiency>  (1) 
-0.52595956954993506

>  <r_i_glide_ligand_efficiency_ln>  (1) 
-1.8111001151159023

>  <r_i_glide_ligand_efficiency_sa>  (1) 
-1.2041468205420609

>  <r_i_glide_lipo>  (1) 
-1.7685612137908122

>  <r_i_glide_metal>  (1) 
-0

>  <r_i_glide_rewards>  (1) 
-3.2207988793347511

>  <r_lp_Energy>  (1) 
14.797289999999998

>  <r_lp_tautomer_probability>  (1) 
1

>  <s_epik_cmdline>  (1) 
J2VwaWtfcHl0aG9uJywgJy1waHQnLCAnMS4wJywgJy1waCcsICc3LjQnLCAnLXRuJywgJzgnLCAnLW1hJywgJzUwMCcsICctaW1hZScsICc8aW5maWxlLm1hZT4nLCAnLW9tYWUnLCAnPG91dGZpbGUubWFlPic=

>  <s_epik_input>  (1) 
TzFbQ0gyXVtDSDJdYyhjMTIpW2NIXWMoW04rXShbTy1dKT1PKVtjSF1bY0hdMg==

>  <s_glide_docking_method>  (1) 
confgen

>  <s_i_glide_gridfile>  (1) 
gpcr_drd2_6luq_protein_autoprepared_prepared

>  <s_lp_Force_Field>  (1) 
S-OPLS

>  <s_lp_Variant>  (1) 
Pocket2Mol_80_num_sample_100-1

>  <s_m_source_file>  (1) 
generated__ligand_Pocket2Mol_2026-05-06_prepared.sdf

>  <GenAI_Model>  (1) 
Pocket2Mol

>  <Protein>  (1) 
generic_title2

$$$$
Pocket2Mol_69_num_sample_100
     RDKit          3D

  0  0  0  0  0  0  0  0  0  0999 V3000
M  V30 BEGIN CTAB
M  V30 COUNTS 18 19 0 0 1
M  V30 BEGIN ATOM
M  V30 1 C 9.721993 6.912054 -7.280737 0
M  V30 2 O 10.253989 6.366039 -6.052793 0
M  V30 3 C 11.033757 7.119202 -5.185152 0
M  V30 4 C 11.435189 8.426724 -5.532676 0
M  V30 5 C 12.231414 9.177313 -4.643630 0
M  V30 6 C 11.434926 6.569303 -3.953599 0
M  V30 7 C 12.234798 7.319108 -3.069547 0
M  V30 8 C 11.042958 8.969159 -6.805051 0
M  V30 9 F 12.623413 6.783182 -1.891535 0
M  V30 10 C 10.257451 8.282106 -7.628301 0
M  V30 11 C 12.629309 8.624135 -3.412405 0
M  V30 12 H 8.635409 6.965462 -7.204082 0
M  V30 13 H 9.953223 6.224942 -8.094772 0
M  V30 14 H 12.543042 10.170057 -4.910699 0
M  V30 15 H 11.131898 5.573075 -3.688606 0
M  V30 16 H 11.415413 9.946784 -7.074753 0
M  V30 17 H 9.970550 8.697291 -8.583764 0
M  V30 18 H 13.241915 9.199479 -2.733393 0
M  V30 END ATOM
M  V30 BEGIN BOND
M  V30 1 1 2 1
M  V30 2 1 3 2
M  V30 3 2 4 3
M  V30 4 1 5 4
M  V30 5 1 6 3
M  V30 6 2 7 6
M  V30 7 1 8 4
M  V30 8 1 9 7
M  V30 9 1 10 1
M  V30 10 2 10 8
M  V30 11 2 11 5
M  V30 12 1 11 7
M  V30 13 1 12 1
M  V30 14 1 13 1
M  V30 15 1 14 5
M  V30 16 1 15 6
M  V30 17 1 16 8
M  V30 18 1 17 10
M  V30 19 1 18 11
M  V30 END BOND
M  V30 END CTAB
M  END
>  <i_epik_Tot_Q>  (1) 
0

>  <i_epik_Tot_abs_Q>  (1) 
0

>  <i_i_glide_confnum>  (1) 
1

>  <i_i_glide_lignum>  (1) 
76

>  <i_i_glide_posenum>  (1) 
5

>  <i_i_glide_rotatable_bonds>  (1) 
0

>  <i_lp_mmshare_version>  (1) 
72125

>  <i_m_source_file_index>  (1) 
70

>  <i_f3d_flags>  (1) 
0

>  <num_sample>  (1) 
100

>  <b_lp_Chiralities_Consistent>  (1) 
1

>  <r_epik_Charging_Adjusted_Penalty>  (1) 
0

>  <r_epik_Ionization_Penalty>  (1) 
0

>  <r_epik_Ionization_Penalty_Charging>  (1) 
0

>  <r_epik_Ionization_Penalty_Neutral>  (1) 
0

>  <r_epik_State_Penalty>  (1) 
-0

>  <r_glide_ring_energy>  (1) 
0

>  <r_i_docking_score>  (1) 
-6.3099281125595859

>  <r_i_glide_ecoul>  (1) 
-0.53972151360279641

>  <r_i_glide_eff_state_penalty>  (1) 
-0

>  <r_i_glide_einternal>  (1) 
0

>  <r_i_glide_emodel>  (1) 
-28.387327863017724

>  <r_i_glide_emodel_strain>  (1) 
0

>  <r_i_glide_energy>  (1) 
-20.181097795131642

>  <r_i_glide_erotb>  (1) 
0

>  <r_i_glide_esite>  (1) 
0

>  <r_i_glide_evdw>  (1) 
-19.641376281528846

>  <r_i_glide_gscore>  (1) 
-6.3099281125595859

>  <r_i_glide_gscore_strain>  (1) 
0

>  <r_i_glide_hbond>  (1) 
0

>  <r_i_glide_ligand_efficiency>  (1) 
-0.57362982841450783

>  <r_i_glide_ligand_efficiency_ln>  (1) 
-1.8570107687171244

>  <r_i_glide_ligand_efficiency_sa>  (1) 
-1.2757413177505581

>  <r_i_glide_lipo>  (1) 
-1.9604404451872972

>  <r_i_glide_metal>  (1) 
-0

>  <r_i_glide_rewards>  (1) 
-3.286460626255427

>  <r_lp_Energy>  (1) 
13.322941

>  <r_lp_tautomer_probability>  (1) 
1

>  <s_epik_cmdline>  (1) 
J2VwaWtfcHl0aG9uJywgJy1waHQnLCAnMS4wJywgJy1waCcsICc3LjQnLCAnLXRuJywgJzgnLCAnLW1hJywgJzUwMCcsICctaW1hZScsICc8aW5maWxlLm1hZT4nLCAnLW9tYWUnLCAnPG91dGZpbGUubWFlPic=

>  <s_epik_input>  (1) 
TzFbQ0gyXVtDSF09W0NIXWMoYzEyKVtjSF1bY0hdYyhGKVtjSF0y

>  <s_glide_docking_method>  (1) 
confgen

>  <s_i_glide_gridfile>  (1) 
gpcr_drd2_6luq_protein_autoprepared_prepared

>  <s_lp_Force_Field>  (1) 
S-OPLS

>  <s_lp_Variant>  (1) 
Pocket2Mol_69_num_sample_100-1

>  <s_m_source_file>  (1) 
generated__ligand_Pocket2Mol_2026-05-06_prepared.sdf

>  <GenAI_Model>  (1) 
Pocket2Mol

>  <Protein>  (1) 
generic_title2

$$$$
Pocket2Mol_74_num_sample_100
     RDKit          3D

  0  0  0  0  0  0  0  0  0  0999 V3000
M  V30 BEGIN CTAB
M  V30 COUNTS 20 21 0 0 1
M  V30 BEGIN ATOM
M  V30 1 C 9.746746 7.926656 -6.805011 0
M  V30 2 O 10.781306 8.840709 -6.902314 0
M  V30 3 C 10.547734 6.680211 -6.915262 0
M  V30 4 O 10.859461 6.332630 -5.607910 0
M  V30 5 C 11.454868 9.405399 -5.907703 0
M  V30 6 C 11.434822 7.085465 -4.600241 0
M  V30 7 C 11.749015 6.409280 -3.407377 0
M  V30 8 O 11.834842 10.569297 -5.964121 0
M  V30 9 C 11.729122 8.507145 -4.692956 0
M  V30 10 C 12.336866 9.135670 -3.580710 0
M  V30 11 C 12.634830 8.424159 -2.413920 0
M  V30 12 C 12.340967 7.067780 -2.329265 0
M  V30 13 H 9.084394 8.045801 -7.663181 0
M  V30 14 H 9.157255 8.007860 -5.891665 0
M  V30 15 H 11.434909 6.744341 -7.549815 0
M  V30 16 H 9.926505 5.881843 -7.321179 0
M  V30 17 H 11.531927 5.369307 -3.325260 0
M  V30 18 H 12.576496 10.169301 -3.628381 0
M  V30 19 H 13.097871 8.929539 -1.578321 0
M  V30 20 H 12.576687 6.519350 -1.433237 0
M  V30 END ATOM
M  V30 BEGIN BOND
M  V30 1 1 2 1
M  V30 2 1 3 1
M  V30 3 1 4 3
M  V30 4 1 5 2
M  V30 5 1 6 4
M  V30 6 2 7 6
M  V30 7 2 8 5
M  V30 8 1 9 5
M  V30 9 1 9 6
M  V30 10 2 10 9
M  V30 11 1 11 10
M  V30 12 1 12 7
M  V30 13 2 12 11
M  V30 14 1 13 1
M  V30 15 1 14 1
M  V30 16 1 15 3
M  V30 17 1 16 3
M  V30 18 1 17 7
M  V30 19 1 18 10
M  V30 20 1 19 11
M  V30 21 1 20 12
M  V30 END BOND
M  V30 END CTAB
M  END
>  <i_epik_Tot_Q>  (1) 
0

>  <i_epik_Tot_abs_Q>  (1) 
0

>  <i_i_glide_confnum>  (1) 
1

>  <i_i_glide_lignum>  (1) 
81

>  <i_i_glide_posenum>  (1) 
15

>  <i_i_glide_rotatable_bonds>  (1) 
0

>  <i_lp_mmshare_version>  (1) 
72125

>  <i_m_source_file_index>  (1) 
75

>  <i_f3d_flags>  (1) 
0

>  <num_sample>  (1) 
100

>  <b_lp_Chiralities_Consistent>  (1) 
1

>  <r_epik_Charging_Adjusted_Penalty>  (1) 
0

>  <r_epik_Ionization_Penalty>  (1) 
6.5779134034160639e-16

>  <r_epik_Ionization_Penalty_Charging>  (1) 
0

>  <r_epik_Ionization_Penalty_Neutral>  (1) 
6.5779134034160639e-16

>  <r_epik_State_Penalty>  (1) 
-0

>  <r_glide_ring_energy>  (1) 
0

>  <r_i_docking_score>  (1) 
-6.3096717869462795

>  <r_i_glide_ecoul>  (1) 
-1.2895697018306851

>  <r_i_glide_eff_state_penalty>  (1) 
-0

>  <r_i_glide_einternal>  (1) 
0

>  <r_i_glide_emodel>  (1) 
-33.507665832172592

>  <r_i_glide_emodel_strain>  (1) 
0.11640565827662641

>  <r_i_glide_energy>  (1) 
-24.193071480281937

>  <r_i_glide_erotb>  (1) 
0

>  <r_i_glide_esite>  (1) 
0

>  <r_i_glide_evdw>  (1) 
-22.90350177845125

>  <r_i_glide_gscore>  (1) 
-6.3096717869462795

>  <r_i_glide_gscore_strain>  (1) 
0

>  <r_i_glide_hbond>  (1) 
0

>  <r_i_glide_ligand_efficiency>  (1) 
-0.52580598224552333

>  <r_i_glide_ligand_efficiency_ln>  (1) 
-1.8105712493992112

>  <r_i_glide_ligand_efficiency_sa>  (1) 
-1.2037951933923898

>  <r_i_glide_lipo>  (1) 
-1.755976229543228

>  <r_i_glide_metal>  (1) 
-0

>  <r_i_glide_rewards>  (1) 
-3.2150850132058859

>  <r_lp_Energy>  (1) 
17.344456999999998

>  <r_lp_tautomer_probability>  (1) 
1

>  <s_epik_Chemistry_Notes>  (1) 
This compound has an ester and may undergo hydrolysis at high or low pH.

>  <s_epik_cmdline>  (1) 
J2VwaWtfcHl0aG9uJywgJy1waHQnLCAnMS4wJywgJy1waCcsICc3LjQnLCAnLXRuJywgJzgnLCAnLW1hJywgJzUwMCcsICctaW1hZScsICc8aW5maWxlLm1hZT4nLCAnLW9tYWUnLCAnPG91dGZpbGUubWFlPic=

>  <s_epik_input>  (1) 
TzFbQ0gyXVtDSDJdT0MoPU8pYyhjMTIpW2NIXVtjSF1bY0hdW2NIXTI=

>  <s_glide_docking_method>  (1) 
confgen

>  <s_i_glide_gridfile>  (1) 
gpcr_drd2_6luq_protein_autoprepared_prepared

>  <s_lp_Force_Field>  (1) 
S-OPLS

>  <s_lp_Variant>  (1) 
Pocket2Mol_74_num_sample_100-1

>  <s_m_source_file>  (1) 
generated__ligand_Pocket2Mol_2026-05-06_prepared.sdf

>  <GenAI_Model>  (1) 
Pocket2Mol

>  <Protein>  (1) 
generic_title2

$$$$
Pocket2Mol_49_num_sample_100
     RDKit          3D

  0  0  0  0  0  0  0  0  0  0999 V3000
M  V30 BEGIN CTAB
M  V30 COUNTS 20 21 0 0 1
M  V30 BEGIN ATOM
M  V30 1 C 12.298461 6.737505 -2.378845 0
M  V30 2 O 11.434877 6.416465 -3.461292 0
M  V30 3 C 11.434847 7.270357 -4.541663 0
M  V30 4 C 11.834839 8.623736 -4.395659 0
M  V30 5 C 11.833445 9.479198 -5.516138 0
M  V30 6 C 11.026095 6.794878 -5.801964 0
M  V30 7 C 11.026632 7.652599 -6.916294 0
M  V30 8 C 12.275012 9.152867 -3.041173 0
M  V30 9 C 11.433236 8.991437 -6.774682 0
M  V30 10 C 12.059026 8.164717 -1.893709 0
M  V30 11 H 12.127003 6.026790 -1.569666 0
M  V30 12 H 13.334971 6.613841 -2.691757 0
M  V30 13 H 12.140885 10.508917 -5.411569 0
M  V30 14 H 10.715154 5.769403 -5.914374 0
M  V30 15 H 10.714176 7.282431 -7.881648 0
M  V30 16 H 13.340122 9.374050 -3.117863 0
M  V30 17 H 11.769565 10.094703 -2.823609 0
M  V30 18 H 11.435224 9.646532 -7.632339 0
M  V30 19 H 11.035176 8.229666 -1.527875 0
M  V30 20 H 12.711733 8.418118 -1.058386 0
M  V30 END ATOM
M  V30 BEGIN BOND
M  V30 1 1 2 1
M  V30 2 1 3 2
M  V30 3 1 4 3
M  V30 4 2 5 4
M  V30 5 2 6 3
M  V30 6 1 7 6
M  V30 7 1 8 4
M  V30 8 1 9 5
M  V30 9 2 9 7
M  V30 10 1 10 1
M  V30 11 1 10 8
M  V30 12 1 11 1
M  V30 13 1 12 1
M  V30 14 1 13 5
M  V30 15 1 14 6
M  V30 16 1 15 7
M  V30 17 1 16 8
M  V30 18 1 17 8
M  V30 19 1 18 9
M  V30 20 1 19 10
M  V30 21 1 20 10
M  V30 END BOND
M  V30 END CTAB
M  END
>  <i_epik_Tot_Q>  (1) 
0

>  <i_epik_Tot_abs_Q>  (1) 
0

>  <i_i_glide_confnum>  (1) 
1

>  <i_i_glide_lignum>  (1) 
56

>  <i_i_glide_posenum>  (1) 
330

>  <i_i_glide_rotatable_bonds>  (1) 
0

>  <i_lp_mmshare_version>  (1) 
72125

>  <i_m_source_file_index>  (1) 
50

>  <i_f3d_flags>  (1) 
0

>  <num_sample>  (1) 
100

>  <b_lp_Chiralities_Consistent>  (1) 
1

>  <r_epik_Charging_Adjusted_Penalty>  (1) 
0

>  <r_epik_Ionization_Penalty>  (1) 
0

>  <r_epik_Ionization_Penalty_Charging>  (1) 
0

>  <r_epik_Ionization_Penalty_Neutral>  (1) 
0

>  <r_epik_State_Penalty>  (1) 
-0

>  <r_glide_ring_energy>  (1) 
0

>  <r_i_docking_score>  (1) 
-6.292055042246397

>  <r_i_glide_ecoul>  (1) 
-0.06592851558666199

>  <r_i_glide_eff_state_penalty>  (1) 
-0

>  <r_i_glide_einternal>  (1) 
0

>  <r_i_glide_emodel>  (1) 
-29.844125533344215

>  <r_i_glide_emodel_strain>  (1) 
0

>  <r_i_glide_energy>  (1) 
-21.87323293038769

>  <r_i_glide_erotb>  (1) 
0

>  <r_i_glide_esite>  (1) 
0

>  <r_i_glide_evdw>  (1) 
-21.807304414801028

>  <r_i_glide_gscore>  (1) 
-6.292055042246397

>  <r_i_glide_gscore_strain>  (1) 
0

>  <r_i_glide_hbond>  (1) 
0

>  <r_i_glide_ligand_efficiency>  (1) 
-0.62920550422463972

>  <r_i_glide_ligand_efficiency_ln>  (1) 
-1.9051908929141832

>  <r_i_glide_ligand_efficiency_sa>  (1) 
-1.3555821654605669

>  <r_i_glide_lipo>  (1) 
-2.4831034143243684

>  <r_i_glide_metal>  (1) 
-0

>  <r_i_glide_rewards>  (1) 
-2.7086971298439773

>  <r_lp_Energy>  (1) 
14.978437

>  <r_lp_tautomer_probability>  (1) 
1

>  <s_epik_cmdline>  (1) 
J2VwaWtfcHl0aG9uJywgJy1waHQnLCAnMS4wJywgJy1waCcsICc3LjQnLCAnLXRuJywgJzgnLCAnLW1hJywgJzUwMCcsICctaW1hZScsICc8aW5maWxlLm1hZT4nLCAnLW9tYWUnLCAnPG91dGZpbGUubWFlPic=

>  <s_epik_input>  (1) 
TzFbQ0gyXVtDSDJdW0NIMl1jKGMxMilbY0hdW2NIXVtjSF1bY0hdMg==

>  <s_glide_docking_method>  (1) 
confgen

>  <s_i_glide_gridfile>  (1) 
gpcr_drd2_6luq_protein_autoprepared_prepared

>  <s_lp_Force_Field>  (1) 
S-OPLS

>  <s_lp_Variant>  (1) 
Pocket2Mol_49_num_sample_100-1

>  <s_m_source_file>  (1) 
generated__ligand_Pocket2Mol_2026-05-06_prepared.sdf

>  <GenAI_Model>  (1) 
Pocket2Mol

>  <Protein>  (1) 
generic_title2

$$$$
Pocket2Mol_81_num_sample_100
     RDKit          3D

  0  0  0  0  0  0  0  0  0  0999 V3000
M  V30 BEGIN CTAB
M  V30 COUNTS 20 21 0 0 1
M  V30 BEGIN ATOM
M  V30 1 C 5.867538 6.338415 -16.704456 0
M  V30 2 O 7.001108 5.632779 -16.209935 0
M  V30 3 C 7.193920 5.677627 -14.844997 0
M  V30 4 C 5.761806 7.700782 -16.022811 0
M  V30 5 O 5.604884 7.497617 -14.630474 0
M  V30 6 C 6.491187 6.618772 -14.048891 0
M  V30 7 C 6.699102 6.655374 -12.651864 0
M  V30 8 O 6.023116 7.569503 -11.891667 0
M  V30 9 C 8.098097 4.783925 -14.238766 0
M  V30 10 C 7.606629 5.749332 -12.047512 0
M  V30 11 O 7.814564 5.769318 -10.691802 0
M  V30 12 C 8.302234 4.817812 -12.844492 0
M  V30 13 H 4.956351 5.769161 -16.528099 0
M  V30 14 H 5.968222 6.459336 -17.783227 0
M  V30 15 H 4.894514 8.244571 -16.396101 0
M  V30 16 H 6.634829 8.320978 -16.215994 0
M  V30 17 H 6.320041 7.672362 -10.983104 0
M  V30 18 H 8.634834 4.068546 -14.843842 0
M  V30 19 H 7.434632 6.499986 -10.201969 0
M  V30 20 H 8.995136 4.127435 -12.385111 0
M  V30 END ATOM
M  V30 BEGIN BOND
M  V30 1 1 2 1
M  V30 2 1 3 2
M  V30 3 1 4 1
M  V30 4 1 5 4
M  V30 5 2 6 3
M  V30 6 1 6 5
M  V30 7 1 7 6
M  V30 8 1 8 7
M  V30 9 1 9 3
M  V30 10 2 10 7
M  V30 11 1 11 10
M  V30 12 2 12 9
M  V30 13 1 12 10
M  V30 14 1 13 1
M  V30 15 1 14 1
M  V30 16 1 15 4
M  V30 17 1 16 4
M  V30 18 1 17 8
M  V30 19 1 18 9
M  V30 20 1 19 11
M  V30 21 1 20 12
M  V30 END BOND
M  V30 END CTAB
M  END
>  <i_epik_Tot_Q>  (1) 
0

>  <i_epik_Tot_abs_Q>  (1) 
0

>  <i_i_glide_confnum>  (1) 
2

>  <i_i_glide_lignum>  (1) 
88

>  <i_i_glide_posenum>  (1) 
31

>  <i_i_glide_rotatable_bonds>  (1) 
2

>  <i_lp_mmshare_version>  (1) 
72125

>  <i_m_source_file_index>  (1) 
82

>  <i_f3d_flags>  (1) 
0

>  <num_sample>  (1) 
100

>  <b_lp_Chiralities_Consistent>  (1) 
1

>  <r_epik_Charging_Adjusted_Penalty>  (1) 
0.0036846811785224438

>  <r_epik_Ionization_Penalty>  (1) 
0.0053862680964110767

>  <r_epik_Ionization_Penalty_Charging>  (1) 
0

>  <r_epik_Ionization_Penalty_Neutral>  (1) 
0.0053862680964110767

>  <r_epik_State_Penalty>  (1) 
0.0036846811785224438

>  <r_glide_ring_energy>  (1) 
0.0030853077569594689

>  <r_i_docking_score>  (1) 
-6.2876288066807096

>  <r_i_glide_ecoul>  (1) 
-9.763447489898752

>  <r_i_glide_eff_state_penalty>  (1) 
0.0036846811785224438

>  <r_i_glide_einternal>  (1) 
0.072462617802384832

>  <r_i_glide_emodel>  (1) 
-35.382807565522015

>  <r_i_glide_emodel_strain>  (1) 
0

>  <r_i_glide_energy>  (1) 
-24.211930630753077

>  <r_i_glide_erotb>  (1) 
0

>  <r_i_glide_esite>  (1) 
0

>  <r_i_glide_evdw>  (1) 
-14.448483140854325

>  <r_i_glide_gscore>  (1) 
-6.2913134878592318

>  <r_i_glide_gscore_strain>  (1) 
0

>  <r_i_glide_hbond>  (1) 
-0.30399999999999999

>  <r_i_glide_ligand_efficiency>  (1) 
-0.52396906722339243

>  <r_i_glide_ligand_efficiency_ln>  (1) 
-1.8042459780273337

>  <r_i_glide_ligand_efficiency_sa>  (1) 
-1.1995897078160032

>  <r_i_glide_lipo>  (1) 
-1.0694902770942418

>  <r_i_glide_metal>  (1) 
-0

>  <r_i_glide_rewards>  (1) 
-2.7308819302374614

>  <r_lp_Energy>  (1) 
18.638769

>  <r_lp_tautomer_probability>  (1) 
0.99999998461580031

>  <s_epik_cmdline>  (1) 
J2VwaWtfcHl0aG9uJywgJy1waHQnLCAnMS4wJywgJy1waCcsICc3LjQnLCAnLXRuJywgJzgnLCAnLW1hJywgJzUwMCcsICctaW1hZScsICc8aW5maWxlLm1hZT4nLCAnLW9tYWUnLCAnPG91dGZpbGUubWFlPic=

>  <s_epik_input>  (1) 
TzFbQ0gyXVtDSDJdT2MoYzEyKWMoW09IXSljKFtPSF0pW2NIXVtjSF0y

>  <s_glide_docking_method>  (1) 
confgen

>  <s_i_glide_gridfile>  (1) 
gpcr_drd2_6luq_protein_autoprepared_prepared

>  <s_lp_Force_Field>  (1) 
S-OPLS

>  <s_lp_Variant>  (1) 
Pocket2Mol_81_num_sample_100-1

>  <s_m_source_file>  (1) 
generated__ligand_Pocket2Mol_2026-05-06_prepared.sdf

>  <GenAI_Model>  (1) 
Pocket2Mol

>  <Protein>  (1) 
generic_title2

$$$$
Pocket2Mol_93_num_sample_100
     RDKit          3D

  0  0  0  0  0  0  0  0  0  0999 V3000
M  V30 BEGIN CTAB
M  V30 COUNTS 23 25 0 0 1
M  V30 BEGIN ATOM
M  V30 1 C 12.367062 8.109687 -1.891685 0
M  V30 2 O 12.210565 6.838522 -2.630851 0
M  V30 3 C 11.834839 7.286313 -3.850979 0
M  V30 4 C 11.866305 8.622303 -4.018755 0
M  V30 5 C 11.493980 9.225053 -5.230901 0
M  V30 6 C 11.070033 8.405161 -6.295902 0
M  V30 7 O 10.696643 8.969301 -7.486235 0
M  V30 8 C 12.308137 9.369301 -2.857455 0
M  V30 9 C 11.034503 6.991715 -6.121896 0
M  V30 10 O 10.621066 6.169296 -7.145106 0
M  V30 11 C 11.422800 6.435319 -4.883931 0
M  V30 12 C 9.834840 8.161041 -8.268839 0
M  V30 13 C 10.472318 6.780966 -8.420629 0
M  V30 14 H 11.536794 8.169419 -1.186707 0
M  V30 15 H 13.279174 8.125337 -1.296293 0
M  V30 16 H 11.526504 10.298798 -5.344531 0
M  V30 17 H 13.296834 9.769334 -3.072824 0
M  V30 18 H 11.612712 10.146393 -2.538812 0
M  V30 19 H 11.398264 5.369338 -4.733141 0
M  V30 20 H 8.859064 8.087775 -7.787254 0
M  V30 21 H 9.683746 8.628077 -9.242219 0
M  V30 22 H 9.848880 6.142128 -9.046616 0
M  V30 23 H 11.442880 6.862952 -8.908528 0
M  V30 END ATOM
M  V30 BEGIN BOND
M  V30 1 1 2 1
M  V30 2 1 3 2
M  V30 3 1 4 3
M  V30 4 2 5 4
M  V30 5 1 6 5
M  V30 6 1 7 6
M  V30 7 1 8 1
M  V30 8 1 8 4
M  V30 9 2 9 6
M  V30 10 1 10 9
M  V30 11 2 11 3
M  V30 12 1 11 9
M  V30 13 1 12 7
M  V30 14 1 13 10
M  V30 15 1 13 12
M  V30 16 1 14 1
M  V30 17 1 15 1
M  V30 18 1 16 5
M  V30 19 1 17 8
M  V30 20 1 18 8
M  V30 21 1 19 11
M  V30 22 1 20 12
M  V30 23 1 21 12
M  V30 24 1 22 13
M  V30 25 1 23 13
M  V30 END BOND
M  V30 END CTAB
M  END
>  <i_epik_Tot_Q>  (1) 
0

>  <i_epik_Tot_abs_Q>  (1) 
0

>  <i_i_glide_confnum>  (1) 
1

>  <i_i_glide_lignum>  (1) 
102

>  <i_i_glide_posenum>  (1) 
139

>  <i_i_glide_rotatable_bonds>  (1) 
0

>  <i_lp_mmshare_version>  (1) 
72125

>  <i_m_source_file_index>  (1) 
94

>  <i_f3d_flags>  (1) 
0

>  <num_sample>  (1) 
100

>  <b_lp_Chiralities_Consistent>  (1) 
1

>  <r_epik_Charging_Adjusted_Penalty>  (1) 
0

>  <r_epik_Ionization_Penalty>  (1) 
0

>  <r_epik_Ionization_Penalty_Charging>  (1) 
0

>  <r_epik_Ionization_Penalty_Neutral>  (1) 
0

>  <r_epik_State_Penalty>  (1) 
-0

>  <r_glide_ring_energy>  (1) 
0

>  <r_i_docking_score>  (1) 
-6.2775839320471389

>  <r_i_glide_ecoul>  (1) 
-1.0167561849713587

>  <r_i_glide_eff_state_penalty>  (1) 
-0

>  <r_i_glide_einternal>  (1) 
0

>  <r_i_glide_emodel>  (1) 
-34.286831091263551

>  <r_i_glide_emodel_strain>  (1) 
0.018370522471954587

>  <r_i_glide_energy>  (1) 
-23.878155679704012

>  <r_i_glide_erotb>  (1) 
0

>  <r_i_glide_esite>  (1) 
0

>  <r_i_glide_evdw>  (1) 
-22.861399494732652

>  <r_i_glide_gscore>  (1) 
-6.2775839320471389

>  <r_i_glide_gscore_strain>  (1) 
0

>  <r_i_glide_hbond>  (1) 
0

>  <r_i_glide_ligand_efficiency>  (1) 
-0.48289107169593376

>  <r_i_glide_ligand_efficiency_ln>  (1) 
-1.760918123256922

>  <r_i_glide_ligand_efficiency_sa>  (1) 
-1.1354385272693006

>  <r_i_glide_lipo>  (1) 
-2.146217876049207

>  <r_i_glide_metal>  (1) 
-0

>  <r_i_glide_rewards>  (1) 
-2.8357826535155946

>  <r_lp_Energy>  (1) 
18.084001999999998

>  <r_lp_tautomer_probability>  (1) 
1

>  <s_epik_cmdline>  (1) 
J2VwaWtfcHl0aG9uJywgJy1waHQnLCAnMS4wJywgJy1waCcsICc3LjQnLCAnLXRuJywgJzgnLCAnLW1hJywgJzUwMCcsICctaW1hZScsICc8aW5maWxlLm1hZT4nLCAnLW9tYWUnLCAnPG91dGZpbGUubWFlPic=

>  <s_epik_input>  (1) 
TzFbQ0gyXVtDSDJdYyhjMTIpW2NIXWMzYyhbY0hdMilPW0NIMl1bQ0gyXU8z

>  <s_glide_docking_method>  (1) 
confgen

>  <s_i_glide_gridfile>  (1) 
gpcr_drd2_6luq_protein_autoprepared_prepared

>  <s_lp_Force_Field>  (1) 
S-OPLS

>  <s_lp_Variant>  (1) 
Pocket2Mol_93_num_sample_100-1

>  <s_m_source_file>  (1) 
generated__ligand_Pocket2Mol_2026-05-06_prepared.sdf

>  <GenAI_Model>  (1) 
Pocket2Mol

>  <Protein>  (1) 
generic_title2

$$$$
Pocket2Mol_73_num_sample_100
     RDKit          3D

  0  0  0  0  0  0  0  0  0  0999 V3000
M  V30 BEGIN CTAB
M  V30 COUNTS 20 21 0 0 1
M  V30 BEGIN ATOM
M  V30 1 C 12.193243 9.331481 -4.463268 0
M  V30 2 O 11.492597 8.045206 -4.289348 0
M  V30 3 C 11.101197 7.762177 -5.544940 0
M  V30 4 C 11.402997 8.691520 -6.474362 0
M  V30 5 C 11.059540 8.515051 -7.827659 0
M  V30 6 C 12.106575 9.869962 -5.959115 0
M  V30 7 C 10.433172 6.577960 -5.885383 0
M  V30 8 C 10.386080 7.323250 -8.209700 0
M  V30 9 N 10.028279 7.090659 -9.541301 0
M  V30 10 C 10.077605 6.352863 -7.229186 0
M  V30 11 O 9.436037 8.199949 -10.157715 0
M  V30 12 H 13.238453 9.181258 -4.188928 0
M  V30 13 H 11.798882 10.063994 -3.761276 0
M  V30 14 H 11.314259 9.268624 -8.561160 0
M  V30 15 H 13.093874 10.013538 -6.388578 0
M  V30 16 H 11.509190 10.774376 -6.045479 0
M  V30 17 H 10.195807 5.845009 -5.127781 0
M  V30 18 H 9.471984 6.263429 -9.714531 0
M  V30 19 H 9.566025 5.444880 -7.508254 0
M  V30 20 H 8.504266 8.169886 -9.891653 0
M  V30 END ATOM
M  V30 BEGIN BOND
M  V30 1 1 2 1
M  V30 2 1 3 2
M  V30 3 2 4 3
M  V30 4 1 5 4
M  V30 5 1 6 1
M  V30 6 1 6 4
M  V30 7 1 7 3
M  V30 8 2 8 5
M  V30 9 1 9 8
M  V30 10 2 10 7
M  V30 11 1 10 8
M  V30 12 1 11 9
M  V30 13 1 12 1
M  V30 14 1 13 1
M  V30 15 1 14 5
M  V30 16 1 15 6
M  V30 17 1 16 6
M  V30 18 1 17 7
M  V30 19 1 18 9
M  V30 20 1 19 10
M  V30 21 1 20 11
M  V30 END BOND
M  V30 END CTAB
M  END
>  <i_epik_Tot_Q>  (1) 
0

>  <i_epik_Tot_abs_Q>  (1) 
0

>  <i_i_glide_confnum>  (1) 
1

>  <i_i_glide_lignum>  (1) 
80

>  <i_i_glide_posenum>  (1) 
275

>  <i_i_glide_rotatable_bonds>  (1) 
2

>  <i_lp_mmshare_version>  (1) 
72125

>  <i_m_source_file_index>  (1) 
74

>  <i_f3d_flags>  (1) 
0

>  <num_sample>  (1) 
100

>  <b_lp_Chiralities_Consistent>  (1) 
1

>  <r_epik_Charging_Adjusted_Penalty>  (1) 
0

>  <r_epik_Ionization_Penalty>  (1) 
0.00049506315318442675

>  <r_epik_Ionization_Penalty_Charging>  (1) 
0

>  <r_epik_Ionization_Penalty_Neutral>  (1) 
0.00049506315318442675

>  <r_epik_State_Penalty>  (1) 
-0

>  <r_glide_ring_energy>  (1) 
0

>  <r_i_docking_score>  (1) 
-6.2774129500277862

>  <r_i_glide_ecoul>  (1) 
-7.0718293977735787

>  <r_i_glide_eff_state_penalty>  (1) 
-0

>  <r_i_glide_einternal>  (1) 
1.0977984081892931

>  <r_i_glide_emodel>  (1) 
-36.260767108268816

>  <r_i_glide_emodel_strain>  (1) 
0.10113420770067449

>  <r_i_glide_energy>  (1) 
-25.870072570837067

>  <r_i_glide_erotb>  (1) 
0

>  <r_i_glide_esite>  (1) 
-0.079967990486696117

>  <r_i_glide_evdw>  (1) 
-18.79824317306349

>  <r_i_glide_gscore>  (1) 
-6.2774129500277862

>  <r_i_glide_gscore_strain>  (1) 
0

>  <r_i_glide_hbond>  (1) 
-0.16

>  <r_i_glide_ligand_efficiency>  (1) 
-0.57067390454798061

>  <r_i_glide_ligand_efficiency_ln>  (1) 
-1.8474415619225251

>  <r_i_glide_ligand_efficiency_sa>  (1) 
-1.2691674019221628

>  <r_i_glide_lipo>  (1) 
-1.6624868439415381

>  <r_i_glide_metal>  (1) 
-0

>  <r_i_glide_rewards>  (1) 
-2.37427154728034

>  <r_lp_Energy>  (1) 
14.863064999999999

>  <r_lp_tautomer_probability>  (1) 
1

>  <s_epik_Chemistry_Notes>  (1) 
This compound has a N-S or N-O group and may undergo hydrolysis at high or low pH.

>  <s_epik_cmdline>  (1) 
J2VwaWtfcHl0aG9uJywgJy1waHQnLCAnMS4wJywgJy1waCcsICc3LjQnLCAnLXRuJywgJzgnLCAnLW1hJywgJzUwMCcsICctaW1hZScsICc8aW5maWxlLm1hZT4nLCAnLW9tYWUnLCAnPG91dGZpbGUubWFlPic=

>  <s_epik_input>  (1) 
TzFbQ0gyXVtDSDJdYyhjMTIpW2NIXWMoW05IXVtPSF0pW2NIXVtjSF0y

>  <s_glide_docking_method>  (1) 
confgen

>  <s_i_glide_gridfile>  (1) 
gpcr_drd2_6luq_protein_autoprepared_prepared

>  <s_lp_Force_Field>  (1) 
S-OPLS

>  <s_lp_Variant>  (1) 
Pocket2Mol_73_num_sample_100-1

>  <s_m_source_file>  (1) 
generated__ligand_Pocket2Mol_2026-05-06_prepared.sdf

>  <GenAI_Model>  (1) 
Pocket2Mol

>  <Protein>  (1) 
generic_title2

$$$$
Pocket2Mol_96_num_sample_100
     RDKit          3D

  0  0  0  0  0  0  0  0  0  0999 V3000
M  V30 BEGIN CTAB
M  V30 COUNTS 20 21 0 0 1
M  V30 BEGIN ATOM
M  V30 1 C 9.580546 8.203269 -7.087855 0
M  V30 2 O 10.880990 8.754395 -7.257055 0
M  V30 3 C 9.688382 6.750902 -6.652802 0
M  V30 4 O 10.987296 6.504597 -6.166915 0
M  V30 5 C 11.471313 9.397969 -6.228173 0
M  V30 6 C 11.356745 7.148011 -5.014557 0
M  V30 7 C 11.507576 6.402948 -3.838682 0
M  V30 8 O 11.834809 10.571019 -6.291663 0
M  V30 9 C 11.628746 8.541644 -4.998235 0
M  V30 10 C 11.943636 7.006902 -2.651808 0
M  V30 11 C 12.234452 8.372820 -2.633394 0
M  V30 12 F 12.648192 8.958847 -1.489976 0
M  V30 13 C 12.079996 9.137598 -3.800804 0
M  V30 14 H 9.013956 8.774184 -6.351553 0
M  V30 15 H 9.034128 8.273492 -8.028065 0
M  V30 16 H 8.940423 6.494801 -5.900575 0
M  V30 17 H 9.536906 6.090396 -7.507272 0
M  V30 18 H 11.295998 5.369375 -3.851740 0
M  V30 19 H 12.057814 6.416510 -1.754578 0
M  V30 20 H 12.303814 10.169508 -3.777362 0
M  V30 END ATOM
M  V30 BEGIN BOND
M  V30 1 1 2 1
M  V30 2 1 3 1
M  V30 3 1 4 3
M  V30 4 1 5 2
M  V30 5 1 6 4
M  V30 6 1 7 6
M  V30 7 2 8 5
M  V30 8 1 9 5
M  V30 9 2 9 6
M  V30 10 2 10 7
M  V30 11 1 11 10
M  V30 12 1 12 11
M  V30 13 1 13 9
M  V30 14 2 13 11
M  V30 15 1 14 1
M  V30 16 1 15 1
M  V30 17 1 16 3
M  V30 18 1 17 3
M  V30 19 1 18 7
M  V30 20 1 19 10
M  V30 21 1 20 13
M  V30 END BOND
M  V30 END CTAB
M  END
>  <i_epik_Tot_Q>  (1) 
0

>  <i_epik_Tot_abs_Q>  (1) 
0

>  <i_i_glide_confnum>  (1) 
4

>  <i_i_glide_lignum>  (1) 
105

>  <i_i_glide_posenum>  (1) 
65

>  <i_i_glide_rotatable_bonds>  (1) 
0

>  <i_lp_mmshare_version>  (1) 
72125

>  <i_m_source_file_index>  (1) 
97

>  <i_f3d_flags>  (1) 
0

>  <num_sample>  (1) 
100

>  <b_lp_Chiralities_Consistent>  (1) 
1

>  <r_epik_Charging_Adjusted_Penalty>  (1) 
0

>  <r_epik_Ionization_Penalty>  (1) 
0

>  <r_epik_Ionization_Penalty_Charging>  (1) 
0

>  <r_epik_Ionization_Penalty_Neutral>  (1) 
0

>  <r_epik_State_Penalty>  (1) 
-0

>  <r_glide_ring_energy>  (1) 
0.44334624566830805

>  <r_i_docking_score>  (1) 
-6.2601816949453113

>  <r_i_glide_ecoul>  (1) 
-1.0058288096897186

>  <r_i_glide_eff_state_penalty>  (1) 
-0

>  <r_i_glide_einternal>  (1) 
0

>  <r_i_glide_emodel>  (1) 
-32.821881014036229

>  <r_i_glide_emodel_strain>  (1) 
0

>  <r_i_glide_energy>  (1) 
-23.176352758647305

>  <r_i_glide_erotb>  (1) 
0

>  <r_i_glide_esite>  (1) 
0

>  <r_i_glide_evdw>  (1) 
-22.170523948957587

>  <r_i_glide_gscore>  (1) 
-6.2601816949453113

>  <r_i_glide_gscore_strain>  (1) 
0

>  <r_i_glide_hbond>  (1) 
0

>  <r_i_glide_ligand_efficiency>  (1) 
-0.48155243807271625

>  <r_i_glide_ligand_efficiency_ln>  (1) 
-1.7560366409813311

>  <r_i_glide_ligand_efficiency_sa>  (1) 
-1.1322909515968798

>  <r_i_glide_lipo>  (1) 
-1.5806324906534392

>  <r_i_glide_metal>  (1) 
-0

>  <r_i_glide_rewards>  (1) 
-3.4201486853905356

>  <r_lp_Energy>  (1) 
17.467690999999999

>  <r_lp_tautomer_probability>  (1) 
1

>  <s_epik_Chemistry_Notes>  (1) 
This compound has an ester and may undergo hydrolysis at high or low pH.

>  <s_epik_cmdline>  (1) 
J2VwaWtfcHl0aG9uJywgJy1waHQnLCAnMS4wJywgJy1waCcsICc3LjQnLCAnLXRuJywgJzgnLCAnLW1hJywgJzUwMCcsICctaW1hZScsICc8aW5maWxlLm1hZT4nLCAnLW9tYWUnLCAnPG91dGZpbGUubWFlPic=

>  <s_epik_input>  (1) 
TzFbQ0gyXVtDSDJdT0MoPU8pYyhjMTIpW2NIXWMoRilbY0hdW2NIXTI=

>  <s_glide_docking_method>  (1) 
confgen

>  <s_i_glide_gridfile>  (1) 
gpcr_drd2_6luq_protein_autoprepared_prepared

>  <s_lp_Force_Field>  (1) 
S-OPLS

>  <s_lp_Variant>  (1) 
Pocket2Mol_96_num_sample_100-1

>  <s_m_source_file>  (1) 
generated__ligand_Pocket2Mol_2026-05-06_prepared.sdf

>  <GenAI_Model>  (1) 
Pocket2Mol

>  <Protein>  (1) 
generic_title2

$$$$
Pocket2Mol_84_num_sample_100
     RDKit          3D

  0  0  0  0  0  0  0  0  0  0999 V3000
M  V30 BEGIN CTAB
M  V30 COUNTS 23 24 0 0 1
M  V30 BEGIN ATOM
M  V30 1 C 11.974474 9.677814 -4.505984 0
M  V30 2 O 11.434848 8.324833 -4.291616 0
M  V30 3 C 11.101697 7.954390 -5.543579 0
M  V30 4 C 11.434850 8.822526 -6.517758 0
M  V30 5 C 11.148823 8.558071 -7.869512 0
M  V30 6 C 12.113643 10.037908 -6.052856 0
M  V30 7 C 10.487361 7.342203 -8.208049 0
M  V30 8 N 10.182623 7.027500 -9.553816 0
M  V30 9 C 10.457077 6.745904 -5.831799 0
M  V30 10 C 10.145550 6.432891 -7.170718 0
M  V30 11 O 9.034880 6.226997 -9.695882 0
M  V30 12 C 10.046264 8.169301 -10.446288 0
M  V30 13 H 12.932806 9.769323 -3.993896 0
M  V30 14 H 11.282746 10.374904 -4.031489 0
M  V30 15 H 11.430785 9.267744 -8.632223 0
M  V30 16 H 13.161064 10.054958 -6.351178 0
M  V30 17 H 11.600288 10.958436 -6.329706 0
M  V30 18 H 10.201252 6.061982 -5.036904 0
M  V30 19 H 9.649984 5.502087 -7.403274 0
M  V30 20 H 8.289680 6.799110 -9.491668 0
M  V30 21 H 11.028798 8.569269 -10.691610 0
M  V30 22 H 9.575504 7.875930 -11.385665 0
M  V30 23 H 9.435729 8.955270 -9.996755 0
M  V30 END ATOM
M  V30 BEGIN BOND
M  V30 1 1 2 1
M  V30 2 1 3 2
M  V30 3 2 4 3
M  V30 4 1 5 4
M  V30 5 1 6 1
M  V30 6 1 6 4
M  V30 7 2 7 5
M  V30 8 1 8 7
M  V30 9 1 9 3
M  V30 10 1 10 7
M  V30 11 2 10 9
M  V30 12 1 11 8
M  V30 13 1 12 8
M  V30 14 1 13 1
M  V30 15 1 14 1
M  V30 16 1 15 5
M  V30 17 1 16 6
M  V30 18 1 17 6
M  V30 19 1 18 9
M  V30 20 1 19 10
M  V30 21 1 20 11
M  V30 22 1 21 12
M  V30 23 1 22 12
M  V30 24 1 23 12
M  V30 END BOND
M  V30 END CTAB
M  END
>  <i_epik_Tot_Q>  (1) 
0

>  <i_epik_Tot_abs_Q>  (1) 
0

>  <i_i_glide_confnum>  (1) 
1

>  <i_i_glide_lignum>  (1) 
91

>  <i_i_glide_posenum>  (1) 
163

>  <i_i_glide_rotatable_bonds>  (1) 
2

>  <i_lp_mmshare_version>  (1) 
72125

>  <i_m_source_file_index>  (1) 
85

>  <i_f3d_flags>  (1) 
0

>  <num_sample>  (1) 
100

>  <b_lp_Chiralities_Consistent>  (1) 
1

>  <r_epik_Charging_Adjusted_Penalty>  (1) 
0

>  <r_epik_Ionization_Penalty>  (1) 
0.00097486698469066322

>  <r_epik_Ionization_Penalty_Charging>  (1) 
0

>  <r_epik_Ionization_Penalty_Neutral>  (1) 
0.00097486698469066322

>  <r_epik_State_Penalty>  (1) 
-0

>  <r_glide_ring_energy>  (1) 
0

>  <r_i_docking_score>  (1) 
-6.2500890068470634

>  <r_i_glide_ecoul>  (1) 
-4.121573972796905

>  <r_i_glide_eff_state_penalty>  (1) 
-0

>  <r_i_glide_einternal>  (1) 
0.31032116620777828

>  <r_i_glide_emodel>  (1) 
-34.814466584253495

>  <r_i_glide_emodel_strain>  (1) 
0

>  <r_i_glide_energy>  (1) 
-24.4379703631997

>  <r_i_glide_erotb>  (1) 
0

>  <r_i_glide_esite>  (1) 
-0.062931951028570618

>  <r_i_glide_evdw>  (1) 
-20.316396390402794

>  <r_i_glide_gscore>  (1) 
-6.2500890068470634

>  <r_i_glide_gscore_strain>  (1) 
0

>  <r_i_glide_hbond>  (1) 
-0.16

>  <r_i_glide_ligand_efficiency>  (1) 
-0.52084075057058865

>  <r_i_glide_ligand_efficiency_ln>  (1) 
-1.7934738674355248

>  <r_i_glide_ligand_efficiency_sa>  (1) 
-1.1924276505606406

>  <r_i_glide_lipo>  (1) 
-1.7817541317782413

>  <r_i_glide_metal>  (1) 
-0

>  <r_i_glide_rewards>  (1) 
-2.6113470086005748

>  <r_lp_Energy>  (1) 
21.474352

>  <r_lp_tautomer_probability>  (1) 
1

>  <s_epik_Chemistry_Notes>  (1) 
This compound has a N-S or N-O group and may undergo hydrolysis at high or low pH.

>  <s_epik_cmdline>  (1) 
J2VwaWtfcHl0aG9uJywgJy1waHQnLCAnMS4wJywgJy1waCcsICc3LjQnLCAnLXRuJywgJzgnLCAnLW1hJywgJzUwMCcsICctaW1hZScsICc8aW5maWxlLm1hZT4nLCAnLW9tYWUnLCAnPG91dGZpbGUubWFlPic=

>  <s_epik_input>  (1) 
TzFbQ0gyXVtDSDJdYyhjMTIpW2NIXWMoTihbT0hdKVtDSDNdKVtjSF1bY0hdMg==

>  <s_glide_docking_method>  (1) 
confgen

>  <s_i_glide_gridfile>  (1) 
gpcr_drd2_6luq_protein_autoprepared_prepared

>  <s_lp_Force_Field>  (1) 
S-OPLS

>  <s_lp_Variant>  (1) 
Pocket2Mol_84_num_sample_100-1

>  <s_m_source_file>  (1) 
generated__ligand_Pocket2Mol_2026-05-06_prepared.sdf

>  <GenAI_Model>  (1) 
Pocket2Mol

>  <Protein>  (1) 
generic_title2

$$$$
Pocket2Mol_98_num_sample_100
     RDKit          3D

  0  0  0  0  0  0  0  0  0  0999 V3000
M  V30 BEGIN CTAB
M  V30 COUNTS 24 25 0 0 1
M  V30 BEGIN ATOM
M  V30 1 C 12.043550 9.384778 -5.527284 0
M  V30 2 O 12.952737 9.369269 -6.691657 0
M  V30 3 C 12.181714 8.783995 -7.640121 0
M  V30 4 C 10.946777 8.423183 -7.247115 0
M  V30 5 C 10.027253 7.844556 -8.136222 0
M  V30 6 C 10.648020 8.688391 -5.846021 0
M  V30 7 C 10.410560 7.625454 -9.478278 0
M  V30 8 N 9.434894 7.053834 -10.380584 0
M  V30 9 C 12.618862 8.569350 -8.956037 0
M  V30 10 C 11.735063 7.986859 -9.891803 0
M  V30 11 C 9.644727 6.706977 -11.676204 0
M  V30 12 O 10.719405 6.815828 -12.257425 0
M  V30 13 C 8.439413 6.143426 -12.417233 0
M  V30 14 H 12.528651 8.897239 -4.680561 0
M  V30 15 H 11.873721 10.421268 -5.235369 0
M  V30 16 H 9.035407 7.576187 -7.799712 0
M  V30 17 H 9.819006 9.369297 -5.737681 0
M  V30 18 H 10.481619 7.768232 -5.285488 0
M  V30 19 H 13.614278 8.860081 -9.253298 0
M  V30 20 H 12.070802 7.840578 -10.896219 0
M  V30 21 H 7.548479 6.741124 -12.219965 0
M  V30 22 H 8.617878 6.139602 -13.492557 0
M  V30 23 H 8.249943 5.118742 -12.097415 0
M  V30 24 H 8.498663 6.916733 -10.003612 0
M  V30 END ATOM
M  V30 BEGIN BOND
M  V30 1 1 2 1
M  V30 2 1 3 2
M  V30 3 2 4 3
M  V30 4 1 5 4
M  V30 5 1 6 1
M  V30 6 1 6 4
M  V30 7 2 7 5
M  V30 8 1 8 7
M  V30 9 1 9 3
M  V30 10 1 10 7
M  V30 11 2 10 9
M  V30 12 1 11 8
M  V30 13 2 12 11
M  V30 14 1 13 11
M  V30 15 1 14 1
M  V30 16 1 15 1
M  V30 17 1 16 5
M  V30 18 1 17 6
M  V30 19 1 18 6
M  V30 20 1 19 9
M  V30 21 1 20 10
M  V30 22 1 21 13
M  V30 23 1 22 13
M  V30 24 1 23 13
M  V30 25 1 24 8
M  V30 END BOND
M  V30 END CTAB
M  END
>  <i_epik_Tot_Q>  (1) 
0

>  <i_epik_Tot_abs_Q>  (1) 
0

>  <i_i_glide_confnum>  (1) 
1

>  <i_i_glide_lignum>  (1) 
107

>  <i_i_glide_posenum>  (1) 
157

>  <i_i_glide_rotatable_bonds>  (1) 
2

>  <i_lp_mmshare_version>  (1) 
72125

>  <i_m_source_file_index>  (1) 
99

>  <i_f3d_flags>  (1) 
0

>  <num_sample>  (1) 
100

>  <b_lp_Chiralities_Consistent>  (1) 
1

>  <r_epik_Charging_Adjusted_Penalty>  (1) 
0

>  <r_epik_Ionization_Penalty>  (1) 
1.4103773659367358e-07

>  <r_epik_Ionization_Penalty_Charging>  (1) 
0

>  <r_epik_Ionization_Penalty_Neutral>  (1) 
1.4103773659367358e-07

>  <r_epik_State_Penalty>  (1) 
-0

>  <r_glide_ring_energy>  (1) 
0

>  <r_i_docking_score>  (1) 
-6.2396638319960456

>  <r_i_glide_ecoul>  (1) 
-3.898294279317299

>  <r_i_glide_eff_state_penalty>  (1) 
-0

>  <r_i_glide_einternal>  (1) 
0.01012528105148025

>  <r_i_glide_emodel>  (1) 
-35.526387627935982

>  <r_i_glide_emodel_strain>  (1) 
0

>  <r_i_glide_energy>  (1) 
-25.567809389118228

>  <r_i_glide_erotb>  (1) 
0

>  <r_i_glide_esite>  (1) 
-0.11364448489837252

>  <r_i_glide_evdw>  (1) 
-21.66951510980093

>  <r_i_glide_gscore>  (1) 
-6.2396638319960456

>  <r_i_glide_gscore_strain>  (1) 
0

>  <r_i_glide_hbond>  (1) 
-0.13765969054078922

>  <r_i_glide_ligand_efficiency>  (1) 
-0.47997414092277274

>  <r_i_glide_ligand_efficiency_ln>  (1) 
-1.750281197946405

>  <r_i_glide_ligand_efficiency_sa>  (1) 
-1.1285798467606869

>  <r_i_glide_lipo>  (1) 
-1.5025972846853008

>  <r_i_glide_metal>  (1) 
-0

>  <r_i_glide_rewards>  (1) 
-2.817542474483941

>  <r_lp_Energy>  (1) 
14.229996

>  <r_lp_tautomer_probability>  (1) 
1

>  <s_epik_cmdline>  (1) 
J2VwaWtfcHl0aG9uJywgJy1waHQnLCAnMS4wJywgJy1waCcsICc3LjQnLCAnLXRuJywgJzgnLCAnLW1hJywgJzUwMCcsICctaW1hZScsICc8aW5maWxlLm1hZT4nLCAnLW9tYWUnLCAnPG91dGZpbGUubWFlPic=

>  <s_epik_input>  (1) 
TzFbQ0gyXVtDSDJdYyhjMTIpW2NIXWMoW2NIXVtjSF0yKS9OPUMoXFtPSF0pW0NIM10=

>  <s_glide_docking_method>  (1) 
confgen

>  <s_i_glide_gridfile>  (1) 
gpcr_drd2_6luq_protein_autoprepared_prepared

>  <s_lp_Force_Field>  (1) 
S-OPLS

>  <s_lp_Variant>  (1) 
Pocket2Mol_98_num_sample_100-1

>  <s_m_source_file>  (1) 
generated__ligand_Pocket2Mol_2026-05-06_prepared.sdf

>  <GenAI_Model>  (1) 
Pocket2Mol

>  <Protein>  (1) 
generic_title2

$$$$
Pocket2Mol_41_num_sample_100
     RDKit          3D

  0  0  0  0  0  0  0  0  0  0999 V3000
M  V30 BEGIN CTAB
M  V30 COUNTS 15 16 0 0 1
M  V30 BEGIN ATOM
M  V30 1 C 12.505505 8.569302 -1.891431 0
M  V30 2 O 12.234847 9.519366 -2.959222 0
M  V30 3 C 11.850701 8.781796 -4.034934 0
M  V30 4 C 11.834839 7.416904 -3.891660 0
M  V30 5 C 11.430738 6.577826 -4.941555 0
M  V30 6 C 11.466715 9.379278 -5.250107 0
M  V30 7 C 11.054498 8.559088 -6.325399 0
M  V30 8 S 12.286100 6.793949 -2.366028 0
M  V30 9 C 11.034838 7.152133 -6.169502 0
M  V30 10 H 13.526946 8.714972 -1.543693 0
M  V30 11 H 11.848150 8.794309 -1.051730 0
M  V30 12 H 11.414324 5.509010 -4.809166 0
M  V30 13 H 11.480342 10.453789 -5.357526 0
M  V30 14 H 10.752261 9.003245 -7.262547 0
M  V30 15 H 10.717743 6.520788 -6.986454 0
M  V30 END ATOM
M  V30 BEGIN BOND
M  V30 1 1 2 1
M  V30 2 1 3 2
M  V30 3 1 4 3
M  V30 4 2 5 4
M  V30 5 2 6 3
M  V30 6 1 7 6
M  V30 7 1 8 1
M  V30 8 1 8 4
M  V30 9 1 9 5
M  V30 10 2 9 7
M  V30 11 1 10 1
M  V30 12 1 11 1
M  V30 13 1 12 5
M  V30 14 1 13 6
M  V30 15 1 14 7
M  V30 16 1 15 9
M  V30 END BOND
M  V30 END CTAB
M  END
>  <i_epik_Tot_Q>  (1) 
0

>  <i_epik_Tot_abs_Q>  (1) 
0

>  <i_i_glide_confnum>  (1) 
1

>  <i_i_glide_lignum>  (1) 
46

>  <i_i_glide_posenum>  (1) 
76

>  <i_i_glide_rotatable_bonds>  (1) 
0

>  <i_lp_mmshare_version>  (1) 
72125

>  <i_m_source_file_index>  (1) 
42

>  <i_f3d_flags>  (1) 
0

>  <num_sample>  (1) 
100

>  <b_lp_Chiralities_Consistent>  (1) 
1

>  <r_epik_Charging_Adjusted_Penalty>  (1) 
0

>  <r_epik_Ionization_Penalty>  (1) 
0

>  <r_epik_Ionization_Penalty_Charging>  (1) 
0

>  <r_epik_Ionization_Penalty_Neutral>  (1) 
0

>  <r_epik_State_Penalty>  (1) 
-0

>  <r_glide_ring_energy>  (1) 
0

>  <r_i_docking_score>  (1) 
-6.2247530813576892

>  <r_i_glide_ecoul>  (1) 
-0.69681312511909144

>  <r_i_glide_eff_state_penalty>  (1) 
-0

>  <r_i_glide_einternal>  (1) 
0

>  <r_i_glide_emodel>  (1) 
-30.350322958559996

>  <r_i_glide_emodel_strain>  (1) 
0

>  <r_i_glide_energy>  (1) 
-22.171875978236606

>  <r_i_glide_erotb>  (1) 
0

>  <r_i_glide_esite>  (1) 
0

>  <r_i_glide_evdw>  (1) 
-21.475062853117514

>  <r_i_glide_gscore>  (1) 
-6.2247530813576892

>  <r_i_glide_gscore_strain>  (1) 
0

>  <r_i_glide_hbond>  (1) 
0

>  <r_i_glide_ligand_efficiency>  (1) 
-0.69163923126196547

>  <r_i_glide_ligand_efficiency_ln>  (1) 
-1.9469239431857073

>  <r_i_glide_ligand_efficiency_sa>  (1) 
-1.4386675763360695

>  <r_i_glide_lipo>  (1) 
-2.254811303267283

>  <r_i_glide_metal>  (1) 
-0

>  <r_i_glide_rewards>  (1) 
-2.7916666666666665

>  <r_lp_Energy>  (1) 
5.8399909999999995

>  <r_lp_tautomer_probability>  (1) 
1

>  <s_epik_Chemistry_Notes>  (1) 
This compound contains an acetal/aminal-like group ( X-CH(R)-Y where X, Y are N, S, or O) that may be acid/base labile, releasing an aldehyde.

>  <s_epik_cmdline>  (1) 
J2VwaWtfcHl0aG9uJywgJy1waHQnLCAnMS4wJywgJy1waCcsICc3LjQnLCAnLXRuJywgJzgnLCAnLW1hJywgJzUwMCcsICctaW1hZScsICc8aW5maWxlLm1hZT4nLCAnLW9tYWUnLCAnPG91dGZpbGUubWFlPic=

>  <s_epik_input>  (1) 
TzFbQ0gyXVNjKGMxMilbY0hdW2NIXVtjSF1bY0hdMg==

>  <s_glide_docking_method>  (1) 
confgen

>  <s_i_glide_gridfile>  (1) 
gpcr_drd2_6luq_protein_autoprepared_prepared

>  <s_lp_Force_Field>  (1) 
S-OPLS

>  <s_lp_Variant>  (1) 
Pocket2Mol_41_num_sample_100-1

>  <s_m_source_file>  (1) 
generated__ligand_Pocket2Mol_2026-05-06_prepared.sdf

>  <GenAI_Model>  (1) 
Pocket2Mol

>  <Protein>  (1) 
generic_title2

$$$$
Pocket2Mol_92_num_sample_100
     RDKit          3D

  0  0  0  0  0  0  0  0  0  0999 V3000
M  V30 BEGIN CTAB
M  V30 COUNTS 26 27 0 0 1
M  V30 BEGIN ATOM
M  V30 1 C 9.834853 7.607688 -9.308806 0
M  V30 2 O 11.194062 7.728278 -9.699421 0
M  V30 3 C 9.652622 6.650892 -8.118298 0
M  V30 4 O 10.634858 6.760260 -7.097645 0
M  V30 5 C 11.858319 8.793269 -9.038559 0
M  V30 6 C 11.010181 8.066926 -6.672094 0 CFG=1
M  V30 7 C 11.434838 8.057373 -5.200260 0
M  V30 8 C 12.197082 8.474488 -7.574754 0
M  V30 9 C 11.823328 9.253511 -4.557702 0
M  V30 10 N 11.434839 6.848595 -4.582511 0
M  V30 11 C 11.834839 6.809581 -3.289937 0
M  V30 12 C 12.240542 7.949174 -2.569202 0
M  V30 13 C 12.234238 9.193920 -3.215674 0
M  V30 14 H 9.273153 7.215486 -10.156936 0
M  V30 15 H 9.392768 8.581978 -9.094017 0
M  V30 16 H 9.681633 5.620678 -8.473678 0
M  V30 17 H 8.663736 6.795277 -7.681047 0
M  V30 18 H 12.790666 8.969301 -9.575331 0
M  V30 19 H 11.295714 9.723188 -9.120698 0
M  V30 20 H 12.684483 9.355419 -7.158070 0
M  V30 21 H 12.945191 7.683904 -7.552552 0
M  V30 22 H 11.809988 10.194265 -5.087863 0
M  V30 23 H 11.830031 5.838591 -2.816788 0
M  V30 24 H 12.550459 7.866664 -1.538432 0
M  V30 25 H 12.538638 10.086930 -2.691667 0
M  V30 26 H 10.176644 8.765525 -6.765501 0
M  V30 END ATOM
M  V30 BEGIN BOND
M  V30 1 1 2 1
M  V30 2 1 3 1
M  V30 3 1 4 3
M  V30 4 1 5 2
M  V30 5 1 6 4
M  V30 6 1 7 6
M  V30 7 1 8 5
M  V30 8 1 8 6
M  V30 9 1 9 7
M  V30 10 2 10 7
M  V30 11 1 11 10
M  V30 12 2 12 11
M  V30 13 2 13 9
M  V30 14 1 13 12
M  V30 15 1 14 1
M  V30 16 1 15 1
M  V30 17 1 16 3
M  V30 18 1 17 3
M  V30 19 1 18 5
M  V30 20 1 19 5
M  V30 21 1 20 8
M  V30 22 1 21 8
M  V30 23 1 22 9
M  V30 24 1 23 11
M  V30 25 1 24 12
M  V30 26 1 25 13
M  V30 27 1 6 26 CFG=1
M  V30 END BOND
M  V30 END CTAB
M  END
>  <i_epik_Tot_Q>  (1) 
0

>  <i_epik_Tot_abs_Q>  (1) 
0

>  <i_i_glide_confnum>  (1) 
8

>  <i_i_glide_lignum>  (1) 
100

>  <i_i_glide_posenum>  (1) 
248

>  <i_i_glide_rotatable_bonds>  (1) 
1

>  <i_lp_mmshare_version>  (1) 
72125

>  <i_m_source_file_index>  (1) 
93

>  <i_f3d_flags>  (1) 
0

>  <num_sample>  (1) 
100

>  <b_lp_Chiralities_Consistent>  (1) 
1

>  <r_epik_Charging_Adjusted_Penalty>  (1) 
0.0037896276157117258

>  <r_epik_Ionization_Penalty>  (1) 
0.0037896276174286705

>  <r_epik_Ionization_Penalty_Charging>  (1) 
0

>  <r_epik_Ionization_Penalty_Neutral>  (1) 
0.0037896276174286705

>  <r_epik_State_Penalty>  (1) 
0.0037896276157117258

>  <r_glide_ring_energy>  (1) 
0.28676033120482208

>  <r_i_docking_score>  (1) 
-6.2208298146060592

>  <r_i_glide_ecoul>  (1) 
-0.72734506193142878

>  <r_i_glide_eff_state_penalty>  (1) 
0.0037896276157117258

>  <r_i_glide_einternal>  (1) 
1.7351619824576265

>  <r_i_glide_emodel>  (1) 
-37.651917699806276

>  <r_i_glide_emodel_strain>  (1) 
0.43753832713785101

>  <r_i_glide_energy>  (1) 
-28.107065804536191

>  <r_i_glide_erotb>  (1) 
0.4895878840251785

>  <r_i_glide_esite>  (1) 
0

>  <r_i_glide_evdw>  (1) 
-27.379720742604761

>  <r_i_glide_gscore>  (1) 
-6.2246194422217709

>  <r_i_glide_gscore_strain>  (1) 
0

>  <r_i_glide_hbond>  (1) 
0

>  <r_i_glide_ligand_efficiency>  (1) 
-0.47852537035431225

>  <r_i_glide_ligand_efficiency_ln>  (1) 
-1.7449980885663052

>  <r_i_glide_ligand_efficiency_sa>  (1) 
-1.1251733022685169

>  <r_i_glide_lipo>  (1) 
-2.279267845618969

>  <r_i_glide_metal>  (1) 
-0

>  <r_i_glide_rewards>  (1) 
-2.9568516842080284

>  <r_lp_Energy>  (1) 
20.645538999999999

>  <s_epik_cmdline>  (1) 
J2VwaWtfcHl0aG9uJywgJy1waHQnLCAnMS4wJywgJy1waCcsICc3LjQnLCAnLXRuJywgJzgnLCAnLW1hJywgJzUwMCcsICctaW1hZScsICc8aW5maWxlLm1hZT4nLCAnLW9tYWUnLCAnPG91dGZpbGUubWFlPic=

>  <s_epik_input>  (1) 
W0NIMl0xW0NIMl1PW0NIMl1bQ0gyXU8vQzE9QzJcW0NIXT1bQ0hdW0NIXT1bQ0hdW05IXTI=

>  <s_glide_docking_method>  (1) 
confgen

>  <s_i_glide_gridfile>  (1) 
gpcr_drd2_6luq_protein_autoprepared_prepared

>  <s_lp_Force_Field>  (1) 
S-OPLS

>  <s_lp_Variant>  (1) 
Pocket2Mol_92_num_sample_100-1

>  <s_m_source_file>  (1) 
generated__ligand_Pocket2Mol_2026-05-06_prepared.sdf

>  <GenAI_Model>  (1) 
Pocket2Mol

>  <Protein>  (1) 
generic_title2

$$$$
Pocket2Mol_63_num_sample_100
     RDKit          3D

  0  0  0  0  0  0  0  0  0  0999 V3000
M  V30 BEGIN CTAB
M  V30 COUNTS 19 20 0 0 1
M  V30 BEGIN ATOM
M  V30 1 C 9.839131 7.765961 -7.532362 0
M  V30 2 O 10.387186 8.954849 -7.091667 0
M  V30 3 C 11.003168 8.697654 -5.893306 0
M  V30 4 C 10.856769 7.340163 -5.577886 0
M  V30 5 C 11.434842 6.898284 -4.360081 0
M  V30 6 C 12.125731 7.816666 -3.506279 0
M  V30 7 O 12.676061 7.401766 -2.314157 0
M  V30 8 C 11.674587 9.615529 -5.084610 0
M  V30 9 C 10.109288 6.744286 -6.642376 0
M  V30 10 C 12.240161 9.173582 -3.879016 0
M  V30 11 C 12.567716 6.040425 -1.938295 0
M  V30 12 H 9.300306 7.809384 -8.470618 0
M  V30 13 H 11.338660 5.861293 -4.081488 0
M  V30 14 H 11.753273 10.650554 -5.382013 0
M  V30 15 H 9.811489 5.711237 -6.719507 0
M  V30 16 H 12.759525 9.866889 -3.235309 0
M  V30 17 H 13.128202 5.860944 -1.025813 0
M  V30 18 H 11.527582 5.769137 -1.756266 0
M  V30 19 H 12.993703 5.380796 -2.691666 0
M  V30 END ATOM
M  V30 BEGIN BOND
M  V30 1 1 2 1
M  V30 2 1 3 2
M  V30 3 1 4 3
M  V30 4 2 5 4
M  V30 5 1 6 5
M  V30 6 1 7 6
M  V30 7 2 8 3
M  V30 8 2 9 1
M  V30 9 1 9 4
M  V30 10 2 10 6
M  V30 11 1 10 8
M  V30 12 1 11 7
M  V30 13 1 12 1
M  V30 14 1 13 5
M  V30 15 1 14 8
M  V30 16 1 15 9
M  V30 17 1 16 10
M  V30 18 1 17 11
M  V30 19 1 18 11
M  V30 20 1 19 11
M  V30 END BOND
M  V30 END CTAB
M  END
>  <i_epik_Tot_Q>  (1) 
0

>  <i_epik_Tot_abs_Q>  (1) 
0

>  <i_i_glide_confnum>  (1) 
1

>  <i_i_glide_lignum>  (1) 
70

>  <i_i_glide_posenum>  (1) 
37

>  <i_i_glide_rotatable_bonds>  (1) 
1

>  <i_lp_mmshare_version>  (1) 
72125

>  <i_m_source_file_index>  (1) 
64

>  <i_f3d_flags>  (1) 
0

>  <num_sample>  (1) 
100

>  <b_lp_Chiralities_Consistent>  (1) 
1

>  <r_epik_Charging_Adjusted_Penalty>  (1) 
0

>  <r_epik_Ionization_Penalty>  (1) 
0

>  <r_epik_Ionization_Penalty_Charging>  (1) 
0

>  <r_epik_Ionization_Penalty_Neutral>  (1) 
0

>  <r_epik_State_Penalty>  (1) 
-0

>  <r_glide_ring_energy>  (1) 
0

>  <r_i_docking_score>  (1) 
-6.2043362331854564

>  <r_i_glide_ecoul>  (1) 
-2.0930600518529907

>  <r_i_glide_eff_state_penalty>  (1) 
-0

>  <r_i_glide_einternal>  (1) 
0.012995795845782476

>  <r_i_glide_emodel>  (1) 
-33.269763236207083

>  <r_i_glide_emodel_strain>  (1) 
0

>  <r_i_glide_energy>  (1) 
-23.963663236101777

>  <r_i_glide_erotb>  (1) 
0

>  <r_i_glide_esite>  (1) 
0

>  <r_i_glide_evdw>  (1) 
-21.870603184248786

>  <r_i_glide_gscore>  (1) 
-6.2043362331854564

>  <r_i_glide_gscore_strain>  (1) 
0

>  <r_i_glide_hbond>  (1) 
0

>  <r_i_glide_ligand_efficiency>  (1) 
-0.56403056665322326

>  <r_i_glide_ligand_efficiency_ln>  (1) 
-1.8259350966034373

>  <r_i_glide_ligand_efficiency_sa>  (1) 
-1.254392750709298

>  <r_i_glide_lipo>  (1) 
-2.0017385756370403

>  <r_i_glide_metal>  (1) 
-0

>  <r_i_glide_rewards>  (1) 
-2.7951084905580279

>  <r_lp_Energy>  (1) 
14.639571

>  <r_lp_tautomer_probability>  (1) 
1

>  <s_epik_cmdline>  (1) 
J2VwaWtfcHl0aG9uJywgJy1waHQnLCAnMS4wJywgJy1waCcsICc3LjQnLCAnLXRuJywgJzgnLCAnLW1hJywgJzUwMCcsICctaW1hZScsICc8aW5maWxlLm1hZT4nLCAnLW9tYWUnLCAnPG91dGZpbGUubWFlPic=

>  <s_epik_input>  (1) 
bzFbY0hdW2NIXWMoYzEyKVtjSF1jKE9bQ0gzXSlbY0hdW2NIXTI=

>  <s_glide_docking_method>  (1) 
confgen

>  <s_i_glide_gridfile>  (1) 
gpcr_drd2_6luq_protein_autoprepared_prepared

>  <s_lp_Force_Field>  (1) 
S-OPLS

>  <s_lp_Variant>  (1) 
Pocket2Mol_63_num_sample_100-1

>  <s_m_source_file>  (1) 
generated__ligand_Pocket2Mol_2026-05-06_prepared.sdf

>  <GenAI_Model>  (1) 
Pocket2Mol

>  <Protein>  (1) 
generic_title2

$$$$
Pocket2Mol_69_num_sample_100
     RDKit          3D

  0  0  0  0  0  0  0  0  0  0999 V3000
M  V30 BEGIN CTAB
M  V30 COUNTS 18 19 0 0 1
M  V30 BEGIN ATOM
M  V30 1 C 9.739856 6.351965 -8.205064 0
M  V30 2 O 10.181810 6.169301 -6.841092 0
M  V30 3 C 10.847221 7.165365 -6.139519 0
M  V30 4 C 11.224808 8.368778 -6.781432 0
M  V30 5 C 11.897466 9.372410 -6.053571 0
M  V30 6 C 11.157592 6.969301 -4.779461 0
M  V30 7 C 11.834839 7.971977 -4.056677 0
M  V30 8 C 10.914220 8.547961 -8.182610 0
M  V30 9 F 12.135874 7.779053 -2.750195 0
M  V30 10 C 10.234838 7.625453 -8.853783 0
M  V30 11 C 12.199821 9.174041 -4.691665 0
M  V30 12 H 8.649462 6.346250 -8.226248 0
M  V30 13 H 10.076921 5.499659 -8.794719 0
M  V30 14 H 12.183418 10.292700 -6.539436 0
M  V30 15 H 10.875733 6.048336 -4.290016 0
M  V30 16 H 11.250986 9.449388 -8.669507 0
M  V30 17 H 10.005648 7.769302 -9.899401 0
M  V30 18 H 12.717856 9.939764 -4.136201 0
M  V30 END ATOM
M  V30 BEGIN BOND
M  V30 1 1 2 1
M  V30 2 1 3 2
M  V30 3 2 4 3
M  V30 4 1 5 4
M  V30 5 1 6 3
M  V30 6 2 7 6
M  V30 7 1 8 4
M  V30 8 1 9 7
M  V30 9 1 10 1
M  V30 10 2 10 8
M  V30 11 2 11 5
M  V30 12 1 11 7
M  V30 13 1 12 1
M  V30 14 1 13 1
M  V30 15 1 14 5
M  V30 16 1 15 6
M  V30 17 1 16 8
M  V30 18 1 17 10
M  V30 19 1 18 11
M  V30 END BOND
M  V30 END CTAB
M  END
>  <i_epik_Tot_Q>  (1) 
0

>  <i_epik_Tot_abs_Q>  (1) 
0

>  <i_i_glide_confnum>  (1) 
1

>  <i_i_glide_lignum>  (1) 
76

>  <i_i_glide_posenum>  (1) 
40

>  <i_i_glide_rotatable_bonds>  (1) 
0

>  <i_lp_mmshare_version>  (1) 
72125

>  <i_m_source_file_index>  (1) 
70

>  <i_f3d_flags>  (1) 
0

>  <num_sample>  (1) 
100

>  <b_lp_Chiralities_Consistent>  (1) 
1

>  <r_epik_Charging_Adjusted_Penalty>  (1) 
0

>  <r_epik_Ionization_Penalty>  (1) 
0

>  <r_epik_Ionization_Penalty_Charging>  (1) 
0

>  <r_epik_Ionization_Penalty_Neutral>  (1) 
0

>  <r_epik_State_Penalty>  (1) 
-0

>  <r_glide_ring_energy>  (1) 
0

>  <r_i_docking_score>  (1) 
-6.204148098313361

>  <r_i_glide_ecoul>  (1) 
-0.18357352820387673

>  <r_i_glide_eff_state_penalty>  (1) 
-0

>  <r_i_glide_einternal>  (1) 
0

>  <r_i_glide_emodel>  (1) 
-27.575909968824277

>  <r_i_glide_emodel_strain>  (1) 
0

>  <r_i_glide_energy>  (1) 
-19.507249635173515

>  <r_i_glide_erotb>  (1) 
0

>  <r_i_glide_esite>  (1) 
0

>  <r_i_glide_evdw>  (1) 
-19.323676106969639

>  <r_i_glide_gscore>  (1) 
-6.204148098313361

>  <r_i_glide_gscore_strain>  (1) 
0

>  <r_i_glide_hbond>  (1) 
0

>  <r_i_glide_ligand_efficiency>  (1) 
-0.56401346348303283

>  <r_i_glide_ligand_efficiency_ln>  (1) 
-1.825879728542626

>  <r_i_glide_ligand_efficiency_sa>  (1) 
-1.2543547135993087

>  <r_i_glide_lipo>  (1) 
-1.7009251700905557

>  <r_i_glide_metal>  (1) 
-0

>  <r_i_glide_rewards>  (1) 
-3.5095030936437412

>  <r_lp_Energy>  (1) 
13.322941

>  <r_lp_tautomer_probability>  (1) 
1

>  <s_epik_cmdline>  (1) 
J2VwaWtfcHl0aG9uJywgJy1waHQnLCAnMS4wJywgJy1waCcsICc3LjQnLCAnLXRuJywgJzgnLCAnLW1hJywgJzUwMCcsICctaW1hZScsICc8aW5maWxlLm1hZT4nLCAnLW9tYWUnLCAnPG91dGZpbGUubWFlPic=

>  <s_epik_input>  (1) 
TzFbQ0gyXVtDSF09W0NIXWMoYzEyKVtjSF1bY0hdYyhGKVtjSF0y

>  <s_glide_docking_method>  (1) 
confgen

>  <s_i_glide_gridfile>  (1) 
gpcr_drd2_6luq_protein_autoprepared_prepared

>  <s_lp_Force_Field>  (1) 
S-OPLS

>  <s_lp_Variant>  (1) 
Pocket2Mol_69_num_sample_100-1

>  <s_m_source_file>  (1) 
generated__ligand_Pocket2Mol_2026-05-06_prepared.sdf

>  <GenAI_Model>  (1) 
Pocket2Mol

>  <Protein>  (1) 
generic_title2

$$$$
Pocket2Mol_57_num_sample_100
     RDKit          3D

  0  0  0  0  0  0  0  0  0  0999 V3000
M  V30 BEGIN CTAB
M  V30 COUNTS 18 19 0 0 1
M  V30 BEGIN ATOM
M  V30 1 C 12.120220 6.596190 -2.366783 0
M  V30 2 O 11.434839 6.229965 -3.529671 0
M  V30 3 C 11.434839 7.155759 -4.545746 0
M  V30 4 C 11.834839 8.483202 -4.291667 0
M  V30 5 C 11.835290 9.431193 -5.333470 0
M  V30 6 C 11.028193 6.780577 -5.839703 0
M  V30 7 C 11.029083 7.725813 -6.880909 0
M  V30 8 C 12.258750 8.875185 -2.894050 0
M  V30 9 C 11.434840 9.049007 -6.629354 0
M  V30 10 O 11.835190 7.898317 -1.949526 0
M  V30 11 H 11.821528 5.906312 -1.576809 0
M  V30 12 H 13.191493 6.477512 -2.530226 0
M  V30 13 H 12.141758 10.447936 -5.141121 0
M  V30 14 H 10.716248 5.769301 -6.033919 0
M  V30 15 H 10.717583 7.435514 -7.874110 0
M  V30 16 H 13.343668 8.975047 -2.857693 0
M  V30 17 H 11.830826 9.840890 -2.623830 0
M  V30 18 H 11.436660 9.769302 -7.429641 0
M  V30 END ATOM
M  V30 BEGIN BOND
M  V30 1 1 2 1
M  V30 2 1 3 2
M  V30 3 1 4 3
M  V30 4 2 5 4
M  V30 5 2 6 3
M  V30 6 1 7 6
M  V30 7 1 8 4
M  V30 8 1 9 5
M  V30 9 2 9 7
M  V30 10 1 10 1
M  V30 11 1 10 8
M  V30 12 1 11 1
M  V30 13 1 12 1
M  V30 14 1 13 5
M  V30 15 1 14 6
M  V30 16 1 15 7
M  V30 17 1 16 8
M  V30 18 1 17 8
M  V30 19 1 18 9
M  V30 END BOND
M  V30 END CTAB
M  END
>  <i_epik_Tot_Q>  (1) 
0

>  <i_epik_Tot_abs_Q>  (1) 
0

>  <i_i_glide_confnum>  (1) 
1

>  <i_i_glide_lignum>  (1) 
64

>  <i_i_glide_posenum>  (1) 
69

>  <i_i_glide_rotatable_bonds>  (1) 
0

>  <i_lp_mmshare_version>  (1) 
72125

>  <i_m_source_file_index>  (1) 
58

>  <i_f3d_flags>  (1) 
0

>  <num_sample>  (1) 
100

>  <b_lp_Chiralities_Consistent>  (1) 
1

>  <r_epik_Charging_Adjusted_Penalty>  (1) 
0

>  <r_epik_Ionization_Penalty>  (1) 
5.7885637950061117e-15

>  <r_epik_Ionization_Penalty_Charging>  (1) 
0

>  <r_epik_Ionization_Penalty_Neutral>  (1) 
5.7885637950061117e-15

>  <r_epik_State_Penalty>  (1) 
-0

>  <r_glide_ring_energy>  (1) 
0

>  <r_i_docking_score>  (1) 
-6.201424522410278

>  <r_i_glide_ecoul>  (1) 
-0.21796354032441131

>  <r_i_glide_eff_state_penalty>  (1) 
-0

>  <r_i_glide_einternal>  (1) 
0

>  <r_i_glide_emodel>  (1) 
-29.869302413667366

>  <r_i_glide_emodel_strain>  (1) 
0

>  <r_i_glide_energy>  (1) 
-21.778789913984095

>  <r_i_glide_erotb>  (1) 
0

>  <r_i_glide_esite>  (1) 
0

>  <r_i_glide_evdw>  (1) 
-21.560826373659683

>  <r_i_glide_gscore>  (1) 
-6.201424522410278

>  <r_i_glide_gscore_strain>  (1) 
0

>  <r_i_glide_hbond>  (1) 
0

>  <r_i_glide_ligand_efficiency>  (1) 
-0.62014245224102782

>  <r_i_glide_ligand_efficiency_ln>  (1) 
-1.8777485962634841

>  <r_i_glide_ligand_efficiency_sa>  (1) 
-1.3360564118695111

>  <r_i_glide_lipo>  (1) 
-1.8312385906690534

>  <r_i_glide_metal>  (1) 
-0

>  <r_i_glide_rewards>  (1) 
-3.2594500820095789

>  <r_lp_Energy>  (1) 
18.330197999999999

>  <r_lp_tautomer_probability>  (1) 
1

>  <s_epik_Chemistry_Notes>  (1) 
This compound contains an acetal/aminal-like group ( X-CH(R)-Y where X, Y are N, S, or O) that may be acid/base labile, releasing an aldehyde.

>  <s_epik_cmdline>  (1) 
J2VwaWtfcHl0aG9uJywgJy1waHQnLCAnMS4wJywgJy1waCcsICc3LjQnLCAnLXRuJywgJzgnLCAnLW1hJywgJzUwMCcsICctaW1hZScsICc8aW5maWxlLm1hZT4nLCAnLW9tYWUnLCAnPG91dGZpbGUubWFlPic=

>  <s_epik_input>  (1) 
TzFbQ0gyXU9bQ0gyXWMoYzEyKVtjSF1bY0hdW2NIXVtjSF0y

>  <s_glide_docking_method>  (1) 
confgen

>  <s_i_glide_gridfile>  (1) 
gpcr_drd2_6luq_protein_autoprepared_prepared

>  <s_lp_Force_Field>  (1) 
S-OPLS

>  <s_lp_Variant>  (1) 
Pocket2Mol_57_num_sample_100-1

>  <s_m_source_file>  (1) 
generated__ligand_Pocket2Mol_2026-05-06_prepared.sdf

>  <GenAI_Model>  (1) 
Pocket2Mol

>  <Protein>  (1) 
generic_title2

$$$$
Pocket2Mol_58_num_sample_100
     RDKit          3D

  0  0  0  0  0  0  0  0  0  0999 V3000
M  V30 BEGIN CTAB
M  V30 COUNTS 18 19 0 0 1
M  V30 BEGIN ATOM
M  V30 1 C 12.291474 8.528665 -2.257367 0
M  V30 2 O 12.234527 9.300123 -3.481562 0
M  V30 3 C 11.834613 8.737365 -4.690136 0
M  V30 4 C 11.434998 7.377156 -4.759162 0
M  V30 5 C 11.033316 6.824587 -5.991009 0
M  V30 6 C 11.830539 9.525648 -5.857388 0
M  V30 7 C 11.434275 8.964533 -7.087707 0
M  V30 8 C 11.464389 6.569301 -3.561293 0
M  V30 9 C 11.033686 7.617196 -7.153570 0
M  V30 10 C 11.857953 7.083467 -2.400756 0
M  V30 11 H 11.659194 9.005776 -1.507845 0
M  V30 12 H 13.312198 8.560359 -1.876032 0
M  V30 13 H 10.732456 5.788891 -6.045017 0
M  V30 14 H 12.136232 10.559623 -5.810606 0
M  V30 15 H 11.435738 9.568043 -7.982597 0
M  V30 16 H 11.160255 5.542493 -3.636379 0
M  V30 17 H 10.729731 7.190016 -8.098372 0
M  V30 18 H 11.876457 6.469209 -1.512241 0
M  V30 END ATOM
M  V30 BEGIN BOND
M  V30 1 1 2 1
M  V30 2 1 3 2
M  V30 3 1 4 3
M  V30 4 2 5 4
M  V30 5 2 6 3
M  V30 6 1 7 6
M  V30 7 1 8 4
M  V30 8 1 9 5
M  V30 9 2 9 7
M  V30 10 1 10 1
M  V30 11 2 10 8
M  V30 12 1 11 1
M  V30 13 1 12 1
M  V30 14 1 13 5
M  V30 15 1 14 6
M  V30 16 1 15 7
M  V30 17 1 16 8
M  V30 18 1 17 9
M  V30 19 1 18 10
M  V30 END BOND
M  V30 END CTAB
M  END
>  <i_epik_Tot_Q>  (1) 
0

>  <i_epik_Tot_abs_Q>  (1) 
0

>  <i_i_glide_confnum>  (1) 
1

>  <i_i_glide_lignum>  (1) 
65

>  <i_i_glide_posenum>  (1) 
48

>  <i_i_glide_rotatable_bonds>  (1) 
0

>  <i_lp_mmshare_version>  (1) 
72125

>  <i_m_source_file_index>  (1) 
59

>  <i_f3d_flags>  (1) 
0

>  <num_sample>  (1) 
100

>  <b_lp_Chiralities_Consistent>  (1) 
1

>  <r_epik_Charging_Adjusted_Penalty>  (1) 
0

>  <r_epik_Ionization_Penalty>  (1) 
0

>  <r_epik_Ionization_Penalty_Charging>  (1) 
0

>  <r_epik_Ionization_Penalty_Neutral>  (1) 
0

>  <r_epik_State_Penalty>  (1) 
-0

>  <r_glide_ring_energy>  (1) 
0

>  <r_i_docking_score>  (1) 
-6.1922452507753949

>  <r_i_glide_ecoul>  (1) 
-1.2321995292572423

>  <r_i_glide_eff_state_penalty>  (1) 
-0

>  <r_i_glide_einternal>  (1) 
0

>  <r_i_glide_emodel>  (1) 
-29.194657190359884

>  <r_i_glide_emodel_strain>  (1) 
0

>  <r_i_glide_energy>  (1) 
-21.059335597402512

>  <r_i_glide_erotb>  (1) 
0

>  <r_i_glide_esite>  (1) 
0

>  <r_i_glide_evdw>  (1) 
-19.827136068145268

>  <r_i_glide_gscore>  (1) 
-6.1922452507753949

>  <r_i_glide_gscore_strain>  (1) 
0

>  <r_i_glide_hbond>  (1) 
0

>  <r_i_glide_ligand_efficiency>  (1) 
-0.61922452507753944

>  <r_i_glide_ligand_efficiency_ln>  (1) 
-1.874969176089162

>  <r_i_glide_ligand_efficiency_sa>  (1) 
-1.3340787977455693

>  <r_i_glide_lipo>  (1) 
-2.2056081730235673

>  <r_i_glide_metal>  (1) 
-0

>  <r_i_glide_rewards>  (1) 
-2.8104503449559779

>  <r_lp_Energy>  (1) 
15.262369

>  <r_lp_tautomer_probability>  (1) 
1

>  <s_epik_cmdline>  (1) 
J2VwaWtfcHl0aG9uJywgJy1waHQnLCAnMS4wJywgJy1waCcsICc3LjQnLCAnLXRuJywgJzgnLCAnLW1hJywgJzUwMCcsICctaW1hZScsICc8aW5maWxlLm1hZT4nLCAnLW9tYWUnLCAnPG91dGZpbGUubWFlPic=

>  <s_epik_input>  (1) 
TzFbQ0gyXVtDSF09W0NIXWMoYzEyKVtjSF1bY0hdW2NIXVtjSF0y

>  <s_glide_docking_method>  (1) 
confgen

>  <s_i_glide_gridfile>  (1) 
gpcr_drd2_6luq_protein_autoprepared_prepared

>  <s_lp_Force_Field>  (1) 
S-OPLS

>  <s_lp_Variant>  (1) 
Pocket2Mol_58_num_sample_100-1

>  <s_m_source_file>  (1) 
generated__ligand_Pocket2Mol_2026-05-06_prepared.sdf

>  <GenAI_Model>  (1) 
Pocket2Mol

>  <Protein>  (1) 
generic_title2

$$$$
Pocket2Mol_67_num_sample_100
     RDKit          3D

  0  0  0  0  0  0  0  0  0  0999 V3000
M  V30 BEGIN CTAB
M  V30 COUNTS 21 22 0 0 1
M  V30 BEGIN ATOM
M  V30 1 C 11.110102 8.676468 -7.846889 0
M  V30 2 O 11.263620 9.383426 -6.620906 0
M  V30 3 C 11.434839 8.584145 -5.515829 0
M  V30 4 C 10.033153 7.605914 -7.652146 0
M  V30 5 O 10.506879 6.671381 -6.692727 0
M  V30 6 C 11.062319 7.216058 -5.555399 0
M  V30 7 C 11.271539 6.405575 -4.428970 0
M  V30 8 C 11.990046 9.124986 -4.336114 0
M  V30 9 C 12.186576 8.300223 -3.206082 0
M  V30 10 C 12.754024 8.874543 -1.935074 0
M  V30 11 C 11.834839 6.941530 -3.259646 0
M  V30 12 H 12.059895 8.224801 -8.138016 0
M  V30 13 H 10.833471 9.368465 -8.642625 0
M  V30 14 H 9.835737 7.083708 -8.588611 0
M  V30 15 H 9.091071 8.045477 -7.319301 0
M  V30 16 H 10.994409 5.369303 -4.459755 0
M  V30 17 H 12.264287 10.168597 -4.299412 0
M  V30 18 H 12.282431 9.834707 -1.725016 0
M  V30 19 H 12.539432 8.220797 -1.091667 0
M  V30 20 H 13.834839 8.969302 -2.007058 0
M  V30 21 H 11.984230 6.308720 -2.396455 0
M  V30 END ATOM
M  V30 BEGIN BOND
M  V30 1 1 2 1
M  V30 2 1 3 2
M  V30 3 1 4 1
M  V30 4 1 5 4
M  V30 5 2 6 3
M  V30 6 1 6 5
M  V30 7 1 7 6
M  V30 8 1 8 3
M  V30 9 2 9 8
M  V30 10 1 10 9
M  V30 11 2 11 7
M  V30 12 1 11 9
M  V30 13 1 12 1
M  V30 14 1 13 1
M  V30 15 1 14 4
M  V30 16 1 15 4
M  V30 17 1 16 7
M  V30 18 1 17 8
M  V30 19 1 18 10
M  V30 20 1 19 10
M  V30 21 1 20 10
M  V30 22 1 21 11
M  V30 END BOND
M  V30 END CTAB
M  END
>  <i_epik_Tot_Q>  (1) 
0

>  <i_epik_Tot_abs_Q>  (1) 
0

>  <i_i_glide_confnum>  (1) 
2

>  <i_i_glide_lignum>  (1) 
74

>  <i_i_glide_posenum>  (1) 
90

>  <i_i_glide_rotatable_bonds>  (1) 
0

>  <i_lp_mmshare_version>  (1) 
72125

>  <i_m_source_file_index>  (1) 
68

>  <i_f3d_flags>  (1) 
0

>  <num_sample>  (1) 
100

>  <b_lp_Chiralities_Consistent>  (1) 
1

>  <r_epik_Charging_Adjusted_Penalty>  (1) 
0

>  <r_epik_Ionization_Penalty>  (1) 
0

>  <r_epik_Ionization_Penalty_Charging>  (1) 
0

>  <r_epik_Ionization_Penalty_Neutral>  (1) 
0

>  <r_epik_State_Penalty>  (1) 
-0

>  <r_glide_ring_energy>  (1) 
0.0030884536109969021

>  <r_i_docking_score>  (1) 
-6.1889662947998998

>  <r_i_glide_ecoul>  (1) 
-1.2548205007329161

>  <r_i_glide_eff_state_penalty>  (1) 
-0

>  <r_i_glide_einternal>  (1) 
0

>  <r_i_glide_emodel>  (1) 
-27.521833671814349

>  <r_i_glide_emodel_strain>  (1) 
0

>  <r_i_glide_energy>  (1) 
-19.570694240075969

>  <r_i_glide_erotb>  (1) 
0

>  <r_i_glide_esite>  (1) 
0

>  <r_i_glide_evdw>  (1) 
-18.315873739343054

>  <r_i_glide_gscore>  (1) 
-6.1889662947998998

>  <r_i_glide_gscore_strain>  (1) 
0

>  <r_i_glide_hbond>  (1) 
0

>  <r_i_glide_ligand_efficiency>  (1) 
-0.5626332995272636

>  <r_i_glide_ligand_efficiency_ln>  (1) 
-1.821411726354625

>  <r_i_glide_ligand_efficiency_sa>  (1) 
-1.2512852564399568

>  <r_i_glide_lipo>  (1) 
-2.1723230753341358

>  <r_i_glide_metal>  (1) 
-0

>  <r_i_glide_rewards>  (1) 
-2.9126264573886731

>  <r_lp_Energy>  (1) 
14.201067

>  <r_lp_tautomer_probability>  (1) 
1

>  <s_epik_cmdline>  (1) 
J2VwaWtfcHl0aG9uJywgJy1waHQnLCAnMS4wJywgJy1waCcsICc3LjQnLCAnLXRuJywgJzgnLCAnLW1hJywgJzUwMCcsICctaW1hZScsICc8aW5maWxlLm1hZT4nLCAnLW9tYWUnLCAnPG91dGZpbGUubWFlPic=

>  <s_epik_input>  (1) 
TzFbQ0gyXVtDSDJdT2MoYzEyKVtjSF1bY0hdYyhbY0hdMilbQ0gzXQ==

>  <s_glide_docking_method>  (1) 
confgen

>  <s_i_glide_gridfile>  (1) 
gpcr_drd2_6luq_protein_autoprepared_prepared

>  <s_lp_Force_Field>  (1) 
S-OPLS

>  <s_lp_Variant>  (1) 
Pocket2Mol_67_num_sample_100-1

>  <s_m_source_file>  (1) 
generated__ligand_Pocket2Mol_2026-05-06_prepared.sdf

>  <GenAI_Model>  (1) 
Pocket2Mol

>  <Protein>  (1) 
generic_title2

$$$$
Pocket2Mol_57_num_sample_100
     RDKit          3D

  0  0  0  0  0  0  0  0  0  0999 V3000
M  V30 BEGIN CTAB
M  V30 COUNTS 18 19 0 0 1
M  V30 BEGIN ATOM
M  V30 1 C 12.366089 8.571556 -1.977986 0
M  V30 2 O 12.505740 9.307600 -3.163415 0
M  V30 3 C 11.975954 8.736842 -4.297833 0
M  V30 4 C 11.583493 7.383736 -4.291669 0
M  V30 5 C 11.034841 6.800235 -5.448698 0
M  V30 6 C 11.834843 9.500816 -5.473207 0
M  V30 7 C 11.298824 8.910546 -6.635512 0
M  V30 8 C 11.754746 6.569296 -3.031984 0
M  V30 9 C 10.893644 7.563158 -6.620955 0
M  V30 10 O 12.634891 7.214527 -2.130334 0
M  V30 11 H 13.077609 8.969254 -1.254649 0
M  V30 12 H 11.368329 8.707788 -1.567881 0
M  V30 13 H 10.727279 5.769318 -5.438207 0
M  V30 14 H 12.141207 10.536009 -5.485802 0
M  V30 15 H 11.198408 9.488568 -7.536940 0
M  V30 16 H 10.787628 6.400233 -2.557631 0
M  V30 17 H 12.173381 5.596053 -3.277457 0
M  V30 18 H 10.477107 7.114167 -7.511420 0
M  V30 END ATOM
M  V30 BEGIN BOND
M  V30 1 1 2 1
M  V30 2 1 3 2
M  V30 3 1 4 3
M  V30 4 2 5 4
M  V30 5 2 6 3
M  V30 6 1 7 6
M  V30 7 1 8 4
M  V30 8 1 9 5
M  V30 9 2 9 7
M  V30 10 1 10 1
M  V30 11 1 10 8
M  V30 12 1 11 1
M  V30 13 1 12 1
M  V30 14 1 13 5
M  V30 15 1 14 6
M  V30 16 1 15 7
M  V30 17 1 16 8
M  V30 18 1 17 8
M  V30 19 1 18 9
M  V30 END BOND
M  V30 END CTAB
M  END
>  <i_epik_Tot_Q>  (1) 
0

>  <i_epik_Tot_abs_Q>  (1) 
0

>  <i_i_glide_confnum>  (1) 
1

>  <i_i_glide_lignum>  (1) 
64

>  <i_i_glide_posenum>  (1) 
208

>  <i_i_glide_rotatable_bonds>  (1) 
0

>  <i_lp_mmshare_version>  (1) 
72125

>  <i_m_source_file_index>  (1) 
58

>  <i_f3d_flags>  (1) 
0

>  <num_sample>  (1) 
100

>  <b_lp_Chiralities_Consistent>  (1) 
1

>  <r_epik_Charging_Adjusted_Penalty>  (1) 
0

>  <r_epik_Ionization_Penalty>  (1) 
5.7885637950061117e-15

>  <r_epik_Ionization_Penalty_Charging>  (1) 
0

>  <r_epik_Ionization_Penalty_Neutral>  (1) 
5.7885637950061117e-15

>  <r_epik_State_Penalty>  (1) 
-0

>  <r_glide_ring_energy>  (1) 
0

>  <r_i_docking_score>  (1) 
-6.1887655704755522

>  <r_i_glide_ecoul>  (1) 
-1.6837426518199097

>  <r_i_glide_eff_state_penalty>  (1) 
-0

>  <r_i_glide_einternal>  (1) 
0

>  <r_i_glide_emodel>  (1) 
-29.860904058980573

>  <r_i_glide_emodel_strain>  (1) 
0

>  <r_i_glide_energy>  (1) 
-21.78690670166349

>  <r_i_glide_erotb>  (1) 
0

>  <r_i_glide_esite>  (1) 
0

>  <r_i_glide_evdw>  (1) 
-20.103164049843581

>  <r_i_glide_gscore>  (1) 
-6.1887655704755522

>  <r_i_glide_gscore_strain>  (1) 
0

>  <r_i_glide_hbond>  (1) 
0

>  <r_i_glide_ligand_efficiency>  (1) 
-0.61887655704755518

>  <r_i_glide_ligand_efficiency_ln>  (1) 
-1.8739155528813227

>  <r_i_glide_ligand_efficiency_sa>  (1) 
-1.3333291233507492

>  <r_i_glide_lipo>  (1) 
-1.7702622521959337

>  <r_i_glide_metal>  (1) 
-0

>  <r_i_glide_rewards>  (1) 
-3.1607837180144527

>  <r_lp_Energy>  (1) 
18.330197999999999

>  <r_lp_tautomer_probability>  (1) 
1

>  <s_epik_Chemistry_Notes>  (1) 
This compound contains an acetal/aminal-like group ( X-CH(R)-Y where X, Y are N, S, or O) that may be acid/base labile, releasing an aldehyde.

>  <s_epik_cmdline>  (1) 
J2VwaWtfcHl0aG9uJywgJy1waHQnLCAnMS4wJywgJy1waCcsICc3LjQnLCAnLXRuJywgJzgnLCAnLW1hJywgJzUwMCcsICctaW1hZScsICc8aW5maWxlLm1hZT4nLCAnLW9tYWUnLCAnPG91dGZpbGUubWFlPic=

>  <s_epik_input>  (1) 
TzFbQ0gyXU9bQ0gyXWMoYzEyKVtjSF1bY0hdW2NIXVtjSF0y

>  <s_glide_docking_method>  (1) 
confgen

>  <s_i_glide_gridfile>  (1) 
gpcr_drd2_6luq_protein_autoprepared_prepared

>  <s_lp_Force_Field>  (1) 
S-OPLS

>  <s_lp_Variant>  (1) 
Pocket2Mol_57_num_sample_100-1

>  <s_m_source_file>  (1) 
generated__ligand_Pocket2Mol_2026-05-06_prepared.sdf

>  <GenAI_Model>  (1) 
Pocket2Mol

>  <Protein>  (1) 
generic_title2

$$$$
Pocket2Mol_73_num_sample_100
     RDKit          3D

  0  0  0  0  0  0  0  0  0  0999 V3000
M  V30 BEGIN CTAB
M  V30 COUNTS 20 21 0 0 1
M  V30 BEGIN ATOM
M  V30 1 C 12.489308 8.538095 -1.891676 0
M  V30 2 O 12.233871 9.632116 -2.850672 0
M  V30 3 C 11.842839 8.955623 -3.949708 0
M  V30 4 C 11.834772 7.610173 -3.837065 0
M  V30 5 C 11.434839 6.785929 -4.899662 0
M  V30 6 C 12.252083 7.094772 -2.532219 0
M  V30 7 C 11.455635 9.590160 -5.141879 0
M  V30 8 C 11.035656 7.379828 -6.117746 0
M  V30 9 N 10.639382 6.569368 -7.189753 0
M  V30 10 C 11.049202 8.798546 -6.239476 0
M  V30 11 O 9.760494 7.195528 -8.082751 0
M  V30 12 H 11.832502 8.677623 -1.033389 0
M  V30 13 H 13.509234 8.622248 -1.518112 0
M  V30 14 H 11.431128 5.714832 -4.786466 0
M  V30 15 H 11.458729 6.529023 -2.042084 0
M  V30 16 H 13.162364 6.502128 -2.610212 0
M  V30 17 H 11.466028 10.667304 -5.217671 0
M  V30 18 H 10.327841 5.631307 -6.975475 0
M  V30 19 H 10.750325 9.270529 -7.162291 0
M  V30 20 H 10.153603 7.137578 -8.940588 0
M  V30 END ATOM
M  V30 BEGIN BOND
M  V30 1 1 2 1
M  V30 2 1 3 2
M  V30 3 2 4 3
M  V30 4 1 5 4
M  V30 5 1 6 1
M  V30 6 1 6 4
M  V30 7 1 7 3
M  V30 8 2 8 5
M  V30 9 1 9 8
M  V30 10 2 10 7
M  V30 11 1 10 8
M  V30 12 1 11 9
M  V30 13 1 12 1
M  V30 14 1 13 1
M  V30 15 1 14 5
M  V30 16 1 15 6
M  V30 17 1 16 6
M  V30 18 1 17 7
M  V30 19 1 18 9
M  V30 20 1 19 10
M  V30 21 1 20 11
M  V30 END BOND
M  V30 END CTAB
M  END
>  <i_epik_Tot_Q>  (1) 
0

>  <i_epik_Tot_abs_Q>  (1) 
0

>  <i_i_glide_confnum>  (1) 
1

>  <i_i_glide_lignum>  (1) 
80

>  <i_i_glide_posenum>  (1) 
314

>  <i_i_glide_rotatable_bonds>  (1) 
2

>  <i_lp_mmshare_version>  (1) 
72125

>  <i_m_source_file_index>  (1) 
74

>  <i_f3d_flags>  (1) 
0

>  <num_sample>  (1) 
100

>  <b_lp_Chiralities_Consistent>  (1) 
1

>  <r_epik_Charging_Adjusted_Penalty>  (1) 
0

>  <r_epik_Ionization_Penalty>  (1) 
0.00049506315318442675

>  <r_epik_Ionization_Penalty_Charging>  (1) 
0

>  <r_epik_Ionization_Penalty_Neutral>  (1) 
0.00049506315318442675

>  <r_epik_State_Penalty>  (1) 
-0

>  <r_glide_ring_energy>  (1) 
0

>  <r_i_docking_score>  (1) 
-6.1870153761689188

>  <r_i_glide_ecoul>  (1) 
-0.023788187652345361

>  <r_i_glide_eff_state_penalty>  (1) 
-0

>  <r_i_glide_einternal>  (1) 
0.16405635698503884

>  <r_i_glide_emodel>  (1) 
-35.094391695903418

>  <r_i_glide_emodel_strain>  (1) 
0

>  <r_i_glide_energy>  (1) 
-24.294683380437316

>  <r_i_glide_erotb>  (1) 
0

>  <r_i_glide_esite>  (1) 
0

>  <r_i_glide_evdw>  (1) 
-24.27089519278497

>  <r_i_glide_gscore>  (1) 
-6.1870153761689188

>  <r_i_glide_gscore_strain>  (1) 
0

>  <r_i_glide_hbond>  (1) 
0

>  <r_i_glide_ligand_efficiency>  (1) 
-0.56245594328808357

>  <r_i_glide_ligand_efficiency_ln>  (1) 
-1.8208375713338394

>  <r_i_glide_ligand_efficiency_sa>  (1) 
-1.2508908196950819

>  <r_i_glide_lipo>  (1) 
-2.3352234888630385

>  <r_i_glide_metal>  (1) 
-0

>  <r_i_glide_rewards>  (1) 
-2.6346788995187804

>  <r_lp_Energy>  (1) 
14.863064999999999

>  <r_lp_tautomer_probability>  (1) 
1

>  <s_epik_Chemistry_Notes>  (1) 
This compound has a N-S or N-O group and may undergo hydrolysis at high or low pH.

>  <s_epik_cmdline>  (1) 
J2VwaWtfcHl0aG9uJywgJy1waHQnLCAnMS4wJywgJy1waCcsICc3LjQnLCAnLXRuJywgJzgnLCAnLW1hJywgJzUwMCcsICctaW1hZScsICc8aW5maWxlLm1hZT4nLCAnLW9tYWUnLCAnPG91dGZpbGUubWFlPic=

>  <s_epik_input>  (1) 
TzFbQ0gyXVtDSDJdYyhjMTIpW2NIXWMoW05IXVtPSF0pW2NIXVtjSF0y

>  <s_glide_docking_method>  (1) 
confgen

>  <s_i_glide_gridfile>  (1) 
gpcr_drd2_6luq_protein_autoprepared_prepared

>  <s_lp_Force_Field>  (1) 
S-OPLS

>  <s_lp_Variant>  (1) 
Pocket2Mol_73_num_sample_100-1

>  <s_m_source_file>  (1) 
generated__ligand_Pocket2Mol_2026-05-06_prepared.sdf

>  <GenAI_Model>  (1) 
Pocket2Mol

>  <Protein>  (1) 
generic_title2

$$$$
Pocket2Mol_49_num_sample_100
     RDKit          3D

  0  0  0  0  0  0  0  0  0  0999 V3000
M  V30 BEGIN CTAB
M  V30 COUNTS 20 21 0 0 1
M  V30 BEGIN ATOM
M  V30 1 C 10.946184 8.547039 -7.951716 0
M  V30 2 O 11.166710 9.317625 -6.774194 0
M  V30 3 C 11.434830 8.621020 -5.618918 0
M  V30 4 C 11.034839 7.268551 -5.477290 0
M  V30 5 C 11.338468 6.569301 -4.291704 0
M  V30 6 C 12.117234 9.261048 -4.569017 0
M  V30 7 C 12.415084 8.560669 -3.383750 0
M  V30 8 C 10.282755 6.569316 -6.597531 0
M  V30 9 C 12.029431 7.213755 -3.246365 0
M  V30 10 C 9.834987 7.533719 -7.693653 0
M  V30 11 H 10.672524 9.207796 -8.773978 0
M  V30 12 H 11.870502 8.046779 -8.245680 0
M  V30 13 H 11.037182 5.540608 -4.183366 0
M  V30 14 H 12.417013 10.285892 -4.678020 0
M  V30 15 H 12.942633 9.056524 -2.581399 0
M  V30 16 H 10.939758 5.808165 -7.020317 0
M  V30 17 H 9.413736 6.053030 -6.190070 0
M  V30 18 H 12.258976 6.675294 -2.338364 0
M  V30 19 H 8.938994 8.067224 -7.372545 0
M  V30 20 H 9.565605 6.990601 -8.600158 0
M  V30 END ATOM
M  V30 BEGIN BOND
M  V30 1 1 2 1
M  V30 2 1 3 2
M  V30 3 1 4 3
M  V30 4 2 5 4
M  V30 5 2 6 3
M  V30 6 1 7 6
M  V30 7 1 8 4
M  V30 8 1 9 5
M  V30 9 2 9 7
M  V30 10 1 10 1
M  V30 11 1 10 8
M  V30 12 1 11 1
M  V30 13 1 12 1
M  V30 14 1 13 5
M  V30 15 1 14 6
M  V30 16 1 15 7
M  V30 17 1 16 8
M  V30 18 1 17 8
M  V30 19 1 18 9
M  V30 20 1 19 10
M  V30 21 1 20 10
M  V30 END BOND
M  V30 END CTAB
M  END
>  <i_epik_Tot_Q>  (1) 
0

>  <i_epik_Tot_abs_Q>  (1) 
0

>  <i_i_glide_confnum>  (1) 
1

>  <i_i_glide_lignum>  (1) 
56

>  <i_i_glide_posenum>  (1) 
41

>  <i_i_glide_rotatable_bonds>  (1) 
0

>  <i_lp_mmshare_version>  (1) 
72125

>  <i_m_source_file_index>  (1) 
50

>  <i_f3d_flags>  (1) 
0

>  <num_sample>  (1) 
100

>  <b_lp_Chiralities_Consistent>  (1) 
1

>  <r_epik_Charging_Adjusted_Penalty>  (1) 
0

>  <r_epik_Ionization_Penalty>  (1) 
0

>  <r_epik_Ionization_Penalty_Charging>  (1) 
0

>  <r_epik_Ionization_Penalty_Neutral>  (1) 
0

>  <r_epik_State_Penalty>  (1) 
-0

>  <r_glide_ring_energy>  (1) 
0

>  <r_i_docking_score>  (1) 
-6.174822840214703

>  <r_i_glide_ecoul>  (1) 
-1.658328035985297

>  <r_i_glide_eff_state_penalty>  (1) 
-0

>  <r_i_glide_einternal>  (1) 
0

>  <r_i_glide_emodel>  (1) 
-28.680081477190217

>  <r_i_glide_emodel_strain>  (1) 
1.762902712698633e-09

>  <r_i_glide_energy>  (1) 
-20.857700814580834

>  <r_i_glide_erotb>  (1) 
0

>  <r_i_glide_esite>  (1) 
0

>  <r_i_glide_evdw>  (1) 
-19.199372778595539

>  <r_i_glide_gscore>  (1) 
-6.174822840214703

>  <r_i_glide_gscore_strain>  (1) 
0

>  <r_i_glide_hbond>  (1) 
0

>  <r_i_glide_ligand_efficiency>  (1) 
-0.61748228402147032

>  <r_i_glide_ligand_efficiency_ln>  (1) 
-1.8696937902716546

>  <r_i_glide_ligand_efficiency_sa>  (1) 
-1.3303252531759762

>  <r_i_glide_lipo>  (1) 
-2.1645463960227942

>  <r_i_glide_metal>  (1) 
-0

>  <r_i_glide_rewards>  (1) 
-2.8015585998643369

>  <r_lp_Energy>  (1) 
14.978437

>  <r_lp_tautomer_probability>  (1) 
1

>  <s_epik_cmdline>  (1) 
J2VwaWtfcHl0aG9uJywgJy1waHQnLCAnMS4wJywgJy1waCcsICc3LjQnLCAnLXRuJywgJzgnLCAnLW1hJywgJzUwMCcsICctaW1hZScsICc8aW5maWxlLm1hZT4nLCAnLW9tYWUnLCAnPG91dGZpbGUubWFlPic=

>  <s_epik_input>  (1) 
TzFbQ0gyXVtDSDJdW0NIMl1jKGMxMilbY0hdW2NIXVtjSF1bY0hdMg==

>  <s_glide_docking_method>  (1) 
confgen

>  <s_i_glide_gridfile>  (1) 
gpcr_drd2_6luq_protein_autoprepared_prepared

>  <s_lp_Force_Field>  (1) 
S-OPLS

>  <s_lp_Variant>  (1) 
Pocket2Mol_49_num_sample_100-1

>  <s_m_source_file>  (1) 
generated__ligand_Pocket2Mol_2026-05-06_prepared.sdf

>  <GenAI_Model>  (1) 
Pocket2Mol

>  <Protein>  (1) 
generic_title2

$$$$
Pocket2Mol_92_num_sample_100
     RDKit          3D

  0  0  0  0  0  0  0  0  0  0999 V3000
M  V30 BEGIN CTAB
M  V30 COUNTS 26 27 0 0 1
M  V30 BEGIN ATOM
M  V30 1 C 9.834837 7.416246 -9.328816 0
M  V30 2 O 11.193814 7.525200 -9.719050 0
M  V30 3 C 9.667194 7.046876 -7.845230 0
M  V30 4 O 9.738099 8.217133 -7.044451 0
M  V30 5 C 11.871666 8.633254 -9.152645 0
M  V30 6 C 11.032858 8.690293 -6.682845 0 CFG=1
M  V30 7 C 11.434794 8.268558 -5.276459 0
M  V30 8 C 12.177465 8.373495 -7.674940 0
M  V30 9 C 12.045143 9.193402 -4.403879 0
M  V30 10 N 11.210955 6.972110 -4.949894 0
M  V30 11 C 11.611379 6.569307 -3.720190 0
M  V30 12 C 12.234839 7.419014 -2.785916 0
M  V30 13 C 12.450012 8.757602 -3.133964 0
M  V30 14 H 9.387365 6.628038 -9.935627 0
M  V30 15 H 9.293915 8.333885 -9.569081 0
M  V30 16 H 10.361248 6.269496 -7.525961 0
M  V30 17 H 8.664828 6.641158 -7.705292 0
M  V30 18 H 12.813575 8.732861 -9.693718 0
M  V30 19 H 11.329256 9.567420 -9.303975 0
M  V30 20 H 13.044922 8.968526 -7.391485 0
M  V30 21 H 12.500977 7.340057 -7.563780 0
M  V30 22 H 12.208275 10.212520 -4.711615 0
M  V30 23 H 11.430188 5.539265 -3.475111 0
M  V30 24 H 12.536403 7.045630 -1.818997 0
M  V30 25 H 12.922989 9.435899 -2.442475 0
M  V30 26 H 10.920906 9.771634 -6.653532 0
M  V30 END ATOM
M  V30 BEGIN BOND
M  V30 1 1 2 1
M  V30 2 1 3 1
M  V30 3 1 4 3
M  V30 4 1 5 2
M  V30 5 1 6 4
M  V30 6 1 7 6
M  V30 7 1 8 5
M  V30 8 1 8 6
M  V30 9 1 9 7
M  V30 10 2 10 7
M  V30 11 1 11 10
M  V30 12 2 12 11
M  V30 13 2 13 9
M  V30 14 1 13 12
M  V30 15 1 14 1
M  V30 16 1 15 1
M  V30 17 1 16 3
M  V30 18 1 17 3
M  V30 19 1 18 5
M  V30 20 1 19 5
M  V30 21 1 20 8
M  V30 22 1 21 8
M  V30 23 1 22 9
M  V30 24 1 23 11
M  V30 25 1 24 12
M  V30 26 1 25 13
M  V30 27 1 6 26 CFG=1
M  V30 END BOND
M  V30 END CTAB
M  END
>  <i_epik_Tot_Q>  (1) 
0

>  <i_epik_Tot_abs_Q>  (1) 
0

>  <i_i_glide_confnum>  (1) 
17

>  <i_i_glide_lignum>  (1) 
100

>  <i_i_glide_posenum>  (1) 
40

>  <i_i_glide_rotatable_bonds>  (1) 
1

>  <i_lp_mmshare_version>  (1) 
72125

>  <i_m_source_file_index>  (1) 
93

>  <i_f3d_flags>  (1) 
0

>  <num_sample>  (1) 
100

>  <b_lp_Chiralities_Consistent>  (1) 
1

>  <r_epik_Charging_Adjusted_Penalty>  (1) 
0.0037896276157117258

>  <r_epik_Ionization_Penalty>  (1) 
0.0037896276174286705

>  <r_epik_Ionization_Penalty_Charging>  (1) 
0

>  <r_epik_Ionization_Penalty_Neutral>  (1) 
0.0037896276174286705

>  <r_epik_State_Penalty>  (1) 
0.0037896276157117258

>  <r_glide_ring_energy>  (1) 
1.3090148209089068

>  <r_i_docking_score>  (1) 
-6.167216164760946

>  <r_i_glide_ecoul>  (1) 
-0.8168145774460196

>  <r_i_glide_eff_state_penalty>  (1) 
0.0037896276157117258

>  <r_i_glide_einternal>  (1) 
0.063887501346392317

>  <r_i_glide_emodel>  (1) 
-37.900696286209111

>  <r_i_glide_emodel_strain>  (1) 
0

>  <r_i_glide_energy>  (1) 
-27.176121372895697

>  <r_i_glide_erotb>  (1) 
0.4895878840251785

>  <r_i_glide_esite>  (1) 
0

>  <r_i_glide_evdw>  (1) 
-26.359306795449676

>  <r_i_glide_gscore>  (1) 
-6.1710057923766577

>  <r_i_glide_gscore_strain>  (1) 
0

>  <r_i_glide_hbond>  (1) 
0

>  <r_i_glide_ligand_efficiency>  (1) 
-0.47440124344314971

>  <r_i_glide_ligand_efficiency_ln>  (1) 
-1.7299589829664181

>  <r_i_glide_ligand_efficiency_sa>  (1) 
-1.1154760996057376

>  <r_i_glide_lipo>  (1) 
-2.2291077769317549

>  <r_i_glide_metal>  (1) 
-0

>  <r_i_glide_rewards>  (1) 
-2.990998373080695

>  <r_lp_Energy>  (1) 
20.645538999999999

>  <s_epik_cmdline>  (1) 
J2VwaWtfcHl0aG9uJywgJy1waHQnLCAnMS4wJywgJy1waCcsICc3LjQnLCAnLXRuJywgJzgnLCAnLW1hJywgJzUwMCcsICctaW1hZScsICc8aW5maWxlLm1hZT4nLCAnLW9tYWUnLCAnPG91dGZpbGUubWFlPic=

>  <s_epik_input>  (1) 
W0NIMl0xW0NIMl1PW0NIMl1bQ0gyXU8vQzE9QzJcW0NIXT1bQ0hdW0NIXT1bQ0hdW05IXTI=

>  <s_glide_docking_method>  (1) 
confgen

>  <s_i_glide_gridfile>  (1) 
gpcr_drd2_6luq_protein_autoprepared_prepared

>  <s_lp_Force_Field>  (1) 
S-OPLS

>  <s_lp_Variant>  (1) 
Pocket2Mol_92_num_sample_100-1

>  <s_m_source_file>  (1) 
generated__ligand_Pocket2Mol_2026-05-06_prepared.sdf

>  <GenAI_Model>  (1) 
Pocket2Mol

>  <Protein>  (1) 
generic_title2

$$$$
Pocket2Mol_37_num_sample_100
     RDKit          3D

  0  0  0  0  0  0  0  0  0  0999 V3000
M  V30 BEGIN CTAB
M  V30 COUNTS 17 18 0 0 1
M  V30 BEGIN ATOM
M  V30 1 C 12.234871 6.758940 -2.319611 0
M  V30 2 O 11.611887 6.169302 -3.377994 0
M  V30 3 C 11.496315 7.147592 -4.317241 0
M  V30 4 C 12.010153 8.316347 -3.891672 0
M  V30 5 C 12.030882 9.564061 -4.691564 0
M  V30 6 C 10.862450 6.800570 -5.598319 0
M  V30 7 C 12.496457 8.072243 -2.581601 0
M  V30 8 C 10.921995 8.066975 -6.483048 0
M  V30 9 C 11.434830 9.274194 -6.086506 0
M  V30 10 H 12.414604 6.111451 -1.476711 0
M  V30 11 H 13.057814 9.913043 -4.791370 0
M  V30 12 H 11.434762 10.330894 -4.197289 0
M  V30 13 H 9.827131 6.493969 -5.451486 0
M  V30 14 H 11.395790 5.983009 -6.083784 0
M  V30 15 H 12.981420 8.770093 -1.913743 0
M  V30 16 H 10.525272 7.966815 -7.483236 0
M  V30 17 H 11.434850 10.099603 -6.780927 0
M  V30 END ATOM
M  V30 BEGIN BOND
M  V30 1 1 2 1
M  V30 2 1 3 2
M  V30 3 2 4 3
M  V30 4 1 5 4
M  V30 5 1 6 3
M  V30 6 2 7 1
M  V30 7 1 7 4
M  V30 8 1 8 6
M  V30 9 1 9 5
M  V30 10 2 9 8
M  V30 11 1 10 1
M  V30 12 1 11 5
M  V30 13 1 12 5
M  V30 14 1 13 6
M  V30 15 1 14 6
M  V30 16 1 15 7
M  V30 17 1 16 8
M  V30 18 1 17 9
M  V30 END BOND
M  V30 END CTAB
M  END
>  <i_epik_Tot_Q>  (1) 
0

>  <i_epik_Tot_abs_Q>  (1) 
0

>  <i_i_glide_confnum>  (1) 
1

>  <i_i_glide_lignum>  (1) 
42

>  <i_i_glide_posenum>  (1) 
114

>  <i_i_glide_rotatable_bonds>  (1) 
0

>  <i_lp_mmshare_version>  (1) 
72125

>  <i_m_source_file_index>  (1) 
38

>  <i_f3d_flags>  (1) 
0

>  <num_sample>  (1) 
100

>  <b_lp_Chiralities_Consistent>  (1) 
1

>  <r_epik_Charging_Adjusted_Penalty>  (1) 
0

>  <r_epik_Ionization_Penalty>  (1) 
0

>  <r_epik_Ionization_Penalty_Charging>  (1) 
0

>  <r_epik_Ionization_Penalty_Neutral>  (1) 
0

>  <r_epik_State_Penalty>  (1) 
-0

>  <r_glide_ring_energy>  (1) 
0

>  <r_i_docking_score>  (1) 
-6.1652955048077036

>  <r_i_glide_ecoul>  (1) 
-0.47732315448930707

>  <r_i_glide_eff_state_penalty>  (1) 
-0

>  <r_i_glide_einternal>  (1) 
0

>  <r_i_glide_emodel>  (1) 
-27.774715597022869

>  <r_i_glide_emodel_strain>  (1) 
0

>  <r_i_glide_energy>  (1) 
-19.662024521641357

>  <r_i_glide_erotb>  (1) 
0

>  <r_i_glide_esite>  (1) 
0

>  <r_i_glide_evdw>  (1) 
-19.184701367152048

>  <r_i_glide_gscore>  (1) 
-6.1652955048077036

>  <r_i_glide_gscore_strain>  (1) 
0

>  <r_i_glide_hbond>  (1) 
0

>  <r_i_glide_ligand_efficiency>  (1) 
-0.68503283386752267

>  <r_i_glide_ligand_efficiency_ln>  (1) 
-1.9283273212995078

>  <r_i_glide_ligand_efficiency_sa>  (1) 
-1.4249257159872366

>  <r_i_glide_lipo>  (1) 
-2.3321151981752553

>  <r_i_glide_metal>  (1) 
-0

>  <r_i_glide_rewards>  (1) 
-2.8023467651014502

>  <r_lp_Energy>  (1) 
4.5932930000000001

>  <r_lp_tautomer_probability>  (1) 
1

>  <s_epik_cmdline>  (1) 
J2VwaWtfcHl0aG9uJywgJy1waHQnLCAnMS4wJywgJy1waCcsICc3LjQnLCAnLXRuJywgJzgnLCAnLW1hJywgJzUwMCcsICctaW1hZScsICc8aW5maWxlLm1hZT4nLCAnLW9tYWUnLCAnPG91dGZpbGUubWFlPic=

>  <s_epik_input>  (1) 
bzFbY0hdW2NIXWMoYzEyKVtDSDJdW0NIXT1bQ0hdW0NIMl0y

>  <s_glide_docking_method>  (1) 
confgen

>  <s_i_glide_gridfile>  (1) 
gpcr_drd2_6luq_protein_autoprepared_prepared

>  <s_lp_Force_Field>  (1) 
S-OPLS

>  <s_lp_Variant>  (1) 
Pocket2Mol_37_num_sample_100-1

>  <s_m_source_file>  (1) 
generated__ligand_Pocket2Mol_2026-05-06_prepared.sdf

>  <GenAI_Model>  (1) 
Pocket2Mol

>  <Protein>  (1) 
generic_title2

$$$$
Pocket2Mol_32_num_sample_100
     RDKit          3D

  0  0  0  0  0  0  0  0  0  0999 V3000
M  V30 BEGIN CTAB
M  V30 COUNTS 17 18 0 0 1
M  V30 BEGIN ATOM
M  V30 1 C 12.490262 8.512573 -1.995860 0
M  V30 2 O 12.234831 9.556754 -3.009764 0
M  V30 3 C 11.841969 8.825163 -4.072562 0
M  V30 4 C 11.834839 7.486968 -3.891666 0
M  V30 5 C 11.434788 6.610585 -4.913144 0
M  V30 6 C 12.251734 7.038163 -2.562174 0
M  V30 7 C 11.451791 9.398218 -5.296094 0
M  V30 8 C 11.042567 8.550150 -6.350928 0
M  V30 9 C 11.034164 7.146228 -6.157782 0
M  V30 10 H 13.510912 8.615173 -1.628538 0
M  V30 11 H 11.834867 8.696252 -1.143830 0
M  V30 12 H 11.429881 5.546077 -4.748906 0
M  V30 13 H 11.456191 6.500685 -2.044556 0
M  V30 14 H 13.160036 6.439312 -2.607471 0
M  V30 15 H 11.460829 10.470335 -5.426801 0
M  V30 16 H 10.736216 8.969301 -7.297950 0
M  V30 17 H 10.720882 6.489265 -6.956557 0
M  V30 END ATOM
M  V30 BEGIN BOND
M  V30 1 1 2 1
M  V30 2 1 3 2
M  V30 3 1 4 3
M  V30 4 2 5 4
M  V30 5 1 6 1
M  V30 6 1 6 4
M  V30 7 2 7 3
M  V30 8 1 8 7
M  V30 9 1 9 5
M  V30 10 2 9 8
M  V30 11 1 10 1
M  V30 12 1 11 1
M  V30 13 1 12 5
M  V30 14 1 13 6
M  V30 15 1 14 6
M  V30 16 1 15 7
M  V30 17 1 16 8
M  V30 18 1 17 9
M  V30 END BOND
M  V30 END CTAB
M  END
>  <i_epik_Tot_Q>  (1) 
0

>  <i_epik_Tot_abs_Q>  (1) 
0

>  <i_i_glide_confnum>  (1) 
1

>  <i_i_glide_lignum>  (1) 
36

>  <i_i_glide_posenum>  (1) 
134

>  <i_i_glide_rotatable_bonds>  (1) 
0

>  <i_lp_mmshare_version>  (1) 
72125

>  <i_m_source_file_index>  (1) 
33

>  <i_f3d_flags>  (1) 
0

>  <num_sample>  (1) 
100

>  <b_lp_Chiralities_Consistent>  (1) 
1

>  <r_epik_Charging_Adjusted_Penalty>  (1) 
0

>  <r_epik_Ionization_Penalty>  (1) 
0

>  <r_epik_Ionization_Penalty_Charging>  (1) 
0

>  <r_epik_Ionization_Penalty_Neutral>  (1) 
0

>  <r_epik_State_Penalty>  (1) 
-0

>  <r_glide_ring_energy>  (1) 
0

>  <r_i_docking_score>  (1) 
-6.1634313435061117

>  <r_i_glide_ecoul>  (1) 
-0.8427495299863601

>  <r_i_glide_eff_state_penalty>  (1) 
-0

>  <r_i_glide_einternal>  (1) 
0

>  <r_i_glide_emodel>  (1) 
-28.803856491606837

>  <r_i_glide_emodel_strain>  (1) 
0

>  <r_i_glide_energy>  (1) 
-20.745632636671292

>  <r_i_glide_erotb>  (1) 
0

>  <r_i_glide_esite>  (1) 
0

>  <r_i_glide_evdw>  (1) 
-19.902883106684932

>  <r_i_glide_gscore>  (1) 
-6.1634313435061117

>  <r_i_glide_gscore_strain>  (1) 
0

>  <r_i_glide_hbond>  (1) 
0

>  <r_i_glide_ligand_efficiency>  (1) 
-0.68482570483401239

>  <r_i_glide_ligand_efficiency_ln>  (1) 
-1.9277442651967849

>  <r_i_glide_ligand_efficiency_sa>  (1) 
-1.4244948702353477

>  <r_i_glide_lipo>  (1) 
-2.258541425340578

>  <r_i_glide_metal>  (1) 
-0

>  <r_i_glide_rewards>  (1) 
-2.7833333333333332

>  <r_lp_Energy>  (1) 
11.954839999999999

>  <r_lp_tautomer_probability>  (1) 
1

>  <s_epik_cmdline>  (1) 
J2VwaWtfcHl0aG9uJywgJy1waHQnLCAnMS4wJywgJy1waCcsICc3LjQnLCAnLXRuJywgJzgnLCAnLW1hJywgJzUwMCcsICctaW1hZScsICc8aW5maWxlLm1hZT4nLCAnLW9tYWUnLCAnPG91dGZpbGUubWFlPic=

>  <s_epik_input>  (1) 
TzFbQ0gyXVtDSDJdYyhjMTIpW2NIXVtjSF1bY0hdW2NIXTI=

>  <s_glide_docking_method>  (1) 
confgen

>  <s_i_glide_gridfile>  (1) 
gpcr_drd2_6luq_protein_autoprepared_prepared

>  <s_lp_Force_Field>  (1) 
S-OPLS

>  <s_lp_Variant>  (1) 
Pocket2Mol_32_num_sample_100-1

>  <s_m_source_file>  (1) 
generated__ligand_Pocket2Mol_2026-05-06_prepared.sdf

>  <GenAI_Model>  (1) 
Pocket2Mol

>  <Protein>  (1) 
generic_title2

$$$$
Pocket2Mol_65_num_sample_100
     RDKit          3D

  0  0  0  0  0  0  0  0  0  0999 V3000
M  V30 BEGIN CTAB
M  V30 COUNTS 18 19 0 0 1
M  V30 BEGIN ATOM
M  V30 1 C 9.950031 7.479856 -7.578372 0
M  V30 2 O 10.444335 6.587667 -6.590094 0
M  V30 3 C 11.034839 7.184519 -5.498524 0
M  V30 4 C 11.248214 6.435932 -4.328072 0
M  V30 5 C 11.034818 8.519804 -7.870133 0
M  V30 6 C 11.434839 8.545908 -5.546604 0
M  V30 7 O 11.252675 9.288252 -6.691642 0
M  V30 8 C 12.029550 9.138554 -4.415732 0
M  V30 9 C 12.234839 8.381153 -3.245717 0
M  V30 10 F 12.804124 8.952214 -2.162109 0
M  V30 11 C 11.846854 7.030092 -3.203944 0
M  V30 12 H 9.030433 7.954947 -7.232801 0
M  V30 13 H 9.704989 6.915051 -8.478112 0
M  V30 14 H 10.948336 5.401995 -4.291667 0
M  V30 15 H 10.728864 9.172649 -8.687304 0
M  V30 16 H 11.963954 8.037677 -8.178380 0
M  V30 17 H 12.333023 10.169301 -4.447760 0
M  V30 18 H 12.005529 6.449535 -2.306801 0
M  V30 END ATOM
M  V30 BEGIN BOND
M  V30 1 1 2 1
M  V30 2 1 3 2
M  V30 3 1 4 3
M  V30 4 1 5 1
M  V30 5 2 6 3
M  V30 6 1 7 5
M  V30 7 1 7 6
M  V30 8 1 8 6
M  V30 9 2 9 8
M  V30 10 1 10 9
M  V30 11 2 11 4
M  V30 12 1 11 9
M  V30 13 1 12 1
M  V30 14 1 13 1
M  V30 15 1 14 4
M  V30 16 1 15 5
M  V30 17 1 16 5
M  V30 18 1 17 8
M  V30 19 1 18 11
M  V30 END BOND
M  V30 END CTAB
M  END
>  <i_epik_Tot_Q>  (1) 
0

>  <i_epik_Tot_abs_Q>  (1) 
0

>  <i_i_glide_confnum>  (1) 
2

>  <i_i_glide_lignum>  (1) 
72

>  <i_i_glide_posenum>  (1) 
390

>  <i_i_glide_rotatable_bonds>  (1) 
0

>  <i_lp_mmshare_version>  (1) 
72125

>  <i_m_source_file_index>  (1) 
66

>  <i_f3d_flags>  (1) 
0

>  <num_sample>  (1) 
100

>  <b_lp_Chiralities_Consistent>  (1) 
1

>  <r_epik_Charging_Adjusted_Penalty>  (1) 
0

>  <r_epik_Ionization_Penalty>  (1) 
0

>  <r_epik_Ionization_Penalty_Charging>  (1) 
0

>  <r_epik_Ionization_Penalty_Neutral>  (1) 
0

>  <r_epik_State_Penalty>  (1) 
-0

>  <r_glide_ring_energy>  (1) 
0.0030884427186306492

>  <r_i_docking_score>  (1) 
-6.1621125450990899

>  <r_i_glide_ecoul>  (1) 
-0.26238946988833334

>  <r_i_glide_eff_state_penalty>  (1) 
-0

>  <r_i_glide_einternal>  (1) 
0

>  <r_i_glide_emodel>  (1) 
-28.03957280616526

>  <r_i_glide_emodel_strain>  (1) 
0

>  <r_i_glide_energy>  (1) 
-19.396360993548551

>  <r_i_glide_erotb>  (1) 
0

>  <r_i_glide_esite>  (1) 
0

>  <r_i_glide_evdw>  (1) 
-19.133971523660218

>  <r_i_glide_gscore>  (1) 
-6.1621125450990899

>  <r_i_glide_gscore_strain>  (1) 
0

>  <r_i_glide_hbond>  (1) 
0

>  <r_i_glide_ligand_efficiency>  (1) 
-0.56019204955446267

>  <r_i_glide_ligand_efficiency_ln>  (1) 
-1.8135086723918423

>  <r_i_glide_ligand_efficiency_sa>  (1) 
-1.2458559651043446

>  <r_i_glide_lipo>  (1) 
-1.9160134313588411

>  <r_i_glide_metal>  (1) 
-0

>  <r_i_glide_rewards>  (1) 
-3.2500421170739888

>  <r_lp_Energy>  (1) 
15.305638999999999

>  <r_lp_tautomer_probability>  (1) 
1

>  <s_epik_cmdline>  (1) 
J2VwaWtfcHl0aG9uJywgJy1waHQnLCAnMS4wJywgJy1waCcsICc3LjQnLCAnLXRuJywgJzgnLCAnLW1hJywgJzUwMCcsICctaW1hZScsICc8aW5maWxlLm1hZT4nLCAnLW9tYWUnLCAnPG91dGZpbGUubWFlPic=

>  <s_epik_input>  (1) 
TzFbQ0gyXVtDSDJdT2MoYzEyKVtjSF1jKEYpW2NIXVtjSF0y

>  <s_glide_docking_method>  (1) 
confgen

>  <s_i_glide_gridfile>  (1) 
gpcr_drd2_6luq_protein_autoprepared_prepared

>  <s_lp_Force_Field>  (1) 
S-OPLS

>  <s_lp_Variant>  (1) 
Pocket2Mol_65_num_sample_100-1

>  <s_m_source_file>  (1) 
generated__ligand_Pocket2Mol_2026-05-06_prepared.sdf

>  <GenAI_Model>  (1) 
Pocket2Mol

>  <Protein>  (1) 
generic_title2

$$$$
Pocket2Mol_51_num_sample_100
     RDKit          3D

  0  0  0  0  0  0  0  0  0  0999 V3000
M  V30 BEGIN CTAB
M  V30 COUNTS 15 16 0 0 1
M  V30 BEGIN ATOM
M  V30 1 C 10.610088 6.784386 -6.957401 0
M  V30 2 O 11.022402 6.169381 -5.708416 0
M  V30 3 C 11.428842 7.176327 -4.893933 0
M  V30 4 C 11.434273 8.442092 -5.415820 0
M  V30 5 C 11.834746 9.545988 -4.649435 0
M  V30 6 C 11.834776 6.944879 -3.566576 0
M  V30 7 C 12.245376 8.034340 -2.770819 0
M  V30 8 S 10.935889 8.603472 -7.041403 0
M  V30 9 F 12.631884 7.832985 -1.491668 0
M  V30 10 C 12.244780 9.339203 -3.312395 0
M  V30 11 H 11.133613 6.296811 -7.777577 0
M  V30 12 H 9.542872 6.612013 -7.109644 0
M  V30 13 H 11.830422 10.538992 -5.075597 0
M  V30 14 H 11.827815 5.943772 -3.160706 0
M  V30 15 H 12.556883 10.169313 -2.704955 0
M  V30 END ATOM
M  V30 BEGIN BOND
M  V30 1 1 2 1
M  V30 2 1 3 2
M  V30 3 2 4 3
M  V30 4 1 5 4
M  V30 5 1 6 3
M  V30 6 2 7 6
M  V30 7 1 8 1
M  V30 8 1 8 4
M  V30 9 1 9 7
M  V30 10 2 10 5
M  V30 11 1 10 7
M  V30 12 1 11 1
M  V30 13 1 12 1
M  V30 14 1 13 5
M  V30 15 1 14 6
M  V30 16 1 15 10
M  V30 END BOND
M  V30 END CTAB
M  END
>  <i_epik_Tot_Q>  (1) 
0

>  <i_epik_Tot_abs_Q>  (1) 
0

>  <i_i_glide_confnum>  (1) 
1

>  <i_i_glide_lignum>  (1) 
58

>  <i_i_glide_posenum>  (1) 
182

>  <i_i_glide_rotatable_bonds>  (1) 
0

>  <i_lp_mmshare_version>  (1) 
72125

>  <i_m_source_file_index>  (1) 
52

>  <i_f3d_flags>  (1) 
0

>  <num_sample>  (1) 
100

>  <b_lp_Chiralities_Consistent>  (1) 
1

>  <r_epik_Charging_Adjusted_Penalty>  (1) 
0

>  <r_epik_Ionization_Penalty>  (1) 
0

>  <r_epik_Ionization_Penalty_Charging>  (1) 
0

>  <r_epik_Ionization_Penalty_Neutral>  (1) 
0

>  <r_epik_State_Penalty>  (1) 
-0

>  <r_glide_ring_energy>  (1) 
0

>  <r_i_docking_score>  (1) 
-6.1611438456881915

>  <r_i_glide_ecoul>  (1) 
-0.42292460815963029

>  <r_i_glide_eff_state_penalty>  (1) 
-0

>  <r_i_glide_einternal>  (1) 
0

>  <r_i_glide_emodel>  (1) 
-28.369642566188908

>  <r_i_glide_emodel_strain>  (1) 
0

>  <r_i_glide_energy>  (1) 
-20.532876086280638

>  <r_i_glide_erotb>  (1) 
0

>  <r_i_glide_esite>  (1) 
0

>  <r_i_glide_evdw>  (1) 
-20.109951478121008

>  <r_i_glide_gscore>  (1) 
-6.1611438456881915

>  <r_i_glide_gscore_strain>  (1) 
0

>  <r_i_glide_hbond>  (1) 
0

>  <r_i_glide_ligand_efficiency>  (1) 
-0.61611438456881917

>  <r_i_glide_ligand_efficiency_ln>  (1) 
-1.8655518850242989

>  <r_i_glide_ligand_efficiency_sa>  (1) 
-1.3273782031427088

>  <r_i_glide_lipo>  (1) 
-2.1816780983748187

>  <r_i_glide_metal>  (1) 
-0

>  <r_i_glide_rewards>  (1) 
-2.9105294821833776

>  <r_lp_Energy>  (1) 
4.072584

>  <r_lp_tautomer_probability>  (1) 
1

>  <s_epik_Chemistry_Notes>  (1) 
This compound contains an acetal/aminal-like group ( X-CH(R)-Y where X, Y are N, S, or O) that may be acid/base labile, releasing an aldehyde.

>  <s_epik_cmdline>  (1) 
J2VwaWtfcHl0aG9uJywgJy1waHQnLCAnMS4wJywgJy1waCcsICc3LjQnLCAnLXRuJywgJzgnLCAnLW1hJywgJzUwMCcsICctaW1hZScsICc8aW5maWxlLm1hZT4nLCAnLW9tYWUnLCAnPG91dGZpbGUubWFlPic=

>  <s_epik_input>  (1) 
TzFbQ0gyXVNjKGMxMilbY0hdW2NIXWMoRilbY0hdMg==

>  <s_glide_docking_method>  (1) 
confgen

>  <s_i_glide_gridfile>  (1) 
gpcr_drd2_6luq_protein_autoprepared_prepared

>  <s_lp_Force_Field>  (1) 
S-OPLS

>  <s_lp_Variant>  (1) 
Pocket2Mol_51_num_sample_100-1

>  <s_m_source_file>  (1) 
generated__ligand_Pocket2Mol_2026-05-06_prepared.sdf

>  <GenAI_Model>  (1) 
Pocket2Mol

>  <Protein>  (1) 
generic_title2

$$$$
Pocket2Mol_61_num_sample_100
     RDKit          3D

  0  0  0  0  0  0  0  0  0  0999 V3000
M  V30 BEGIN CTAB
M  V30 COUNTS 18 19 0 0 1
M  V30 BEGIN ATOM
M  V30 1 C 12.032467 9.274762 -4.669797 0
M  V30 2 O 11.434839 8.030325 -4.639077 0
M  V30 3 C 11.053911 7.729465 -5.925002 0
M  V30 4 C 11.438339 8.772248 -6.777909 0
M  V30 5 C 11.139537 8.616240 -8.156799 0
M  V30 6 C 10.466357 7.460764 -8.627483 0
M  V30 7 C 12.066528 9.769299 -5.959777 0
M  V30 8 N 10.174312 7.341767 -9.993074 0
M  V30 9 C 10.094951 6.436054 -7.718065 0
M  V30 10 C 10.397776 6.576927 -6.355931 0
M  V30 11 O 9.034839 6.569301 -10.266859 0
M  V30 12 H 12.377720 9.657316 -3.719613 0
M  V30 13 H 11.420903 9.391427 -8.852894 0
M  V30 14 H 12.476554 10.710053 -6.291666 0
M  V30 15 H 10.176975 8.185013 -10.548375 0
M  V30 16 H 9.585190 5.550538 -8.069740 0
M  V30 17 H 10.127074 5.806294 -5.651370 0
M  V30 18 H 8.288518 7.050757 -9.891673 0
M  V30 END ATOM
M  V30 BEGIN BOND
M  V30 1 1 2 1
M  V30 2 1 3 2
M  V30 3 1 4 3
M  V30 4 2 5 4
M  V30 5 1 6 5
M  V30 6 2 7 1
M  V30 7 1 7 4
M  V30 8 1 8 6
M  V30 9 2 9 6
M  V30 10 2 10 3
M  V30 11 1 10 9
M  V30 12 1 11 8
M  V30 13 1 12 1
M  V30 14 1 13 5
M  V30 15 1 14 7
M  V30 16 1 15 8
M  V30 17 1 16 9
M  V30 18 1 17 10
M  V30 19 1 18 11
M  V30 END BOND
M  V30 END CTAB
M  END
>  <i_epik_Tot_Q>  (1) 
0

>  <i_epik_Tot_abs_Q>  (1) 
0

>  <i_i_glide_confnum>  (1) 
1

>  <i_i_glide_lignum>  (1) 
68

>  <i_i_glide_posenum>  (1) 
381

>  <i_i_glide_rotatable_bonds>  (1) 
2

>  <i_lp_mmshare_version>  (1) 
72125

>  <i_m_source_file_index>  (1) 
62

>  <i_f3d_flags>  (1) 
0

>  <num_sample>  (1) 
100

>  <b_lp_Chiralities_Consistent>  (1) 
1

>  <r_epik_Charging_Adjusted_Penalty>  (1) 
0

>  <r_epik_Ionization_Penalty>  (1) 
0.00016546089717554426

>  <r_epik_Ionization_Penalty_Charging>  (1) 
0

>  <r_epik_Ionization_Penalty_Neutral>  (1) 
0.00016546089717554426

>  <r_epik_State_Penalty>  (1) 
-0

>  <r_glide_ring_energy>  (1) 
0

>  <r_i_docking_score>  (1) 
-6.1498809319276591

>  <r_i_glide_ecoul>  (1) 
-4.7208047360317327

>  <r_i_glide_eff_state_penalty>  (1) 
-0

>  <r_i_glide_einternal>  (1) 
0.81201696433658421

>  <r_i_glide_emodel>  (1) 
-34.269701098954449

>  <r_i_glide_emodel_strain>  (1) 
0

>  <r_i_glide_energy>  (1) 
-24.499093569293066

>  <r_i_glide_erotb>  (1) 
0

>  <r_i_glide_esite>  (1) 
-0.064243885370509651

>  <r_i_glide_evdw>  (1) 
-19.778288833261332

>  <r_i_glide_gscore>  (1) 
-6.1498809319276591

>  <r_i_glide_gscore_strain>  (1) 
0

>  <r_i_glide_hbond>  (1) 
-0.16

>  <r_i_glide_ligand_efficiency>  (1) 
-0.55908008472069626

>  <r_i_glide_ligand_efficiency_ln>  (1) 
-1.8099089107189767

>  <r_i_glide_ligand_efficiency_sa>  (1) 
-1.2433829774526348

>  <r_i_glide_lipo>  (1) 
-1.595283147864486

>  <r_i_glide_metal>  (1) 
-0

>  <r_i_glide_rewards>  (1) 
-2.6333187466248371

>  <r_lp_Energy>  (1) 
13.798807999999999

>  <r_lp_tautomer_probability>  (1) 
1

>  <s_epik_Chemistry_Notes>  (1) 
This compound has a N-S or N-O group and may undergo hydrolysis at high or low pH.

>  <s_epik_cmdline>  (1) 
J2VwaWtfcHl0aG9uJywgJy1waHQnLCAnMS4wJywgJy1waCcsICc3LjQnLCAnLXRuJywgJzgnLCAnLW1hJywgJzUwMCcsICctaW1hZScsICc8aW5maWxlLm1hZT4nLCAnLW9tYWUnLCAnPG91dGZpbGUubWFlPic=

>  <s_epik_input>  (1) 
bzFbY0hdW2NIXWMoYzEyKVtjSF1jKFtOSF1bT0hdKVtjSF1bY0hdMg==

>  <s_glide_docking_method>  (1) 
confgen

>  <s_i_glide_gridfile>  (1) 
gpcr_drd2_6luq_protein_autoprepared_prepared

>  <s_lp_Force_Field>  (1) 
S-OPLS

>  <s_lp_Variant>  (1) 
Pocket2Mol_61_num_sample_100-1

>  <s_m_source_file>  (1) 
generated__ligand_Pocket2Mol_2026-05-06_prepared.sdf

>  <GenAI_Model>  (1) 
Pocket2Mol

>  <Protein>  (1) 
generic_title2

$$$$
Pocket2Mol_90_num_sample_100
     RDKit          3D

  0  0  0  0  0  0  0  0  0  0999 V3000
M  V30 BEGIN CTAB
M  V30 COUNTS 23 24 0 0 1
M  V30 BEGIN ATOM
M  V30 1 C 12.485139 8.569301 -1.898710 0
M  V30 2 O 12.241679 9.597132 -2.932116 0
M  V30 3 C 11.863264 8.850414 -3.988359 0
M  V30 4 C 11.834839 7.518048 -3.781501 0
M  V30 5 C 11.434839 6.626065 -4.786572 0
M  V30 6 C 12.229370 7.089827 -2.437150 0
M  V30 7 C 11.515656 9.404957 -5.230980 0
M  V30 8 C 11.060504 7.129689 -6.052874 0
M  V30 9 N 10.677493 6.169303 -7.077556 0
M  V30 10 C 11.117546 8.548155 -6.282398 0
M  V30 11 C 9.915774 6.389716 -8.185518 0
M  V30 12 O 9.674148 5.512361 -9.004682 0
M  V30 13 N 9.434839 7.612727 -8.291667 0
M  V30 14 H 13.508312 8.665831 -1.537195 0
M  V30 15 H 11.834842 8.776279 -1.048946 0
M  V30 16 H 11.413249 5.566302 -4.593635 0
M  V30 17 H 11.415683 6.580370 -1.919566 0
M  V30 18 H 13.124293 6.469877 -2.455816 0
M  V30 19 H 11.558278 10.473517 -5.383213 0
M  V30 20 H 10.968885 5.216770 -6.918704 0
M  V30 21 H 10.886529 8.975863 -7.237463 0
M  V30 22 H 9.629735 8.293645 -7.580926 0
M  V30 23 H 8.804262 7.837457 -9.060790 0
M  V30 END ATOM
M  V30 BEGIN BOND
M  V30 1 1 2 1
M  V30 2 1 3 2
M  V30 3 2 4 3
M  V30 4 1 5 4
M  V30 5 1 6 1
M  V30 6 1 6 4
M  V30 7 1 7 3
M  V30 8 2 8 5
M  V30 9 1 9 8
M  V30 10 2 10 7
M  V30 11 1 10 8
M  V30 12 1 11 9
M  V30 13 2 12 11
M  V30 14 1 13 11
M  V30 15 1 14 1
M  V30 16 1 15 1
M  V30 17 1 16 5
M  V30 18 1 17 6
M  V30 19 1 18 6
M  V30 20 1 19 7
M  V30 21 1 20 9
M  V30 22 1 21 10
M  V30 23 1 22 13
M  V30 24 1 23 13
M  V30 END BOND
M  V30 END CTAB
M  END
>  <i_epik_Tot_Q>  (1) 
0

>  <i_epik_Tot_abs_Q>  (1) 
0

>  <i_i_glide_confnum>  (1) 
1

>  <i_i_glide_lignum>  (1) 
97

>  <i_i_glide_posenum>  (1) 
59

>  <i_i_glide_rotatable_bonds>  (1) 
2

>  <i_lp_mmshare_version>  (1) 
72125

>  <i_m_source_file_index>  (1) 
91

>  <i_f3d_flags>  (1) 
0

>  <num_sample>  (1) 
100

>  <b_lp_Chiralities_Consistent>  (1) 
1

>  <r_epik_Charging_Adjusted_Penalty>  (1) 
0

>  <r_epik_Ionization_Penalty>  (1) 
1.9038757045197726e-05

>  <r_epik_Ionization_Penalty_Charging>  (1) 
0

>  <r_epik_Ionization_Penalty_Neutral>  (1) 
1.9038757045197726e-05

>  <r_epik_State_Penalty>  (1) 
-0

>  <r_glide_ring_energy>  (1) 
0

>  <r_i_docking_score>  (1) 
-6.1467131770131873

>  <r_i_glide_ecoul>  (1) 
-2.3716434247919675

>  <r_i_glide_eff_state_penalty>  (1) 
-0

>  <r_i_glide_einternal>  (1) 
3.1762901549221567

>  <r_i_glide_emodel>  (1) 
-37.777634633014046

>  <r_i_glide_emodel_strain>  (1) 
0

>  <r_i_glide_energy>  (1) 
-28.53078613534916

>  <r_i_glide_erotb>  (1) 
0

>  <r_i_glide_esite>  (1) 
-0.13025973621008463

>  <r_i_glide_evdw>  (1) 
-26.159142710557191

>  <r_i_glide_gscore>  (1) 
-6.1467131770131873

>  <r_i_glide_gscore_strain>  (1) 
0

>  <r_i_glide_hbond>  (1) 
-0.1206099336332024

>  <r_i_glide_ligand_efficiency>  (1) 
-0.47282409053947594

>  <r_i_glide_ligand_efficiency_ln>  (1) 
-1.724207712557809

>  <r_i_glide_ligand_efficiency_sa>  (1) 
-1.1117676852754901

>  <r_i_glide_lipo>  (1) 
-2.3139817606081725

>  <r_i_glide_metal>  (1) 
-0

>  <r_i_glide_rewards>  (1) 
-1.9181580973150716

>  <r_lp_Energy>  (1) 
13.450968999999999

>  <r_lp_tautomer_probability>  (1) 
1

>  <s_epik_cmdline>  (1) 
J2VwaWtfcHl0aG9uJywgJy1waHQnLCAnMS4wJywgJy1waCcsICc3LjQnLCAnLXRuJywgJzgnLCAnLW1hJywgJzUwMCcsICctaW1hZScsICc8aW5maWxlLm1hZT4nLCAnLW9tYWUnLCAnPG91dGZpbGUubWFlPic=

>  <s_epik_input>  (1) 
TzFbQ0gyXVtDSDJdYyhjMTIpW2NIXWMoW2NIXVtjSF0yKVtOSF1DKD1PKVtOSDJd

>  <s_glide_docking_method>  (1) 
confgen

>  <s_i_glide_gridfile>  (1) 
gpcr_drd2_6luq_protein_autoprepared_prepared

>  <s_lp_Force_Field>  (1) 
S-OPLS

>  <s_lp_Variant>  (1) 
Pocket2Mol_90_num_sample_100-1

>  <s_m_source_file>  (1) 
generated__ligand_Pocket2Mol_2026-05-06_prepared.sdf

>  <GenAI_Model>  (1) 
Pocket2Mol

>  <Protein>  (1) 
generic_title2

$$$$
Pocket2Mol_92_num_sample_100
     RDKit          3D

  0  0  0  0  0  0  0  0  0  0999 V3000
M  V30 BEGIN CTAB
M  V30 COUNTS 26 27 0 0 1
M  V30 BEGIN ATOM
M  V30 1 C 11.912650 8.392266 -9.525753 0
M  V30 2 O 10.933654 7.369008 -9.559203 0
M  V30 3 C 12.634835 8.443828 -8.175850 0
M  V30 4 O 11.858500 9.197158 -7.261577 0
M  V30 5 C 9.834851 7.564969 -8.678640 0
M  V30 6 C 10.887232 8.486663 -6.502023 0 CFG=2
M  V30 7 C 11.403842 8.207454 -5.091673 0
M  V30 8 C 10.225820 7.281574 -7.221152 0
M  V30 9 C 11.834827 9.269999 -4.273082 0
M  V30 10 N 11.412572 6.910649 -4.692581 0
M  V30 11 C 11.834844 6.652747 -3.432793 0
M  V30 12 C 12.280366 7.648496 -2.544860 0
M  V30 13 C 12.282792 8.981632 -2.974870 0
M  V30 14 H 11.480450 9.360725 -9.781113 0
M  V30 15 H 12.637375 8.161875 -10.306464 0
M  V30 16 H 13.580007 8.969294 -8.305920 0
M  V30 17 H 12.890016 7.453856 -7.800370 0
M  V30 18 H 9.399635 8.558763 -8.795938 0
M  V30 19 H 9.063537 6.853367 -8.975020 0
M  V30 20 H 10.869140 6.400907 -7.202361 0
M  V30 21 H 9.329043 7.004825 -6.664099 0
M  V30 22 H 11.814439 10.285914 -4.637243 0
M  V30 23 H 11.825109 5.620210 -3.127640 0
M  V30 24 H 12.614392 7.390237 -1.551446 0
M  V30 25 H 12.617931 9.769459 -2.319122 0
M  V30 26 H 10.091839 9.217164 -6.354243 0
M  V30 END ATOM
M  V30 BEGIN BOND
M  V30 1 1 2 1
M  V30 2 1 3 1
M  V30 3 1 4 3
M  V30 4 1 5 2
M  V30 5 1 6 4
M  V30 6 1 7 6
M  V30 7 1 8 5
M  V30 8 1 8 6
M  V30 9 1 9 7
M  V30 10 2 10 7
M  V30 11 1 11 10
M  V30 12 2 12 11
M  V30 13 2 13 9
M  V30 14 1 13 12
M  V30 15 1 14 1
M  V30 16 1 15 1
M  V30 17 1 16 3
M  V30 18 1 17 3
M  V30 19 1 18 5
M  V30 20 1 19 5
M  V30 21 1 20 8
M  V30 22 1 21 8
M  V30 23 1 22 9
M  V30 24 1 23 11
M  V30 25 1 24 12
M  V30 26 1 25 13
M  V30 27 1 6 26 CFG=1
M  V30 END BOND
M  V30 END CTAB
M  END
>  <i_epik_Tot_Q>  (1) 
0

>  <i_epik_Tot_abs_Q>  (1) 
0

>  <i_i_glide_confnum>  (1) 
14

>  <i_i_glide_lignum>  (1) 
101

>  <i_i_glide_posenum>  (1) 
292

>  <i_i_glide_rotatable_bonds>  (1) 
1

>  <i_lp_mmshare_version>  (1) 
72125

>  <i_m_source_file_index>  (1) 
93

>  <i_f3d_flags>  (1) 
0

>  <num_sample>  (1) 
100

>  <b_lp_Chiralities_Consistent>  (1) 
1

>  <r_epik_Charging_Adjusted_Penalty>  (1) 
0.0037896276157117258

>  <r_epik_Ionization_Penalty>  (1) 
0.0037896276174286705

>  <r_epik_Ionization_Penalty_Charging>  (1) 
0

>  <r_epik_Ionization_Penalty_Neutral>  (1) 
0.0037896276174286705

>  <r_epik_State_Penalty>  (1) 
0.0037896276157117258

>  <r_glide_ring_energy>  (1) 
1.3082536976643624

>  <r_i_docking_score>  (1) 
-6.1463383569646242

>  <r_i_glide_ecoul>  (1) 
-1.0035772262516733

>  <r_i_glide_eff_state_penalty>  (1) 
0.0037896276157117258

>  <r_i_glide_einternal>  (1) 
8.2285429408721242

>  <r_i_glide_emodel>  (1) 
-29.377323869343908

>  <r_i_glide_emodel_strain>  (1) 
4.1257431711416963

>  <r_i_glide_energy>  (1) 
-28.871966683765606

>  <r_i_glide_erotb>  (1) 
0.4895878840251785

>  <r_i_glide_esite>  (1) 
0

>  <r_i_glide_evdw>  (1) 
-27.868389457513931

>  <r_i_glide_gscore>  (1) 
-6.1501279845803358

>  <r_i_glide_gscore_strain>  (1) 
0.031435792785424077

>  <r_i_glide_hbond>  (1) 
0

>  <r_i_glide_ligand_efficiency>  (1) 
-0.47279525822804802

>  <r_i_glide_ligand_efficiency_ln>  (1) 
-1.7241025722006877

>  <r_i_glide_ligand_efficiency_sa>  (1) 
-1.1116998908615023

>  <r_i_glide_lipo>  (1) 
-2.2409055059725866

>  <r_i_glide_metal>  (1) 
-0

>  <r_i_glide_rewards>  (1) 
-2.8862900986049054

>  <r_lp_Energy>  (1) 
20.663057999999999

>  <s_epik_cmdline>  (1) 
J2VwaWtfcHl0aG9uJywgJy1waHQnLCAnMS4wJywgJy1waCcsICc3LjQnLCAnLXRuJywgJzgnLCAnLW1hJywgJzUwMCcsICctaW1hZScsICc8aW5maWxlLm1hZT4nLCAnLW9tYWUnLCAnPG91dGZpbGUubWFlPic=

>  <s_epik_input>  (1) 
W0NIMl0xW0NIMl1PW0NIMl1bQ0gyXU8vQzE9QzJcW0NIXT1bQ0hdW0NIXT1bQ0hdW05IXTI=

>  <s_glide_docking_method>  (1) 
confgen

>  <s_i_glide_gridfile>  (1) 
gpcr_drd2_6luq_protein_autoprepared_prepared

>  <s_lp_Force_Field>  (1) 
S-OPLS

>  <s_lp_Variant>  (1) 
Pocket2Mol_92_num_sample_100-2

>  <s_m_source_file>  (1) 
generated__ligand_Pocket2Mol_2026-05-06_prepared.sdf

>  <GenAI_Model>  (1) 
Pocket2Mol

>  <Protein>  (1) 
generic_title2

$$$$
Pocket2Mol_37_num_sample_100
     RDKit          3D

  0  0  0  0  0  0  0  0  0  0999 V3000
M  V30 BEGIN CTAB
M  V30 COUNTS 17 18 0 0 1
M  V30 BEGIN ATOM
M  V30 1 C 12.634861 8.352703 -2.023348 0
M  V30 2 O 12.516967 9.368991 -2.923343 0
M  V30 3 C 12.022868 8.791976 -4.052562 0
M  V30 4 C 11.834839 7.468780 -3.899987 0
M  V30 5 C 11.291950 6.569312 -4.951626 0
M  V30 6 C 11.770209 9.658985 -5.213519 0
M  V30 7 C 12.234548 7.170373 -2.572946 0
M  V30 8 C 11.182786 8.759179 -6.324606 0
M  V30 9 C 10.974096 7.409749 -6.210925 0
M  V30 10 H 13.015552 8.639364 -1.054711 0
M  V30 11 H 10.376095 6.099975 -4.592374 0
M  V30 12 H 12.007068 5.783315 -5.192583 0
M  V30 13 H 12.693502 10.121802 -5.560644 0
M  V30 14 H 11.062178 10.448850 -4.960922 0
M  V30 15 H 12.224934 6.209978 -2.078265 0
M  V30 16 H 10.926413 9.252875 -7.249241 0
M  V30 17 H 10.556260 6.870319 -7.048770 0
M  V30 END ATOM
M  V30 BEGIN BOND
M  V30 1 1 2 1
M  V30 2 1 3 2
M  V30 3 2 4 3
M  V30 4 1 5 4
M  V30 5 1 6 3
M  V30 6 2 7 1
M  V30 7 1 7 4
M  V30 8 1 8 6
M  V30 9 1 9 5
M  V30 10 2 9 8
M  V30 11 1 10 1
M  V30 12 1 11 5
M  V30 13 1 12 5
M  V30 14 1 13 6
M  V30 15 1 14 6
M  V30 16 1 15 7
M  V30 17 1 16 8
M  V30 18 1 17 9
M  V30 END BOND
M  V30 END CTAB
M  END
>  <i_epik_Tot_Q>  (1) 
0

>  <i_epik_Tot_abs_Q>  (1) 
0

>  <i_i_glide_confnum>  (1) 
1

>  <i_i_glide_lignum>  (1) 
42

>  <i_i_glide_posenum>  (1) 
7

>  <i_i_glide_rotatable_bonds>  (1) 
0

>  <i_lp_mmshare_version>  (1) 
72125

>  <i_m_source_file_index>  (1) 
38

>  <i_f3d_flags>  (1) 
0

>  <num_sample>  (1) 
100

>  <b_lp_Chiralities_Consistent>  (1) 
1

>  <r_epik_Charging_Adjusted_Penalty>  (1) 
0

>  <r_epik_Ionization_Penalty>  (1) 
0

>  <r_epik_Ionization_Penalty_Charging>  (1) 
0

>  <r_epik_Ionization_Penalty_Neutral>  (1) 
0

>  <r_epik_State_Penalty>  (1) 
-0

>  <r_glide_ring_energy>  (1) 
0

>  <r_i_docking_score>  (1) 
-6.1425209896011994

>  <r_i_glide_ecoul>  (1) 
-0.80013677630071212

>  <r_i_glide_eff_state_penalty>  (1) 
-0

>  <r_i_glide_einternal>  (1) 
0

>  <r_i_glide_emodel>  (1) 
-30.046883302488805

>  <r_i_glide_emodel_strain>  (1) 
0

>  <r_i_glide_energy>  (1) 
-21.964160394264546

>  <r_i_glide_erotb>  (1) 
0

>  <r_i_glide_esite>  (1) 
0

>  <r_i_glide_evdw>  (1) 
-21.164023617963835

>  <r_i_glide_gscore>  (1) 
-6.1425209896011994

>  <r_i_glide_gscore_strain>  (1) 
0

>  <r_i_glide_hbond>  (1) 
0

>  <r_i_glide_ligand_efficiency>  (1) 
-0.68250233217791101

>  <r_i_glide_ligand_efficiency_ln>  (1) 
-1.9212041071943922

>  <r_i_glide_ligand_efficiency_sa>  (1) 
-1.41966206035847

>  <r_i_glide_lipo>  (1) 
-2.2976326255912336

>  <r_i_glide_metal>  (1) 
-0

>  <r_i_glide_rewards>  (1) 
-2.6666666666666665

>  <r_lp_Energy>  (1) 
4.5932930000000001

>  <r_lp_tautomer_probability>  (1) 
1

>  <s_epik_cmdline>  (1) 
J2VwaWtfcHl0aG9uJywgJy1waHQnLCAnMS4wJywgJy1waCcsICc3LjQnLCAnLXRuJywgJzgnLCAnLW1hJywgJzUwMCcsICctaW1hZScsICc8aW5maWxlLm1hZT4nLCAnLW9tYWUnLCAnPG91dGZpbGUubWFlPic=

>  <s_epik_input>  (1) 
bzFbY0hdW2NIXWMoYzEyKVtDSDJdW0NIXT1bQ0hdW0NIMl0y

>  <s_glide_docking_method>  (1) 
confgen

>  <s_i_glide_gridfile>  (1) 
gpcr_drd2_6luq_protein_autoprepared_prepared

>  <s_lp_Force_Field>  (1) 
S-OPLS

>  <s_lp_Variant>  (1) 
Pocket2Mol_37_num_sample_100-1

>  <s_m_source_file>  (1) 
generated__ligand_Pocket2Mol_2026-05-06_prepared.sdf

>  <GenAI_Model>  (1) 
Pocket2Mol

>  <Protein>  (1) 
generic_title2

$$$$
Pocket2Mol_67_num_sample_100
     RDKit          3D

  0  0  0  0  0  0  0  0  0  0999 V3000
M  V30 BEGIN CTAB
M  V30 COUNTS 21 22 0 0 1
M  V30 BEGIN ATOM
M  V30 1 C 9.863409 6.817699 -8.047871 0
M  V30 2 O 9.987061 6.326160 -6.722456 0
M  V30 3 C 10.712836 7.102530 -5.847507 0
M  V30 4 C 9.593311 8.324833 -8.006019 0
M  V30 5 O 10.701074 8.969301 -7.395782 0
M  V30 6 C 11.071086 8.436716 -6.186026 0
M  V30 7 C 11.814564 9.217560 -5.277032 0
M  V30 8 C 11.098371 6.569389 -4.607203 0
M  V30 9 C 11.837207 7.352464 -3.698004 0
M  V30 10 C 12.244248 6.771549 -2.362932 0
M  V30 11 C 12.196818 8.676214 -4.032687 0
M  V30 12 H 9.034852 6.304561 -8.537560 0
M  V30 13 H 10.770051 6.581090 -8.609501 0
M  V30 14 H 8.690743 8.555773 -7.439691 0
M  V30 15 H 9.451831 8.715792 -9.012721 0
M  V30 16 H 12.089013 10.231000 -5.533456 0
M  V30 17 H 10.825559 5.562257 -4.348639 0
M  V30 18 H 11.729005 5.827247 -2.170985 0
M  V30 19 H 13.318113 6.581904 -2.353629 0
M  V30 20 H 11.990891 7.465005 -1.559416 0
M  V30 21 H 12.765387 9.275356 -3.335265 0
M  V30 END ATOM
M  V30 BEGIN BOND
M  V30 1 1 2 1
M  V30 2 1 3 2
M  V30 3 1 4 1
M  V30 4 1 5 4
M  V30 5 2 6 3
M  V30 6 1 6 5
M  V30 7 1 7 6
M  V30 8 1 8 3
M  V30 9 2 9 8
M  V30 10 1 10 9
M  V30 11 2 11 7
M  V30 12 1 11 9
M  V30 13 1 12 1
M  V30 14 1 13 1
M  V30 15 1 14 4
M  V30 16 1 15 4
M  V30 17 1 16 7
M  V30 18 1 17 8
M  V30 19 1 18 10
M  V30 20 1 19 10
M  V30 21 1 20 10
M  V30 22 1 21 11
M  V30 END BOND
M  V30 END CTAB
M  END
>  <i_epik_Tot_Q>  (1) 
0

>  <i_epik_Tot_abs_Q>  (1) 
0

>  <i_i_glide_confnum>  (1) 
1

>  <i_i_glide_lignum>  (1) 
74

>  <i_i_glide_posenum>  (1) 
252

>  <i_i_glide_rotatable_bonds>  (1) 
0

>  <i_lp_mmshare_version>  (1) 
72125

>  <i_m_source_file_index>  (1) 
68

>  <i_f3d_flags>  (1) 
0

>  <num_sample>  (1) 
100

>  <b_lp_Chiralities_Consistent>  (1) 
1

>  <r_epik_Charging_Adjusted_Penalty>  (1) 
0

>  <r_epik_Ionization_Penalty>  (1) 
0

>  <r_epik_Ionization_Penalty_Charging>  (1) 
0

>  <r_epik_Ionization_Penalty_Neutral>  (1) 
0

>  <r_epik_State_Penalty>  (1) 
-0

>  <r_glide_ring_energy>  (1) 
0

>  <r_i_docking_score>  (1) 
-6.1411698196165805

>  <r_i_glide_ecoul>  (1) 
-1.3240727009328628

>  <r_i_glide_eff_state_penalty>  (1) 
-0

>  <r_i_glide_einternal>  (1) 
0

>  <r_i_glide_emodel>  (1) 
-28.5239606760647

>  <r_i_glide_emodel_strain>  (1) 
0.0010958159401468492

>  <r_i_glide_energy>  (1) 
-20.635322539053369

>  <r_i_glide_erotb>  (1) 
0

>  <r_i_glide_esite>  (1) 
0

>  <r_i_glide_evdw>  (1) 
-19.311249838120506

>  <r_i_glide_gscore>  (1) 
-6.1411698196165805

>  <r_i_glide_gscore_strain>  (1) 
0

>  <r_i_glide_hbond>  (1) 
0

>  <r_i_glide_ligand_efficiency>  (1) 
-0.55828816541968918

>  <r_i_glide_ligand_efficiency_ln>  (1) 
-1.8073452318496439

>  <r_i_glide_ligand_efficiency_sa>  (1) 
-1.2416217646938574

>  <r_i_glide_lipo>  (1) 
-1.9828155556064468

>  <r_i_glide_metal>  (1) 
-0

>  <r_i_glide_rewards>  (1) 
-2.9941808669641787

>  <r_lp_Energy>  (1) 
14.201067

>  <r_lp_tautomer_probability>  (1) 
1

>  <s_epik_cmdline>  (1) 
J2VwaWtfcHl0aG9uJywgJy1waHQnLCAnMS4wJywgJy1waCcsICc3LjQnLCAnLXRuJywgJzgnLCAnLW1hJywgJzUwMCcsICctaW1hZScsICc8aW5maWxlLm1hZT4nLCAnLW9tYWUnLCAnPG91dGZpbGUubWFlPic=

>  <s_epik_input>  (1) 
TzFbQ0gyXVtDSDJdT2MoYzEyKVtjSF1bY0hdYyhbY0hdMilbQ0gzXQ==

>  <s_glide_docking_method>  (1) 
confgen

>  <s_i_glide_gridfile>  (1) 
gpcr_drd2_6luq_protein_autoprepared_prepared

>  <s_lp_Force_Field>  (1) 
S-OPLS

>  <s_lp_Variant>  (1) 
Pocket2Mol_67_num_sample_100-1

>  <s_m_source_file>  (1) 
generated__ligand_Pocket2Mol_2026-05-06_prepared.sdf

>  <GenAI_Model>  (1) 
Pocket2Mol

>  <Protein>  (1) 
generic_title2

$$$$
Pocket2Mol_62_num_sample_100
     RDKit          3D

  0  0  0  0  0  0  0  0  0  0999 V3000
M  V30 BEGIN CTAB
M  V30 COUNTS 21 22 0 0 1
M  V30 BEGIN ATOM
M  V30 1 C 9.895018 7.695016 -7.519228 0
M  V30 2 O 10.517554 8.969322 -7.107033 0
M  V30 3 C 11.069669 8.647039 -5.921975 0
M  V30 4 C 10.910675 7.367282 -5.532900 0
M  V30 5 C 11.434843 6.895717 -4.319161 0
M  V30 6 C 12.152351 7.798736 -3.484396 0
M  V30 7 O 12.682328 7.394206 -2.280687 0
M  V30 8 C 10.153732 6.529587 -6.463519 0
M  V30 9 C 11.767306 9.570045 -5.128648 0
M  V30 10 C 12.314308 9.142448 -3.897769 0
M  V30 11 C 12.595584 6.028501 -1.912407 0
M  V30 12 H 10.282594 7.409902 -8.497241 0
M  V30 13 H 8.822714 7.851680 -7.639188 0
M  V30 14 H 11.288147 5.865788 -4.031293 0
M  V30 15 H 10.768688 5.723206 -6.862510 0
M  V30 16 H 9.230870 6.159854 -6.017661 0
M  V30 17 H 11.882843 10.592357 -5.454908 0
M  V30 18 H 12.853596 9.836793 -3.272461 0
M  V30 19 H 13.202624 5.837649 -1.032120 0
M  V30 20 H 11.563715 5.769301 -1.677963 0
M  V30 21 H 12.976506 5.369302 -2.691411 0
M  V30 END ATOM
M  V30 BEGIN BOND
M  V30 1 1 2 1
M  V30 2 1 3 2
M  V30 3 2 4 3
M  V30 4 1 5 4
M  V30 5 2 6 5
M  V30 6 1 7 6
M  V30 7 1 8 1
M  V30 8 1 8 4
M  V30 9 1 9 3
M  V30 10 1 10 6
M  V30 11 2 10 9
M  V30 12 1 11 7
M  V30 13 1 12 1
M  V30 14 1 13 1
M  V30 15 1 14 5
M  V30 16 1 15 8
M  V30 17 1 16 8
M  V30 18 1 17 9
M  V30 19 1 18 10
M  V30 20 1 19 11
M  V30 21 1 20 11
M  V30 22 1 21 11
M  V30 END BOND
M  V30 END CTAB
M  END
>  <i_epik_Tot_Q>  (1) 
0

>  <i_epik_Tot_abs_Q>  (1) 
0

>  <i_i_glide_confnum>  (1) 
1

>  <i_i_glide_lignum>  (1) 
69

>  <i_i_glide_posenum>  (1) 
26

>  <i_i_glide_rotatable_bonds>  (1) 
1

>  <i_lp_mmshare_version>  (1) 
72125

>  <i_m_source_file_index>  (1) 
63

>  <i_f3d_flags>  (1) 
0

>  <num_sample>  (1) 
100

>  <b_lp_Chiralities_Consistent>  (1) 
1

>  <r_epik_Charging_Adjusted_Penalty>  (1) 
0

>  <r_epik_Ionization_Penalty>  (1) 
0

>  <r_epik_Ionization_Penalty_Charging>  (1) 
0

>  <r_epik_Ionization_Penalty_Neutral>  (1) 
0

>  <r_epik_State_Penalty>  (1) 
-0

>  <r_glide_ring_energy>  (1) 
0

>  <r_i_docking_score>  (1) 
-6.1406175431734873

>  <r_i_glide_ecoul>  (1) 
-2.1198174069724915

>  <r_i_glide_eff_state_penalty>  (1) 
-0

>  <r_i_glide_einternal>  (1) 
3.3533095355760532

>  <r_i_glide_emodel>  (1) 
-30.399337319872632

>  <r_i_glide_emodel_strain>  (1) 
0

>  <r_i_glide_energy>  (1) 
-23.381468373625012

>  <r_i_glide_erotb>  (1) 
0

>  <r_i_glide_esite>  (1) 
0

>  <r_i_glide_evdw>  (1) 
-21.261650966652521

>  <r_i_glide_gscore>  (1) 
-6.1406175431734873

>  <r_i_glide_gscore_strain>  (1) 
0

>  <r_i_glide_hbond>  (1) 
0

>  <r_i_glide_ligand_efficiency>  (1) 
-0.55823795847031699

>  <r_i_glide_ligand_efficiency_ln>  (1) 
-1.8071826969865143

>  <r_i_glide_ligand_efficiency_sa>  (1) 
-1.2415101054380455

>  <r_i_glide_lipo>  (1) 
-2.0025043908252824

>  <r_i_glide_metal>  (1) 
-0

>  <r_i_glide_rewards>  (1) 
-2.7570579929697048

>  <r_lp_Energy>  (1) 
15.977421

>  <r_lp_tautomer_probability>  (1) 
1

>  <s_epik_cmdline>  (1) 
J2VwaWtfcHl0aG9uJywgJy1waHQnLCAnMS4wJywgJy1waCcsICc3LjQnLCAnLXRuJywgJzgnLCAnLW1hJywgJzUwMCcsICctaW1hZScsICc8aW5maWxlLm1hZT4nLCAnLW9tYWUnLCAnPG91dGZpbGUubWFlPic=

>  <s_epik_input>  (1) 
TzFbQ0gyXVtDSDJdYyhjMTIpW2NIXWMoT1tDSDNdKVtjSF1bY0hdMg==

>  <s_glide_docking_method>  (1) 
confgen

>  <s_i_glide_gridfile>  (1) 
gpcr_drd2_6luq_protein_autoprepared_prepared

>  <s_lp_Force_Field>  (1) 
S-OPLS

>  <s_lp_Variant>  (1) 
Pocket2Mol_62_num_sample_100-1

>  <s_m_source_file>  (1) 
generated__ligand_Pocket2Mol_2026-05-06_prepared.sdf

>  <GenAI_Model>  (1) 
Pocket2Mol

>  <Protein>  (1) 
generic_title2

$$$$
Pocket2Mol_62_num_sample_100
     RDKit          3D

  0  0  0  0  0  0  0  0  0  0999 V3000
M  V30 BEGIN CTAB
M  V30 COUNTS 21 22 0 0 1
M  V30 BEGIN ATOM
M  V30 1 C 12.496017 8.463152 -1.984645 0
M  V30 2 O 12.234785 9.517133 -2.987042 0
M  V30 3 C 11.835345 8.797187 -4.055927 0
M  V30 4 C 11.834840 7.457554 -3.891668 0
M  V30 5 C 11.434723 6.590623 -4.920080 0
M  V30 6 C 11.018420 7.134011 -6.156525 0
M  V30 7 O 10.619113 6.287907 -7.170469 0
M  V30 8 C 12.269671 6.994767 -2.571173 0
M  V30 9 C 11.434839 9.383974 -5.268401 0
M  V30 10 C 11.021087 8.549408 -6.331897 0
M  V30 11 C 9.889001 6.823270 -8.267114 0
M  V30 12 H 11.834856 8.630525 -1.133518 0
M  V30 13 H 13.513912 8.569506 -1.611034 0
M  V30 14 H 11.439409 5.524551 -4.766934 0
M  V30 15 H 11.487288 6.437529 -2.054162 0
M  V30 16 H 13.186477 6.410815 -2.634039 0
M  V30 17 H 11.439732 10.457795 -5.384951 0
M  V30 18 H 10.710281 8.987114 -7.267117 0
M  V30 19 H 9.501503 6.005207 -8.874177 0
M  V30 20 H 9.034839 7.413754 -7.932414 0
M  V30 21 H 10.524221 7.434878 -8.908584 0
M  V30 END ATOM
M  V30 BEGIN BOND
M  V30 1 1 2 1
M  V30 2 1 3 2
M  V30 3 2 4 3
M  V30 4 1 5 4
M  V30 5 2 6 5
M  V30 6 1 7 6
M  V30 7 1 8 1
M  V30 8 1 8 4
M  V30 9 1 9 3
M  V30 10 1 10 6
M  V30 11 2 10 9
M  V30 12 1 11 7
M  V30 13 1 12 1
M  V30 14 1 13 1
M  V30 15 1 14 5
M  V30 16 1 15 8
M  V30 17 1 16 8
M  V30 18 1 17 9
M  V30 19 1 18 10
M  V30 20 1 19 11
M  V30 21 1 20 11
M  V30 22 1 21 11
M  V30 END BOND
M  V30 END CTAB
M  END
>  <i_epik_Tot_Q>  (1) 
0

>  <i_epik_Tot_abs_Q>  (1) 
0

>  <i_i_glide_confnum>  (1) 
1

>  <i_i_glide_lignum>  (1) 
69

>  <i_i_glide_posenum>  (1) 
14

>  <i_i_glide_rotatable_bonds>  (1) 
1

>  <i_lp_mmshare_version>  (1) 
72125

>  <i_m_source_file_index>  (1) 
63

>  <i_f3d_flags>  (1) 
0

>  <num_sample>  (1) 
100

>  <b_lp_Chiralities_Consistent>  (1) 
1

>  <r_epik_Charging_Adjusted_Penalty>  (1) 
0

>  <r_epik_Ionization_Penalty>  (1) 
0

>  <r_epik_Ionization_Penalty_Charging>  (1) 
0

>  <r_epik_Ionization_Penalty_Neutral>  (1) 
0

>  <r_epik_State_Penalty>  (1) 
-0

>  <r_glide_ring_energy>  (1) 
0

>  <r_i_docking_score>  (1) 
-6.1380939977400004

>  <r_i_glide_ecoul>  (1) 
-0.76891768583670073

>  <r_i_glide_eff_state_penalty>  (1) 
-0

>  <r_i_glide_einternal>  (1) 
0.098552031982421351

>  <r_i_glide_emodel>  (1) 
-31.439152907133625

>  <r_i_glide_emodel_strain>  (1) 
0.0011872889518969032

>  <r_i_glide_energy>  (1) 
-22.798665595609958

>  <r_i_glide_erotb>  (1) 
0

>  <r_i_glide_esite>  (1) 
0

>  <r_i_glide_evdw>  (1) 
-22.029747909773256

>  <r_i_glide_gscore>  (1) 
-6.1380939977400004

>  <r_i_glide_gscore_strain>  (1) 
0

>  <r_i_glide_hbond>  (1) 
0

>  <r_i_glide_ligand_efficiency>  (1) 
-0.55800854524909094

>  <r_i_glide_ligand_efficiency_ln>  (1) 
-1.8064400179952902

>  <r_i_glide_ligand_efficiency_sa>  (1) 
-1.2409998950015255

>  <r_i_glide_lipo>  (1) 
-2.2500248738700415

>  <r_i_glide_metal>  (1) 
-0

>  <r_i_glide_rewards>  (1) 
-2.6712440755057916

>  <r_lp_Energy>  (1) 
15.977421

>  <r_lp_tautomer_probability>  (1) 
1

>  <s_epik_cmdline>  (1) 
J2VwaWtfcHl0aG9uJywgJy1waHQnLCAnMS4wJywgJy1waCcsICc3LjQnLCAnLXRuJywgJzgnLCAnLW1hJywgJzUwMCcsICctaW1hZScsICc8aW5maWxlLm1hZT4nLCAnLW9tYWUnLCAnPG91dGZpbGUubWFlPic=

>  <s_epik_input>  (1) 
TzFbQ0gyXVtDSDJdYyhjMTIpW2NIXWMoT1tDSDNdKVtjSF1bY0hdMg==

>  <s_glide_docking_method>  (1) 
confgen

>  <s_i_glide_gridfile>  (1) 
gpcr_drd2_6luq_protein_autoprepared_prepared

>  <s_lp_Force_Field>  (1) 
S-OPLS

>  <s_lp_Variant>  (1) 
Pocket2Mol_62_num_sample_100-1

>  <s_m_source_file>  (1) 
generated__ligand_Pocket2Mol_2026-05-06_prepared.sdf

>  <GenAI_Model>  (1) 
Pocket2Mol

>  <Protein>  (1) 
generic_title2

$$$$
Pocket2Mol_70_num_sample_100
     RDKit          3D

  0  0  0  0  0  0  0  0  0  0999 V3000
M  V30 BEGIN CTAB
M  V30 COUNTS 20 21 0 0 1
M  V30 BEGIN ATOM
M  V30 1 C 10.126897 7.065356 -7.321284 0
M  V30 2 O 10.247279 6.519196 -6.016113 0
M  V30 3 C 11.034839 7.171792 -5.091834 0
M  V30 4 C 11.434839 8.512429 -5.294719 0
M  V30 5 C 12.234839 9.157600 -4.331929 0
M  V30 6 C 11.434839 6.497121 -3.929151 0
M  V30 7 C 12.234839 7.142031 -2.972272 0
M  V30 8 C 11.017759 9.251130 -6.542817 0
M  V30 9 F 12.626540 6.477900 -1.864986 0
M  V30 10 C 12.634162 8.473406 -3.170967 0
M  V30 11 C 9.845707 8.560747 -7.243583 0
M  V30 12 H 11.037984 6.866468 -7.887499 0
M  V30 13 H 9.311288 6.557138 -7.836973 0
M  V30 14 H 12.546693 10.169303 -4.488324 0
M  V30 15 H 11.129917 5.478147 -3.773403 0
M  V30 16 H 10.759214 10.278363 -6.289446 0
M  V30 17 H 11.876480 9.294790 -7.213582 0
M  V30 18 H 13.250948 8.969262 -2.435073 0
M  V30 19 H 9.683622 8.969301 -8.240743 0
M  V30 20 H 8.922097 8.717746 -6.684344 0
M  V30 END ATOM
M  V30 BEGIN BOND
M  V30 1 1 2 1
M  V30 2 1 3 2
M  V30 3 2 4 3
M  V30 4 1 5 4
M  V30 5 1 6 3
M  V30 6 2 7 6
M  V30 7 1 8 4
M  V30 8 1 9 7
M  V30 9 2 10 5
M  V30 10 1 10 7
M  V30 11 1 11 1
M  V30 12 1 11 8
M  V30 13 1 12 1
M  V30 14 1 13 1
M  V30 15 1 14 5
M  V30 16 1 15 6
M  V30 17 1 16 8
M  V30 18 1 17 8
M  V30 19 1 18 10
M  V30 20 1 19 11
M  V30 21 1 20 11
M  V30 END BOND
M  V30 END CTAB
M  END
>  <i_epik_Tot_Q>  (1) 
0

>  <i_epik_Tot_abs_Q>  (1) 
0

>  <i_i_glide_confnum>  (1) 
2

>  <i_i_glide_lignum>  (1) 
77

>  <i_i_glide_posenum>  (1) 
8

>  <i_i_glide_rotatable_bonds>  (1) 
0

>  <i_lp_mmshare_version>  (1) 
72125

>  <i_m_source_file_index>  (1) 
71

>  <i_f3d_flags>  (1) 
0

>  <num_sample>  (1) 
100

>  <b_lp_Chiralities_Consistent>  (1) 
1

>  <r_epik_Charging_Adjusted_Penalty>  (1) 
0

>  <r_epik_Ionization_Penalty>  (1) 
0

>  <r_epik_Ionization_Penalty_Charging>  (1) 
0

>  <r_epik_Ionization_Penalty_Neutral>  (1) 
0

>  <r_epik_State_Penalty>  (1) 
-0

>  <r_glide_ring_energy>  (1) 
0.00062641908125231891

>  <r_i_docking_score>  (1) 
-6.1359934632269537

>  <r_i_glide_ecoul>  (1) 
-0.16036329125093329

>  <r_i_glide_eff_state_penalty>  (1) 
-0

>  <r_i_glide_einternal>  (1) 
0

>  <r_i_glide_emodel>  (1) 
-28.400076160836356

>  <r_i_glide_emodel_strain>  (1) 
0

>  <r_i_glide_energy>  (1) 
-20.258869925727609

>  <r_i_glide_erotb>  (1) 
0

>  <r_i_glide_esite>  (1) 
0

>  <r_i_glide_evdw>  (1) 
-20.098506634476674

>  <r_i_glide_gscore>  (1) 
-6.1359934632269537

>  <r_i_glide_gscore_strain>  (1) 
0

>  <r_i_glide_hbond>  (1) 
0

>  <r_i_glide_ligand_efficiency>  (1) 
-0.55781758756608668

>  <r_i_glide_ligand_efficiency_ln>  (1) 
-1.8058218310458978

>  <r_i_glide_ligand_efficiency_sa>  (1) 
-1.2405752089163828

>  <r_i_glide_lipo>  (1) 
-1.9871760356837895

>  <r_i_glide_metal>  (1) 
-0

>  <r_i_glide_rewards>  (1) 
-3.1198376021316898

>  <r_lp_Energy>  (1) 
13.183325999999999

>  <r_lp_tautomer_probability>  (1) 
1

>  <s_epik_cmdline>  (1) 
J2VwaWtfcHl0aG9uJywgJy1waHQnLCAnMS4wJywgJy1waCcsICc3LjQnLCAnLXRuJywgJzgnLCAnLW1hJywgJzUwMCcsICctaW1hZScsICc8aW5maWxlLm1hZT4nLCAnLW9tYWUnLCAnPG91dGZpbGUubWFlPic=

>  <s_epik_input>  (1) 
TzFbQ0gyXVtDSDJdW0NIMl1jKGMxMilbY0hdW2NIXWMoRilbY0hdMg==

>  <s_glide_docking_method>  (1) 
confgen

>  <s_i_glide_gridfile>  (1) 
gpcr_drd2_6luq_protein_autoprepared_prepared

>  <s_lp_Force_Field>  (1) 
S-OPLS

>  <s_lp_Variant>  (1) 
Pocket2Mol_70_num_sample_100-1

>  <s_m_source_file>  (1) 
generated__ligand_Pocket2Mol_2026-05-06_prepared.sdf

>  <GenAI_Model>  (1) 
Pocket2Mol

>  <Protein>  (1) 
generic_title2

$$$$
Pocket2Mol_49_num_sample_100
     RDKit          3D

  0  0  0  0  0  0  0  0  0  0999 V3000
M  V30 BEGIN CTAB
M  V30 COUNTS 20 21 0 0 1
M  V30 BEGIN ATOM
M  V30 1 C 10.271776 6.568318 -6.921217 0
M  V30 2 O 11.044564 6.174634 -5.791358 0
M  V30 3 C 11.431563 7.158740 -4.907793 0
M  V30 4 C 11.434839 8.522805 -5.298208 0
M  V30 5 C 11.834839 9.511108 -4.383688 0
M  V30 6 C 11.834838 6.804298 -3.604522 0
M  V30 7 C 12.235052 7.798486 -2.693595 0
M  V30 8 C 11.010930 8.921119 -6.698040 0
M  V30 9 C 12.234838 9.149956 -3.082139 0
M  V30 10 C 10.948077 7.728004 -7.645377 0
M  V30 11 H 10.175414 5.713018 -7.590213 0
M  V30 12 H 9.262730 6.837834 -6.603655 0
M  V30 13 H 11.834841 10.549246 -4.682206 0
M  V30 14 H 11.834771 5.769301 -3.304246 0
M  V30 15 H 12.542198 7.523945 -1.695530 0
M  V30 16 H 10.020460 9.369307 -6.627422 0
M  V30 17 H 11.684033 9.683391 -7.091642 0
M  V30 18 H 12.540435 9.910243 -2.381069 0
M  V30 19 H 11.954841 7.428481 -7.938482 0
M  V30 20 H 10.411656 7.989910 -8.558089 0
M  V30 END ATOM
M  V30 BEGIN BOND
M  V30 1 1 2 1
M  V30 2 1 3 2
M  V30 3 1 4 3
M  V30 4 2 5 4
M  V30 5 2 6 3
M  V30 6 1 7 6
M  V30 7 1 8 4
M  V30 8 1 9 5
M  V30 9 2 9 7
M  V30 10 1 10 1
M  V30 11 1 10 8
M  V30 12 1 11 1
M  V30 13 1 12 1
M  V30 14 1 13 5
M  V30 15 1 14 6
M  V30 16 1 15 7
M  V30 17 1 16 8
M  V30 18 1 17 8
M  V30 19 1 18 9
M  V30 20 1 19 10
M  V30 21 1 20 10
M  V30 END BOND
M  V30 END CTAB
M  END
>  <i_epik_Tot_Q>  (1) 
0

>  <i_epik_Tot_abs_Q>  (1) 
0

>  <i_i_glide_confnum>  (1) 
1

>  <i_i_glide_lignum>  (1) 
56

>  <i_i_glide_posenum>  (1) 
47

>  <i_i_glide_rotatable_bonds>  (1) 
0

>  <i_lp_mmshare_version>  (1) 
72125

>  <i_m_source_file_index>  (1) 
50

>  <i_f3d_flags>  (1) 
0

>  <num_sample>  (1) 
100

>  <b_lp_Chiralities_Consistent>  (1) 
1

>  <r_epik_Charging_Adjusted_Penalty>  (1) 
0

>  <r_epik_Ionization_Penalty>  (1) 
0

>  <r_epik_Ionization_Penalty_Charging>  (1) 
0

>  <r_epik_Ionization_Penalty_Neutral>  (1) 
0

>  <r_epik_State_Penalty>  (1) 
-0

>  <r_glide_ring_energy>  (1) 
0

>  <r_i_docking_score>  (1) 
-6.1328158650265587

>  <r_i_glide_ecoul>  (1) 
-0.41949320075788687

>  <r_i_glide_eff_state_penalty>  (1) 
-0

>  <r_i_glide_einternal>  (1) 
0

>  <r_i_glide_emodel>  (1) 
-28.650119066401654

>  <r_i_glide_emodel_strain>  (1) 
0

>  <r_i_glide_energy>  (1) 
-20.880953621151196

>  <r_i_glide_erotb>  (1) 
0

>  <r_i_glide_esite>  (1) 
0

>  <r_i_glide_evdw>  (1) 
-20.461460420393308

>  <r_i_glide_gscore>  (1) 
-6.1328158650265587

>  <r_i_glide_gscore_strain>  (1) 
0

>  <r_i_glide_hbond>  (1) 
0

>  <r_i_glide_ligand_efficiency>  (1) 
-0.61328158650265585

>  <r_i_glide_ligand_efficiency_ln>  (1) 
-1.8569743677570749

>  <r_i_glide_ligand_efficiency_sa>  (1) 
-1.3212751247191115

>  <r_i_glide_lipo>  (1) 
-2.2822836070322774

>  <r_i_glide_metal>  (1) 
-0

>  <r_i_glide_rewards>  (1) 
-2.7645352568609325

>  <r_lp_Energy>  (1) 
14.978437

>  <r_lp_tautomer_probability>  (1) 
1

>  <s_epik_cmdline>  (1) 
J2VwaWtfcHl0aG9uJywgJy1waHQnLCAnMS4wJywgJy1waCcsICc3LjQnLCAnLXRuJywgJzgnLCAnLW1hJywgJzUwMCcsICctaW1hZScsICc8aW5maWxlLm1hZT4nLCAnLW9tYWUnLCAnPG91dGZpbGUubWFlPic=

>  <s_epik_input>  (1) 
TzFbQ0gyXVtDSDJdW0NIMl1jKGMxMilbY0hdW2NIXVtjSF1bY0hdMg==

>  <s_glide_docking_method>  (1) 
confgen

>  <s_i_glide_gridfile>  (1) 
gpcr_drd2_6luq_protein_autoprepared_prepared

>  <s_lp_Force_Field>  (1) 
S-OPLS

>  <s_lp_Variant>  (1) 
Pocket2Mol_49_num_sample_100-1

>  <s_m_source_file>  (1) 
generated__ligand_Pocket2Mol_2026-05-06_prepared.sdf

>  <GenAI_Model>  (1) 
Pocket2Mol

>  <Protein>  (1) 
generic_title2

$$$$
Pocket2Mol_52_num_sample_100
     RDKit          3D

  0  0  0  0  0  0  0  0  0  0999 V3000
M  V30 BEGIN CTAB
M  V30 COUNTS 15 16 0 0 1
M  V30 BEGIN ATOM
M  V30 1 C 11.228998 9.203138 -5.356741 0
M  V30 2 O 10.130448 8.454268 -5.891667 0
M  V30 3 C 10.507282 8.175495 -7.192539 0
M  V30 4 C 11.718311 8.713275 -7.390311 0
M  V30 5 C 12.328272 8.569292 -8.652066 0
M  V30 6 C 9.823150 7.487366 -8.164659 0
M  V30 7 C 12.234968 9.369525 -6.294175 0
M  V30 8 N 11.683301 7.891110 -9.678647 0 CHG=1
M  V30 9 O 12.234839 7.769301 -10.826752 0 CHG=-1
M  V30 10 C 10.423715 7.347853 -9.430990 0
M  V30 11 H 11.109141 9.515884 -4.330395 0
M  V30 12 H 13.298949 8.967228 -8.913047 0
M  V30 13 H 8.844506 7.070559 -7.965498 0
M  V30 14 H 13.190889 9.869513 -6.243352 0
M  V30 15 H 9.975959 6.833926 -10.268758 0
M  V30 END ATOM
M  V30 BEGIN BOND
M  V30 1 1 2 1
M  V30 2 1 3 2
M  V30 3 1 4 3
M  V30 4 2 5 4
M  V30 5 2 6 3
M  V30 6 2 7 1
M  V30 7 1 7 4
M  V30 8 1 8 5
M  V30 9 1 9 8
M  V30 10 1 10 6
M  V30 11 2 10 8
M  V30 12 1 11 1
M  V30 13 1 12 5
M  V30 14 1 13 6
M  V30 15 1 14 7
M  V30 16 1 15 10
M  V30 END BOND
M  V30 END CTAB
M  END
>  <i_epik_Tot_Q>  (1) 
0

>  <i_epik_Tot_abs_Q>  (1) 
2

>  <i_i_glide_confnum>  (1) 
1

>  <i_i_glide_lignum>  (1) 
59

>  <i_i_glide_posenum>  (1) 
225

>  <i_i_glide_rotatable_bonds>  (1) 
0

>  <i_lp_mmshare_version>  (1) 
72125

>  <i_m_source_file_index>  (1) 
53

>  <i_f3d_flags>  (1) 
0

>  <num_sample>  (1) 
100

>  <b_lp_Chiralities_Consistent>  (1) 
1

>  <r_epik_Charging_Adjusted_Penalty>  (1) 
1.0992902245007022e-07

>  <r_epik_Ionization_Penalty>  (1) 
1.0992902245007022e-07

>  <r_epik_Ionization_Penalty_Charging>  (1) 
1.0992902245007022e-07

>  <r_epik_Ionization_Penalty_Neutral>  (1) 
0

>  <r_epik_State_Penalty>  (1) 
-0

>  <r_glide_ring_energy>  (1) 
0

>  <r_i_docking_score>  (1) 
-6.1327988695307303

>  <r_i_glide_ecoul>  (1) 
-5.1456676868650577

>  <r_i_glide_eff_state_penalty>  (1) 
-0

>  <r_i_glide_einternal>  (1) 
0

>  <r_i_glide_emodel>  (1) 
-29.876958052571126

>  <r_i_glide_emodel_strain>  (1) 
0

>  <r_i_glide_energy>  (1) 
-21.091383709564017

>  <r_i_glide_erotb>  (1) 
0

>  <r_i_glide_esite>  (1) 
0

>  <r_i_glide_evdw>  (1) 
-15.94571602269896

>  <r_i_glide_gscore>  (1) 
-6.1327988695307303

>  <r_i_glide_gscore_strain>  (1) 
0

>  <r_i_glide_hbond>  (1) 
0

>  <r_i_glide_ligand_efficiency>  (1) 
-0.61327988695307301

>  <r_i_glide_ligand_efficiency_ln>  (1) 
-1.8569692216380953

>  <r_i_glide_ligand_efficiency_sa>  (1) 
-1.3212714631505327

>  <r_i_glide_lipo>  (1) 
-1.2618166839595091

>  <r_i_glide_metal>  (1) 
-0

>  <r_i_glide_rewards>  (1) 
-3.3018462314065133

>  <r_lp_Energy>  (1) 
10.75684

>  <r_lp_tautomer_probability>  (1) 
1

>  <s_epik_cmdline>  (1) 
J2VwaWtfcHl0aG9uJywgJy1waHQnLCAnMS4wJywgJy1waCcsICc3LjQnLCAnLXRuJywgJzgnLCAnLW1hJywgJzUwMCcsICctaW1hZScsICc8aW5maWxlLm1hZT4nLCAnLW9tYWUnLCAnPG91dGZpbGUubWFlPic=

>  <s_epik_input>  (1) 
bzFbY0hdW2NIXWMoYzEyKVtjSF1bbitdKFtPLV0pW2NIXVtjSF0y

>  <s_glide_docking_method>  (1) 
confgen

>  <s_i_glide_gridfile>  (1) 
gpcr_drd2_6luq_protein_autoprepared_prepared

>  <s_lp_Force_Field>  (1) 
S-OPLS

>  <s_lp_Variant>  (1) 
Pocket2Mol_52_num_sample_100-1

>  <s_m_source_file>  (1) 
generated__ligand_Pocket2Mol_2026-05-06_prepared.sdf

>  <GenAI_Model>  (1) 
Pocket2Mol

>  <Protein>  (1) 
generic_title2

$$$$
Pocket2Mol_54_num_sample_100
     RDKit          3D

  0  0  0  0  0  0  0  0  0  0999 V3000
M  V30 BEGIN CTAB
M  V30 COUNTS 18 19 0 0 1
M  V30 BEGIN ATOM
M  V30 1 C 12.541056 8.660314 -2.149116 0
M  V30 2 O 12.231487 9.587005 -3.259398 0
M  V30 3 C 11.834985 8.736401 -4.227028 0
M  V30 4 C 11.834835 7.429303 -3.891738 0
M  V30 5 C 11.434838 6.441186 -4.799532 0
M  V30 6 C 11.433610 9.160671 -5.507753 0
M  V30 7 C 11.020122 8.190091 -6.451348 0
M  V30 8 O 10.618396 8.569300 -7.697176 0
M  V30 9 C 11.022111 6.822154 -6.093524 0
M  V30 10 C 12.261755 7.136679 -2.523762 0
M  V30 11 H 13.591107 8.787895 -1.889082 0
M  V30 12 H 11.962021 8.949545 -1.271263 0
M  V30 13 H 11.437006 5.402968 -4.511042 0
M  V30 14 H 11.435482 10.209810 -5.764103 0
M  V30 15 H 10.126721 7.903516 -8.157212 0
M  V30 16 H 10.707459 6.072340 -6.804724 0
M  V30 17 H 11.456914 6.690212 -1.938636 0
M  V30 18 H 13.151770 6.509969 -2.501582 0
M  V30 END ATOM
M  V30 BEGIN BOND
M  V30 1 1 2 1
M  V30 2 1 3 2
M  V30 3 2 4 3
M  V30 4 1 5 4
M  V30 5 1 6 3
M  V30 6 2 7 6
M  V30 7 1 8 7
M  V30 8 2 9 5
M  V30 9 1 9 7
M  V30 10 1 10 1
M  V30 11 1 10 4
M  V30 12 1 11 1
M  V30 13 1 12 1
M  V30 14 1 13 5
M  V30 15 1 14 6
M  V30 16 1 15 8
M  V30 17 1 16 9
M  V30 18 1 17 10
M  V30 19 1 18 10
M  V30 END BOND
M  V30 END CTAB
M  END
>  <i_epik_Tot_Q>  (1) 
0

>  <i_epik_Tot_abs_Q>  (1) 
0

>  <i_i_glide_confnum>  (1) 
1

>  <i_i_glide_lignum>  (1) 
61

>  <i_i_glide_posenum>  (1) 
65

>  <i_i_glide_rotatable_bonds>  (1) 
1

>  <i_lp_mmshare_version>  (1) 
72125

>  <i_m_source_file_index>  (1) 
55

>  <i_f3d_flags>  (1) 
0

>  <num_sample>  (1) 
100

>  <b_lp_Chiralities_Consistent>  (1) 
1

>  <r_epik_Charging_Adjusted_Penalty>  (1) 
0

>  <r_epik_Ionization_Penalty>  (1) 
0.0019697177408658601

>  <r_epik_Ionization_Penalty_Charging>  (1) 
0

>  <r_epik_Ionization_Penalty_Neutral>  (1) 
0.0019697177408658601

>  <r_epik_State_Penalty>  (1) 
-0

>  <r_glide_ring_energy>  (1) 
0

>  <r_i_docking_score>  (1) 
-6.1264424661913779

>  <r_i_glide_ecoul>  (1) 
-1.7735654199299455

>  <r_i_glide_eff_state_penalty>  (1) 
-0

>  <r_i_glide_einternal>  (1) 
0.10628485618492285

>  <r_i_glide_emodel>  (1) 
-30.5890321900803

>  <r_i_glide_emodel_strain>  (1) 
0.0051753093665638517

>  <r_i_glide_energy>  (1) 
-21.551996233827449

>  <r_i_glide_erotb>  (1) 
0

>  <r_i_glide_esite>  (1) 
0

>  <r_i_glide_evdw>  (1) 
-19.778430813897504

>  <r_i_glide_gscore>  (1) 
-6.1264424661913779

>  <r_i_glide_gscore_strain>  (1) 
0

>  <r_i_glide_hbond>  (1) 
0

>  <r_i_glide_ligand_efficiency>  (1) 
-0.61264424661913774

>  <r_i_glide_ligand_efficiency_ln>  (1) 
-1.8550445465243983

>  <r_i_glide_ligand_efficiency_sa>  (1) 
-1.3199020175647191

>  <r_i_glide_lipo>  (1) 
-2.1759603531916234

>  <r_i_glide_metal>  (1) 
-0

>  <r_i_glide_rewards>  (1) 
-2.6955257593153874

>  <r_lp_Energy>  (1) 
8.5284040000000001

>  <r_lp_tautomer_probability>  (1) 
1

>  <s_epik_cmdline>  (1) 
J2VwaWtfcHl0aG9uJywgJy1waHQnLCAnMS4wJywgJy1waCcsICc3LjQnLCAnLXRuJywgJzgnLCAnLW1hJywgJzUwMCcsICctaW1hZScsICc8aW5maWxlLm1hZT4nLCAnLW9tYWUnLCAnPG91dGZpbGUubWFlPic=

>  <s_epik_input>  (1) 
TzFbQ0gyXVtDSDJdYyhjMTIpW2NIXVtjSF1jKFtjSF0yKVtPSF0=

>  <s_glide_docking_method>  (1) 
confgen

>  <s_i_glide_gridfile>  (1) 
gpcr_drd2_6luq_protein_autoprepared_prepared

>  <s_lp_Force_Field>  (1) 
S-OPLS

>  <s_lp_Variant>  (1) 
Pocket2Mol_54_num_sample_100-1

>  <s_m_source_file>  (1) 
generated__ligand_Pocket2Mol_2026-05-06_prepared.sdf

>  <GenAI_Model>  (1) 
Pocket2Mol

>  <Protein>  (1) 
generic_title2

$$$$
Pocket2Mol_63_num_sample_100
     RDKit          3D

  0  0  0  0  0  0  0  0  0  0999 V3000
M  V30 BEGIN CTAB
M  V30 COUNTS 19 20 0 0 1
M  V30 BEGIN ATOM
M  V30 1 C 9.873408 7.560955 -7.570524 0
M  V30 2 O 10.415637 8.762255 -7.163434 0
M  V30 3 C 11.018366 8.545972 -5.950048 0
M  V30 4 C 10.868489 7.199661 -5.589937 0
M  V30 5 C 11.434841 6.799243 -4.349146 0
M  V30 6 C 12.111966 7.738020 -3.522962 0
M  V30 7 O 12.634837 7.320766 -2.317737 0
M  V30 8 C 11.681618 9.490666 -5.167341 0
M  V30 9 C 10.132421 6.569300 -6.643829 0
M  V30 10 C 12.234803 9.092032 -3.943245 0
M  V30 11 C 13.034839 8.305974 -1.372764 0
M  V30 12 H 9.346377 7.573691 -8.515940 0
M  V30 13 H 11.341516 5.772563 -4.026550 0
M  V30 14 H 11.763882 10.514922 -5.499178 0
M  V30 15 H 9.834873 5.534249 -6.691667 0
M  V30 16 H 12.745622 9.813699 -3.329990 0
M  V30 17 H 13.434839 7.822465 -0.481731 0
M  V30 18 H 13.834848 8.935165 -1.755696 0
M  V30 19 H 12.194296 8.935691 -1.077667 0
M  V30 END ATOM
M  V30 BEGIN BOND
M  V30 1 1 2 1
M  V30 2 1 3 2
M  V30 3 1 4 3
M  V30 4 2 5 4
M  V30 5 1 6 5
M  V30 6 1 7 6
M  V30 7 2 8 3
M  V30 8 2 9 1
M  V30 9 1 9 4
M  V30 10 2 10 6
M  V30 11 1 10 8
M  V30 12 1 11 7
M  V30 13 1 12 1
M  V30 14 1 13 5
M  V30 15 1 14 8
M  V30 16 1 15 9
M  V30 17 1 16 10
M  V30 18 1 17 11
M  V30 19 1 18 11
M  V30 20 1 19 11
M  V30 END BOND
M  V30 END CTAB
M  END
>  <i_epik_Tot_Q>  (1) 
0

>  <i_epik_Tot_abs_Q>  (1) 
0

>  <i_i_glide_confnum>  (1) 
1

>  <i_i_glide_lignum>  (1) 
70

>  <i_i_glide_posenum>  (1) 
41

>  <i_i_glide_rotatable_bonds>  (1) 
1

>  <i_lp_mmshare_version>  (1) 
72125

>  <i_m_source_file_index>  (1) 
64

>  <i_f3d_flags>  (1) 
0

>  <num_sample>  (1) 
100

>  <b_lp_Chiralities_Consistent>  (1) 
1

>  <r_epik_Charging_Adjusted_Penalty>  (1) 
0

>  <r_epik_Ionization_Penalty>  (1) 
0

>  <r_epik_Ionization_Penalty_Charging>  (1) 
0

>  <r_epik_Ionization_Penalty_Neutral>  (1) 
0

>  <r_epik_State_Penalty>  (1) 
-0

>  <r_glide_ring_energy>  (1) 
0

>  <r_i_docking_score>  (1) 
-6.11490662571528

>  <r_i_glide_ecoul>  (1) 
-1.6790675241884583

>  <r_i_glide_eff_state_penalty>  (1) 
-0

>  <r_i_glide_einternal>  (1) 
3.8626336675771702

>  <r_i_glide_emodel>  (1) 
-31.113509331875022

>  <r_i_glide_emodel_strain>  (1) 
0

>  <r_i_glide_energy>  (1) 
-23.866460511544709

>  <r_i_glide_erotb>  (1) 
0

>  <r_i_glide_esite>  (1) 
0

>  <r_i_glide_evdw>  (1) 
-22.187392987356251

>  <r_i_glide_gscore>  (1) 
-6.11490662571528

>  <r_i_glide_gscore_strain>  (1) 
0

>  <r_i_glide_hbond>  (1) 
0

>  <r_i_glide_ligand_efficiency>  (1) 
-0.55590060233775274

>  <r_i_glide_ligand_efficiency_ln>  (1) 
-1.7996159783580639

>  <r_i_glide_ligand_efficiency_sa>  (1) 
-1.2363118719346524

>  <r_i_glide_lipo>  (1) 
-2.008744249265733

>  <r_i_glide_metal>  (1) 
-0

>  <r_i_glide_rewards>  (1) 
-2.7449325984534654

>  <r_lp_Energy>  (1) 
14.639571

>  <r_lp_tautomer_probability>  (1) 
1

>  <s_epik_cmdline>  (1) 
J2VwaWtfcHl0aG9uJywgJy1waHQnLCAnMS4wJywgJy1waCcsICc3LjQnLCAnLXRuJywgJzgnLCAnLW1hJywgJzUwMCcsICctaW1hZScsICc8aW5maWxlLm1hZT4nLCAnLW9tYWUnLCAnPG91dGZpbGUubWFlPic=

>  <s_epik_input>  (1) 
bzFbY0hdW2NIXWMoYzEyKVtjSF1jKE9bQ0gzXSlbY0hdW2NIXTI=

>  <s_glide_docking_method>  (1) 
confgen

>  <s_i_glide_gridfile>  (1) 
gpcr_drd2_6luq_protein_autoprepared_prepared

>  <s_lp_Force_Field>  (1) 
S-OPLS

>  <s_lp_Variant>  (1) 
Pocket2Mol_63_num_sample_100-1

>  <s_m_source_file>  (1) 
generated__ligand_Pocket2Mol_2026-05-06_prepared.sdf

>  <GenAI_Model>  (1) 
Pocket2Mol

>  <Protein>  (1) 
generic_title2

$$$$
Pocket2Mol_47_num_sample_100
     RDKit          3D

  0  0  0  0  0  0  0  0  0  0999 V3000
M  V30 BEGIN CTAB
M  V30 COUNTS 16 17 0 0 1
M  V30 BEGIN ATOM
M  V30 1 C 12.023135 7.093267 -2.437751 0
M  V30 2 O 11.445862 6.568437 -3.564752 0
M  V30 3 C 11.434842 7.358052 -4.691669 0
M  V30 4 C 11.834840 8.717478 -4.613004 0
M  V30 5 C 11.831599 9.516942 -5.771923 0
M  V30 6 C 11.034740 6.813654 -5.926582 0
M  V30 7 C 11.034206 7.616643 -7.082961 0
M  V30 8 O 12.231731 9.254206 -3.408080 0
M  V30 9 C 11.434496 8.965524 -7.006575 0
M  V30 10 C 12.399056 8.383467 -2.361787 0
M  V30 11 H 12.130946 6.365899 -1.646506 0
M  V30 12 H 12.137771 10.551161 -5.715746 0
M  V30 13 H 10.731325 5.779125 -5.987507 0
M  V30 14 H 10.728754 7.196937 -8.030947 0
M  V30 15 H 11.436035 9.576585 -7.896204 0
M  V30 16 H 12.855208 8.848985 -1.499817 0
M  V30 END ATOM
M  V30 BEGIN BOND
M  V30 1 1 2 1
M  V30 2 1 3 2
M  V30 3 1 4 3
M  V30 4 2 5 4
M  V30 5 2 6 3
M  V30 6 1 7 6
M  V30 7 1 8 4
M  V30 8 1 9 5
M  V30 9 2 9 7
M  V30 10 2 10 1
M  V30 11 1 10 8
M  V30 12 1 11 1
M  V30 13 1 12 5
M  V30 14 1 13 6
M  V30 15 1 14 7
M  V30 16 1 15 9
M  V30 17 1 16 10
M  V30 END BOND
M  V30 END CTAB
M  END
>  <i_epik_Tot_Q>  (1) 
0

>  <i_epik_Tot_abs_Q>  (1) 
0

>  <i_i_glide_confnum>  (1) 
1

>  <i_i_glide_lignum>  (1) 
53

>  <i_i_glide_posenum>  (1) 
48

>  <i_i_glide_rotatable_bonds>  (1) 
0

>  <i_lp_mmshare_version>  (1) 
72125

>  <i_m_source_file_index>  (1) 
48

>  <i_f3d_flags>  (1) 
0

>  <num_sample>  (1) 
100

>  <b_lp_Chiralities_Consistent>  (1) 
1

>  <r_epik_Charging_Adjusted_Penalty>  (1) 
0

>  <r_epik_Ionization_Penalty>  (1) 
0

>  <r_epik_Ionization_Penalty_Charging>  (1) 
0

>  <r_epik_Ionization_Penalty_Neutral>  (1) 
0

>  <r_epik_State_Penalty>  (1) 
-0

>  <r_glide_ring_energy>  (1) 
0

>  <r_i_docking_score>  (1) 
-6.1130463580309868

>  <r_i_glide_ecoul>  (1) 
-0.50799385677640507

>  <r_i_glide_eff_state_penalty>  (1) 
-0

>  <r_i_glide_einternal>  (1) 
0

>  <r_i_glide_emodel>  (1) 
-30.047209994794379

>  <r_i_glide_emodel_strain>  (1) 
0

>  <r_i_glide_energy>  (1) 
-22.101912912106943

>  <r_i_glide_erotb>  (1) 
0

>  <r_i_glide_esite>  (1) 
0

>  <r_i_glide_evdw>  (1) 
-21.593919055330538

>  <r_i_glide_gscore>  (1) 
-6.1130463580309868

>  <r_i_glide_gscore_strain>  (1) 
0

>  <r_i_glide_hbond>  (1) 
0

>  <r_i_glide_ligand_efficiency>  (1) 
-0.61130463580309868

>  <r_i_glide_ligand_efficiency_ln>  (1) 
-1.8509882973186447

>  <r_i_glide_ligand_efficiency_sa>  (1) 
-1.3170159135515027

>  <r_i_glide_lipo>  (1) 
-2.1180811471578247

>  <r_i_glide_metal>  (1) 
-0

>  <r_i_glide_rewards>  (1) 
-2.8390701795901747

>  <r_lp_Energy>  (1) 
24.726983000000001

>  <r_lp_tautomer_probability>  (1) 
1

>  <s_epik_cmdline>  (1) 
J2VwaWtfcHl0aG9uJywgJy1waHQnLCAnMS4wJywgJy1waCcsICc3LjQnLCAnLXRuJywgJzgnLCAnLW1hJywgJzUwMCcsICctaW1hZScsICc8aW5maWxlLm1hZT4nLCAnLW9tYWUnLCAnPG91dGZpbGUubWFlPic=

>  <s_epik_input>  (1) 
TzFbQ0hdPVtDSF1PYyhjMTIpW2NIXVtjSF1bY0hdW2NIXTI=

>  <s_glide_docking_method>  (1) 
confgen

>  <s_i_glide_gridfile>  (1) 
gpcr_drd2_6luq_protein_autoprepared_prepared

>  <s_lp_Force_Field>  (1) 
S-OPLS

>  <s_lp_Variant>  (1) 
Pocket2Mol_47_num_sample_100-1

>  <s_m_source_file>  (1) 
generated__ligand_Pocket2Mol_2026-05-06_prepared.sdf

>  <GenAI_Model>  (1) 
Pocket2Mol

>  <Protein>  (1) 
generic_title2

$$$$
Pocket2Mol_62_num_sample_100
     RDKit          3D

  0  0  0  0  0  0  0  0  0  0999 V3000
M  V30 BEGIN CTAB
M  V30 COUNTS 21 22 0 0 1
M  V30 BEGIN ATOM
M  V30 1 C 10.110415 7.219538 -7.967659 0
M  V30 2 O 10.602098 8.569327 -7.624589 0
M  V30 3 C 11.075074 8.391322 -6.371614 0
M  V30 4 C 10.980138 7.138543 -5.884682 0
M  V30 5 C 11.434649 6.811018 -4.594045 0
M  V30 6 C 11.998943 7.824401 -3.785904 0
M  V30 7 O 12.435474 7.514939 -2.512240 0
M  V30 8 C 10.368802 6.169291 -6.795860 0
M  V30 9 C 11.633746 9.430096 -5.608393 0
M  V30 10 C 12.100887 9.150391 -4.303087 0
M  V30 11 C 12.919749 8.557982 -1.677532 0
M  V30 12 H 10.597130 6.889356 -8.885886 0
M  V30 13 H 9.042392 7.278088 -8.183180 0
M  V30 14 H 11.345711 5.800144 -4.222638 0
M  V30 15 H 11.059528 5.376346 -7.083897 0
M  V30 16 H 9.442454 5.769717 -6.385604 0
M  V30 17 H 11.703797 10.429232 -6.012514 0
M  V30 18 H 12.529599 9.939364 -3.709681 0
M  V30 19 H 13.167714 8.169301 -0.692125 0
M  V30 20 H 13.834656 8.969354 -2.093264 0
M  V30 21 H 12.183609 9.351237 -1.538888 0
M  V30 END ATOM
M  V30 BEGIN BOND
M  V30 1 1 2 1
M  V30 2 1 3 2
M  V30 3 2 4 3
M  V30 4 1 5 4
M  V30 5 2 6 5
M  V30 6 1 7 6
M  V30 7 1 8 1
M  V30 8 1 8 4
M  V30 9 1 9 3
M  V30 10 1 10 6
M  V30 11 2 10 9
M  V30 12 1 11 7
M  V30 13 1 12 1
M  V30 14 1 13 1
M  V30 15 1 14 5
M  V30 16 1 15 8
M  V30 17 1 16 8
M  V30 18 1 17 9
M  V30 19 1 18 10
M  V30 20 1 19 11
M  V30 21 1 20 11
M  V30 22 1 21 11
M  V30 END BOND
M  V30 END CTAB
M  END
>  <i_epik_Tot_Q>  (1) 
0

>  <i_epik_Tot_abs_Q>  (1) 
0

>  <i_i_glide_confnum>  (1) 
1

>  <i_i_glide_lignum>  (1) 
69

>  <i_i_glide_posenum>  (1) 
81

>  <i_i_glide_rotatable_bonds>  (1) 
1

>  <i_lp_mmshare_version>  (1) 
72125

>  <i_m_source_file_index>  (1) 
63

>  <i_f3d_flags>  (1) 
0

>  <num_sample>  (1) 
100

>  <b_lp_Chiralities_Consistent>  (1) 
1

>  <r_epik_Charging_Adjusted_Penalty>  (1) 
0

>  <r_epik_Ionization_Penalty>  (1) 
0

>  <r_epik_Ionization_Penalty_Charging>  (1) 
0

>  <r_epik_Ionization_Penalty_Neutral>  (1) 
0

>  <r_epik_State_Penalty>  (1) 
-0

>  <r_glide_ring_energy>  (1) 
0

>  <r_i_docking_score>  (1) 
-6.1108881597034426

>  <r_i_glide_ecoul>  (1) 
-1.4926757528459229

>  <r_i_glide_eff_state_penalty>  (1) 
-0

>  <r_i_glide_einternal>  (1) 
0.095728986642539926

>  <r_i_glide_emodel>  (1) 
-31.79235193174512

>  <r_i_glide_emodel_strain>  (1) 
0

>  <r_i_glide_energy>  (1) 
-23.187786658059135

>  <r_i_glide_erotb>  (1) 
0

>  <r_i_glide_esite>  (1) 
0

>  <r_i_glide_evdw>  (1) 
-21.695110905213213

>  <r_i_glide_gscore>  (1) 
-6.1108881597034426

>  <r_i_glide_gscore_strain>  (1) 
0

>  <r_i_glide_hbond>  (1) 
0

>  <r_i_glide_ligand_efficiency>  (1) 
-0.55553528724576751

>  <r_i_glide_ligand_efficiency_ln>  (1) 
-1.7984333444952703

>  <r_i_glide_ligand_efficiency_sa>  (1) 
-1.2354994184432928

>  <r_i_glide_lipo>  (1) 
-1.9820467881175896

>  <r_i_glide_metal>  (1) 
-0

>  <r_i_glide_rewards>  (1) 
-2.8201844633983035

>  <r_lp_Energy>  (1) 
15.977421

>  <r_lp_tautomer_probability>  (1) 
1

>  <s_epik_cmdline>  (1) 
J2VwaWtfcHl0aG9uJywgJy1waHQnLCAnMS4wJywgJy1waCcsICc3LjQnLCAnLXRuJywgJzgnLCAnLW1hJywgJzUwMCcsICctaW1hZScsICc8aW5maWxlLm1hZT4nLCAnLW9tYWUnLCAnPG91dGZpbGUubWFlPic=

>  <s_epik_input>  (1) 
TzFbQ0gyXVtDSDJdYyhjMTIpW2NIXWMoT1tDSDNdKVtjSF1bY0hdMg==

>  <s_glide_docking_method>  (1) 
confgen

>  <s_i_glide_gridfile>  (1) 
gpcr_drd2_6luq_protein_autoprepared_prepared

>  <s_lp_Force_Field>  (1) 
S-OPLS

>  <s_lp_Variant>  (1) 
Pocket2Mol_62_num_sample_100-1

>  <s_m_source_file>  (1) 
generated__ligand_Pocket2Mol_2026-05-06_prepared.sdf

>  <GenAI_Model>  (1) 
Pocket2Mol

>  <Protein>  (1) 
generic_title2

$$$$
Pocket2Mol_58_num_sample_100
     RDKit          3D

  0  0  0  0  0  0  0  0  0  0999 V3000
M  V30 BEGIN CTAB
M  V30 COUNTS 18 19 0 0 1
M  V30 BEGIN ATOM
M  V30 1 C 10.505506 6.569274 -7.013253 0
M  V30 2 O 11.048274 6.169316 -5.731951 0
M  V30 3 C 11.434737 7.097046 -4.774583 0
M  V30 4 C 11.434832 8.478927 -5.073877 0
M  V30 5 C 11.835368 9.405881 -4.098329 0
M  V30 6 C 11.834834 6.657367 -3.496101 0
M  V30 7 C 12.234851 7.590374 -2.521777 0
M  V30 8 C 11.016091 8.920829 -6.381816 0
M  V30 9 C 12.234839 8.964452 -2.822603 0
M  V30 10 C 10.587954 8.052933 -7.289735 0
M  V30 11 H 9.460669 6.261165 -7.063820 0
M  V30 12 H 11.034808 6.031819 -7.799546 0
M  V30 13 H 11.831036 10.458374 -4.328098 0
M  V30 14 H 11.835483 5.605495 -3.264485 0
M  V30 15 H 12.541614 7.251342 -1.543700 0
M  V30 16 H 11.057509 9.976559 -6.599610 0
M  V30 17 H 12.540200 9.680899 -2.074467 0
M  V30 18 H 10.271814 8.393825 -8.265049 0
M  V30 END ATOM
M  V30 BEGIN BOND
M  V30 1 1 2 1
M  V30 2 1 3 2
M  V30 3 1 4 3
M  V30 4 2 5 4
M  V30 5 2 6 3
M  V30 6 1 7 6
M  V30 7 1 8 4
M  V30 8 1 9 5
M  V30 9 2 9 7
M  V30 10 1 10 1
M  V30 11 2 10 8
M  V30 12 1 11 1
M  V30 13 1 12 1
M  V30 14 1 13 5
M  V30 15 1 14 6
M  V30 16 1 15 7
M  V30 17 1 16 8
M  V30 18 1 17 9
M  V30 19 1 18 10
M  V30 END BOND
M  V30 END CTAB
M  END
>  <i_epik_Tot_Q>  (1) 
0

>  <i_epik_Tot_abs_Q>  (1) 
0

>  <i_i_glide_confnum>  (1) 
1

>  <i_i_glide_lignum>  (1) 
65

>  <i_i_glide_posenum>  (1) 
30

>  <i_i_glide_rotatable_bonds>  (1) 
0

>  <i_lp_mmshare_version>  (1) 
72125

>  <i_m_source_file_index>  (1) 
59

>  <i_f3d_flags>  (1) 
0

>  <num_sample>  (1) 
100

>  <b_lp_Chiralities_Consistent>  (1) 
1

>  <r_epik_Charging_Adjusted_Penalty>  (1) 
0

>  <r_epik_Ionization_Penalty>  (1) 
0

>  <r_epik_Ionization_Penalty_Charging>  (1) 
0

>  <r_epik_Ionization_Penalty_Neutral>  (1) 
0

>  <r_epik_State_Penalty>  (1) 
-0

>  <r_glide_ring_energy>  (1) 
0

>  <r_i_docking_score>  (1) 
-6.110506216917134

>  <r_i_glide_ecoul>  (1) 
-0.43494699661395431

>  <r_i_glide_eff_state_penalty>  (1) 
-0

>  <r_i_glide_einternal>  (1) 
0

>  <r_i_glide_emodel>  (1) 
-28.472604505378083

>  <r_i_glide_emodel_strain>  (1) 
0

>  <r_i_glide_energy>  (1) 
-20.444670992221219

>  <r_i_glide_erotb>  (1) 
0

>  <r_i_glide_esite>  (1) 
0

>  <r_i_glide_evdw>  (1) 
-20.009723995607263

>  <r_i_glide_gscore>  (1) 
-6.110506216917134

>  <r_i_glide_gscore_strain>  (1) 
0

>  <r_i_glide_hbond>  (1) 
0

>  <r_i_glide_ligand_efficiency>  (1) 
-0.61105062169171342

>  <r_i_glide_ligand_efficiency_ln>  (1) 
-1.85021916009967

>  <r_i_glide_ligand_efficiency_sa>  (1) 
-1.3164686567381765

>  <r_i_glide_lipo>  (1) 
-2.2073077908442547

>  <r_i_glide_metal>  (1) 
-0

>  <r_i_glide_rewards>  (1) 
-2.8374701768004229

>  <r_lp_Energy>  (1) 
15.262369

>  <r_lp_tautomer_probability>  (1) 
1

>  <s_epik_cmdline>  (1) 
J2VwaWtfcHl0aG9uJywgJy1waHQnLCAnMS4wJywgJy1waCcsICc3LjQnLCAnLXRuJywgJzgnLCAnLW1hJywgJzUwMCcsICctaW1hZScsICc8aW5maWxlLm1hZT4nLCAnLW9tYWUnLCAnPG91dGZpbGUubWFlPic=

>  <s_epik_input>  (1) 
TzFbQ0gyXVtDSF09W0NIXWMoYzEyKVtjSF1bY0hdW2NIXVtjSF0y

>  <s_glide_docking_method>  (1) 
confgen

>  <s_i_glide_gridfile>  (1) 
gpcr_drd2_6luq_protein_autoprepared_prepared

>  <s_lp_Force_Field>  (1) 
S-OPLS

>  <s_lp_Variant>  (1) 
Pocket2Mol_58_num_sample_100-1

>  <s_m_source_file>  (1) 
generated__ligand_Pocket2Mol_2026-05-06_prepared.sdf

>  <GenAI_Model>  (1) 
Pocket2Mol

>  <Protein>  (1) 
generic_title2

$$$$
Pocket2Mol_75_num_sample_100
     RDKit          3D

  0  0  0  0  0  0  0  0  0  0999 V3000
M  V30 BEGIN CTAB
M  V30 COUNTS 17 18 0 0 1
M  V30 BEGIN ATOM
M  V30 1 C 12.349400 8.045938 -2.293640 0
M  V30 2 O 12.412837 9.138239 -3.136803 0
M  V30 3 C 11.936733 8.733789 -4.360404 0
M  V30 4 C 11.561591 7.382512 -4.291667 0
M  V30 5 C 11.034839 6.801363 -5.474719 0
M  V30 6 C 10.921740 7.564882 -6.672130 0
M  V30 7 C 11.834839 6.944028 -2.954364 0
M  V30 8 N 10.383995 6.942610 -7.901812 0 CHG=1
M  V30 9 C 11.331155 8.921820 -6.685818 0
M  V30 10 O 10.032649 5.769303 -7.838323 0 CHG=-1
M  V30 11 C 11.834842 9.509027 -5.516238 0
M  V30 12 O 10.327819 7.637820 -8.911318 0
M  V30 13 H 12.696303 8.209469 -1.283518 0
M  V30 14 H 10.725924 5.769301 -5.466286 0
M  V30 15 H 11.665964 5.953558 -2.554128 0
M  V30 16 H 11.256287 9.499877 -7.591145 0
M  V30 17 H 12.145283 10.542947 -5.511572 0
M  V30 END ATOM
M  V30 BEGIN BOND
M  V30 1 1 2 1
M  V30 2 1 3 2
M  V30 3 1 4 3
M  V30 4 2 5 4
M  V30 5 1 6 5
M  V30 6 2 7 1
M  V30 7 1 7 4
M  V30 8 1 8 6
M  V30 9 2 9 6
M  V30 10 1 10 8
M  V30 11 2 11 3
M  V30 12 1 11 9
M  V30 13 2 12 8
M  V30 14 1 13 1
M  V30 15 1 14 5
M  V30 16 1 15 7
M  V30 17 1 16 9
M  V30 18 1 17 11
M  V30 END BOND
M  V30 END CTAB
M  END
>  <i_epik_Tot_Q>  (1) 
0

>  <i_epik_Tot_abs_Q>  (1) 
2

>  <i_i_glide_confnum>  (1) 
1

>  <i_i_glide_lignum>  (1) 
82

>  <i_i_glide_posenum>  (1) 
278

>  <i_i_glide_rotatable_bonds>  (1) 
1

>  <i_lp_mmshare_version>  (1) 
72125

>  <i_m_source_file_index>  (1) 
76

>  <i_f3d_flags>  (1) 
0

>  <num_sample>  (1) 
100

>  <b_lp_Chiralities_Consistent>  (1) 
1

>  <r_epik_Charging_Adjusted_Penalty>  (1) 
0

>  <r_epik_Ionization_Penalty>  (1) 
0

>  <r_epik_Ionization_Penalty_Charging>  (1) 
0

>  <r_epik_Ionization_Penalty_Neutral>  (1) 
0

>  <r_epik_State_Penalty>  (1) 
-0

>  <r_glide_ring_energy>  (1) 
0

>  <r_i_docking_score>  (1) 
-6.1001485953349608

>  <r_i_glide_ecoul>  (1) 
0.052722501640078412

>  <r_i_glide_eff_state_penalty>  (1) 
-0

>  <r_i_glide_einternal>  (1) 
0.0092362775951817522

>  <r_i_glide_emodel>  (1) 
-33.999794179755924

>  <r_i_glide_emodel_strain>  (1) 
0

>  <r_i_glide_energy>  (1) 
-24.002566625815991

>  <r_i_glide_erotb>  (1) 
0

>  <r_i_glide_esite>  (1) 
-0.06189552606024349

>  <r_i_glide_evdw>  (1) 
-24.055289127456071

>  <r_i_glide_gscore>  (1) 
-6.1001485953349608

>  <r_i_glide_gscore_strain>  (1) 
0

>  <r_i_glide_hbond>  (1) 
0

>  <r_i_glide_ligand_efficiency>  (1) 
-0.50834571627791336

>  <r_i_glide_ligand_efficiency_ln>  (1) 
-1.7504482066129534

>  <r_i_glide_ligand_efficiency_sa>  (1) 
-1.1638211631286053

>  <r_i_glide_lipo>  (1) 
-2.1786204422494895

>  <r_i_glide_metal>  (1) 
-0

>  <r_i_glide_rewards>  (1) 
-2.6647765458984356

>  <r_lp_Energy>  (1) 
17.097996999999999

>  <r_lp_tautomer_probability>  (1) 
1

>  <s_epik_cmdline>  (1) 
J2VwaWtfcHl0aG9uJywgJy1waHQnLCAnMS4wJywgJy1waCcsICc3LjQnLCAnLXRuJywgJzgnLCAnLW1hJywgJzUwMCcsICctaW1hZScsICc8aW5maWxlLm1hZT4nLCAnLW9tYWUnLCAnPG91dGZpbGUubWFlPic=

>  <s_epik_input>  (1) 
bzFbY0hdW2NIXWMoYzEyKVtjSF1jKFtOK10oW08tXSk9TylbY0hdW2NIXTI=

>  <s_glide_docking_method>  (1) 
confgen

>  <s_i_glide_gridfile>  (1) 
gpcr_drd2_6luq_protein_autoprepared_prepared

>  <s_lp_Force_Field>  (1) 
S-OPLS

>  <s_lp_Variant>  (1) 
Pocket2Mol_75_num_sample_100-1

>  <s_m_source_file>  (1) 
generated__ligand_Pocket2Mol_2026-05-06_prepared.sdf

>  <GenAI_Model>  (1) 
Pocket2Mol

>  <Protein>  (1) 
generic_title2

$$$$
Pocket2Mol_0_num_sample_100
     RDKit          3D

  0  0  0  0  0  0  0  0  0  0999 V3000
M  V30 BEGIN CTAB
M  V30 COUNTS 21 23 0 0 1
M  V30 BEGIN ATOM
M  V30 1 C 10.352685 7.803628 -9.163275 0
M  V30 2 O 10.914860 8.969301 -8.453366 0
M  V30 3 C 11.090133 8.486185 -7.204310 0
M  V30 4 C 10.698230 7.222344 -7.012536 0
M  V30 5 C 10.854231 6.586201 -5.780784 0
M  V30 6 C 10.107196 6.569548 -8.185696 0
M  V30 7 C 11.650267 9.240811 -6.164631 0
M  V30 8 C 11.434840 7.272929 -4.691667 0
M  V30 9 N 11.622024 6.644935 -3.500056 0
M  V30 10 C 12.205096 7.373278 -2.530740 0
M  V30 11 C 11.834838 8.656447 -4.883108 0
M  V30 12 C 12.577118 8.710677 -2.710431 0
M  V30 13 N 12.391111 9.369297 -3.870674 0
M  V30 14 H 11.053295 7.516848 -9.948271 0
M  V30 15 H 9.428451 8.092912 -9.662004 0
M  V30 16 H 10.540738 5.572068 -5.662030 0
M  V30 17 H 10.634838 5.663636 -8.479648 0
M  V30 18 H 9.046389 6.366530 -8.029971 0
M  V30 19 H 11.952053 10.261981 -6.340859 0
M  V30 20 H 12.371420 6.876918 -1.586271 0
M  V30 21 H 13.034840 9.266394 -1.906502 0
M  V30 END ATOM
M  V30 BEGIN BOND
M  V30 1 1 2 1
M  V30 2 1 3 2
M  V30 3 1 4 3
M  V30 4 2 5 4
M  V30 5 1 6 1
M  V30 6 1 6 4
M  V30 7 2 7 3
M  V30 8 1 8 5
M  V30 9 2 9 8
M  V30 10 1 10 9
M  V30 11 1 11 7
M  V30 12 1 11 8
M  V30 13 2 12 10
M  V30 14 2 13 11
M  V30 15 1 13 12
M  V30 16 1 14 1
M  V30 17 1 15 1
M  V30 18 1 16 5
M  V30 19 1 17 6
M  V30 20 1 18 6
M  V30 21 1 19 7
M  V30 22 1 20 10
M  V30 23 1 21 12
M  V30 END BOND
M  V30 END CTAB
M  END
>  <i_epik_Tot_Q>  (1) 
0

>  <i_epik_Tot_abs_Q>  (1) 
0

>  <i_i_glide_confnum>  (1) 
1

>  <i_i_glide_lignum>  (1) 
1

>  <i_i_glide_posenum>  (1) 
304

>  <i_i_glide_rotatable_bonds>  (1) 
0

>  <i_lp_mmshare_version>  (1) 
72125

>  <i_m_source_file_index>  (1) 
1

>  <i_f3d_flags>  (1) 
0

>  <num_sample>  (1) 
100

>  <b_lp_Chiralities_Consistent>  (1) 
1

>  <r_epik_Charging_Adjusted_Penalty>  (1) 
0

>  <r_epik_Ionization_Penalty>  (1) 
2.4588925185764017e-06

>  <r_epik_Ionization_Penalty_Charging>  (1) 
0

>  <r_epik_Ionization_Penalty_Neutral>  (1) 
2.4588925185764017e-06

>  <r_epik_State_Penalty>  (1) 
-0

>  <r_glide_ring_energy>  (1) 
0

>  <r_i_docking_score>  (1) 
-6.0991226746246765

>  <r_i_glide_ecoul>  (1) 
-1.2305230239265534

>  <r_i_glide_eff_state_penalty>  (1) 
-0

>  <r_i_glide_einternal>  (1) 
0

>  <r_i_glide_emodel>  (1) 
-34.429058173192544

>  <r_i_glide_emodel_strain>  (1) 
0

>  <r_i_glide_energy>  (1) 
-24.833601146846295

>  <r_i_glide_erotb>  (1) 
0

>  <r_i_glide_esite>  (1) 
0

>  <r_i_glide_evdw>  (1) 
-23.60307812291974

>  <r_i_glide_gscore>  (1) 
-6.0991226746246765

>  <r_i_glide_gscore_strain>  (1) 
0

>  <r_i_glide_hbond>  (1) 
0

>  <r_i_glide_ligand_efficiency>  (1) 
-0.46916328266343665

>  <r_i_glide_ligand_efficiency_ln>  (1) 
-1.7108581533869607

>  <r_i_glide_ligand_efficiency_sa>  (1) 
-1.1031599007314774

>  <r_i_glide_lipo>  (1) 
-1.9838696159754803

>  <r_i_glide_metal>  (1) 
-0

>  <r_i_glide_rewards>  (1) 
-2.7505206989142263

>  <r_lp_Energy>  (1) 
22.769921999999998

>  <r_lp_tautomer_probability>  (1) 
1

>  <s_epik_cmdline>  (1) 
J2VwaWtfcHl0aG9uJywgJy1waHQnLCAnMS4wJywgJy1waCcsICc3LjQnLCAnLXRuJywgJzgnLCAnLW1hJywgJzUwMCcsICctaW1hZScsICc8aW5maWxlLm1hZT4nLCAnLW9tYWUnLCAnPG91dGZpbGUubWFlPic=

>  <s_epik_input>  (1) 
TzFbQ0gyXVtDSDJdYyhjMTIpW2NIXWMzYyhbY0hdMiluW2NIXVtjSF1uMw==

>  <s_glide_docking_method>  (1) 
confgen

>  <s_i_glide_gridfile>  (1) 
gpcr_drd2_6luq_protein_autoprepared_prepared

>  <s_lp_Force_Field>  (1) 
S-OPLS

>  <s_lp_Variant>  (1) 
Pocket2Mol_0_num_sample_100-1

>  <s_m_source_file>  (1) 
generated__ligand_Pocket2Mol_2026-05-06_prepared.sdf

>  <GenAI_Model>  (1) 
Pocket2Mol

>  <Protein>  (1) 
generic_title2

$$$$
Pocket2Mol_83_num_sample_100
     RDKit          3D

  0  0  0  0  0  0  0  0  0  0999 V3000
M  V30 BEGIN CTAB
M  V30 COUNTS 21 22 0 0 1
M  V30 BEGIN ATOM
M  V30 1 C 11.745387 8.969301 -5.380842 0
M  V30 2 O 12.300322 9.369303 -6.691668 0
M  V30 3 C 11.612978 8.568133 -7.535267 0
M  V30 4 C 10.819504 7.648873 -6.950630 0
M  V30 5 C 10.034770 6.763274 -7.705263 0
M  V30 6 C 10.838882 7.657975 -5.491668 0
M  V30 7 C 11.699836 8.672976 -8.932689 0
M  V30 8 C 10.076318 6.841893 -9.122559 0
M  V30 9 N 9.289589 5.973615 -9.915532 0
M  V30 10 C 10.927130 7.806329 -9.736435 0
M  V30 11 O 8.234834 5.369297 -9.221323 0
M  V30 12 O 9.031894 6.456373 -11.202304 0
M  V30 13 H 11.135020 9.799495 -5.021884 0
M  V30 14 H 12.545004 8.837005 -4.651622 0
M  V30 15 H 9.405081 6.039045 -7.209366 0
M  V30 16 H 9.834844 7.769289 -5.091667 0
M  V30 17 H 11.324048 6.763364 -5.099665 0
M  V30 18 H 12.343548 9.410497 -9.387691 0
M  V30 19 H 10.982358 7.880128 -10.811852 0
M  V30 20 H 7.600497 6.069615 -9.082524 0
M  V30 21 H 8.366658 7.121881 -11.073881 0
M  V30 END ATOM
M  V30 BEGIN BOND
M  V30 1 1 2 1
M  V30 2 1 3 2
M  V30 3 2 4 3
M  V30 4 1 5 4
M  V30 5 1 6 1
M  V30 6 1 6 4
M  V30 7 1 7 3
M  V30 8 2 8 5
M  V30 9 1 9 8
M  V30 10 2 10 7
M  V30 11 1 10 8
M  V30 12 1 11 9
M  V30 13 1 12 9
M  V30 14 1 13 1
M  V30 15 1 14 1
M  V30 16 1 15 5
M  V30 17 1 16 6
M  V30 18 1 17 6
M  V30 19 1 18 7
M  V30 20 1 19 10
M  V30 21 1 20 11
M  V30 22 1 21 12
M  V30 END BOND
M  V30 END CTAB
M  END
>  <i_epik_Tot_Q>  (1) 
0

>  <i_epik_Tot_abs_Q>  (1) 
0

>  <i_i_glide_confnum>  (1) 
1

>  <i_i_glide_lignum>  (1) 
90

>  <i_i_glide_posenum>  (1) 
373

>  <i_i_glide_rotatable_bonds>  (1) 
3

>  <i_lp_mmshare_version>  (1) 
72125

>  <i_m_source_file_index>  (1) 
84

>  <i_f3d_flags>  (1) 
0

>  <num_sample>  (1) 
100

>  <b_lp_Chiralities_Consistent>  (1) 
1

>  <r_epik_Charging_Adjusted_Penalty>  (1) 
0

>  <r_epik_Ionization_Penalty>  (1) 
0.00063218327523872333

>  <r_epik_Ionization_Penalty_Charging>  (1) 
0

>  <r_epik_Ionization_Penalty_Neutral>  (1) 
0.00063218327523872333

>  <r_epik_State_Penalty>  (1) 
-0

>  <r_glide_ring_energy>  (1) 
0

>  <r_i_docking_score>  (1) 
-6.0952437900729759

>  <r_i_glide_ecoul>  (1) 
-4.4721056319642898

>  <r_i_glide_eff_state_penalty>  (1) 
-0

>  <r_i_glide_einternal>  (1) 
0.15881272399015289

>  <r_i_glide_emodel>  (1) 
-39.27645925275209

>  <r_i_glide_emodel_strain>  (1) 
0

>  <r_i_glide_energy>  (1) 
-26.76202629193509

>  <r_i_glide_erotb>  (1) 
0

>  <r_i_glide_esite>  (1) 
-0.0751223865285576

>  <r_i_glide_evdw>  (1) 
-22.2899206599708

>  <r_i_glide_gscore>  (1) 
-6.0952437900729759

>  <r_i_glide_gscore_strain>  (1) 
0

>  <r_i_glide_hbond>  (1) 
-0.19828880734628793

>  <r_i_glide_ligand_efficiency>  (1) 
-0.50793698250608132

>  <r_i_glide_ligand_efficiency_ln>  (1) 
-1.7490407642465178

>  <r_i_glide_ligand_efficiency_sa>  (1) 
-1.1628853963885477

>  <r_i_glide_lipo>  (1) 
-1.1882172199641106

>  <r_i_glide_metal>  (1) 
-0

>  <r_i_glide_rewards>  (1) 
-2.8483034984408371

>  <r_lp_Energy>  (1) 
14.636832

>  <r_lp_tautomer_probability>  (1) 
1

>  <s_epik_Chemistry_Notes>  (1) 
This compound has a N-S or N-O group and may undergo hydrolysis at high or low pH.

>  <s_epik_cmdline>  (1) 
J2VwaWtfcHl0aG9uJywgJy1waHQnLCAnMS4wJywgJy1waCcsICc3LjQnLCAnLXRuJywgJzgnLCAnLW1hJywgJzUwMCcsICctaW1hZScsICc8aW5maWxlLm1hZT4nLCAnLW9tYWUnLCAnPG91dGZpbGUubWFlPic=

>  <s_epik_input>  (1) 
TzFbQ0gyXVtDSDJdYyhjMTIpW2NIXWMoTihbT0hdKVtPSF0pW2NIXVtjSF0y

>  <s_glide_docking_method>  (1) 
confgen

>  <s_i_glide_gridfile>  (1) 
gpcr_drd2_6luq_protein_autoprepared_prepared

>  <s_lp_Force_Field>  (1) 
S-OPLS

>  <s_lp_Variant>  (1) 
Pocket2Mol_83_num_sample_100-1

>  <s_m_source_file>  (1) 
generated__ligand_Pocket2Mol_2026-05-06_prepared.sdf

>  <GenAI_Model>  (1) 
Pocket2Mol

>  <Protein>  (1) 
generic_title2

$$$$
Pocket2Mol_65_num_sample_100
     RDKit          3D

  0  0  0  0  0  0  0  0  0  0999 V3000
M  V30 BEGIN CTAB
M  V30 COUNTS 18 19 0 0 1
M  V30 BEGIN ATOM
M  V30 1 C 12.224933 8.596668 -2.338695 0
M  V30 2 O 12.315246 9.351699 -3.541657 0
M  V30 3 C 11.852737 8.752695 -4.695389 0
M  V30 4 C 11.820146 9.488219 -5.895558 0
M  V30 5 C 12.460589 7.111652 -2.613280 0
M  V30 6 C 11.434839 7.392851 -4.691421 0
M  V30 7 O 11.488815 6.649723 -3.536146 0
M  V30 8 C 10.975644 6.798128 -5.880627 0
M  V30 9 C 10.949813 7.537350 -7.076190 0
M  V30 10 F 10.522456 6.956271 -8.221168 0
M  V30 11 C 11.376119 8.877725 -7.085497 0
M  V30 12 H 11.245280 8.749306 -1.891666 0
M  V30 13 H 12.962948 8.969302 -1.628429 0
M  V30 14 H 12.145803 10.517956 -5.906159 0
M  V30 15 H 12.397137 6.525736 -1.696415 0
M  V30 16 H 13.456911 6.969301 -3.028576 0
M  V30 17 H 10.655073 5.769644 -5.878264 0
M  V30 18 H 11.364311 9.436063 -8.007625 0
M  V30 END ATOM
M  V30 BEGIN BOND
M  V30 1 1 2 1
M  V30 2 1 3 2
M  V30 3 1 4 3
M  V30 4 1 5 1
M  V30 5 2 6 3
M  V30 6 1 7 5
M  V30 7 1 7 6
M  V30 8 1 8 6
M  V30 9 2 9 8
M  V30 10 1 10 9
M  V30 11 2 11 4
M  V30 12 1 11 9
M  V30 13 1 12 1
M  V30 14 1 13 1
M  V30 15 1 14 4
M  V30 16 1 15 5
M  V30 17 1 16 5
M  V30 18 1 17 8
M  V30 19 1 18 11
M  V30 END BOND
M  V30 END CTAB
M  END
>  <i_epik_Tot_Q>  (1) 
0

>  <i_epik_Tot_abs_Q>  (1) 
0

>  <i_i_glide_confnum>  (1) 
2

>  <i_i_glide_lignum>  (1) 
72

>  <i_i_glide_posenum>  (1) 
35

>  <i_i_glide_rotatable_bonds>  (1) 
0

>  <i_lp_mmshare_version>  (1) 
72125

>  <i_m_source_file_index>  (1) 
66

>  <i_f3d_flags>  (1) 
0

>  <num_sample>  (1) 
100

>  <b_lp_Chiralities_Consistent>  (1) 
1

>  <r_epik_Charging_Adjusted_Penalty>  (1) 
0

>  <r_epik_Ionization_Penalty>  (1) 
0

>  <r_epik_Ionization_Penalty_Charging>  (1) 
0

>  <r_epik_Ionization_Penalty_Neutral>  (1) 
0

>  <r_epik_State_Penalty>  (1) 
-0

>  <r_glide_ring_energy>  (1) 
0.0030884427186306492

>  <r_i_docking_score>  (1) 
-6.0917750200435421

>  <r_i_glide_ecoul>  (1) 
0.29564021409257379

>  <r_i_glide_eff_state_penalty>  (1) 
-0

>  <r_i_glide_einternal>  (1) 
0

>  <r_i_glide_emodel>  (1) 
-30.413527304193138

>  <r_i_glide_emodel_strain>  (1) 
0

>  <r_i_glide_energy>  (1) 
-21.868973561025982

>  <r_i_glide_erotb>  (1) 
0

>  <r_i_glide_esite>  (1) 
-0.030971196147843702

>  <r_i_glide_evdw>  (1) 
-22.164613775118557

>  <r_i_glide_gscore>  (1) 
-6.0917750200435421

>  <r_i_glide_gscore_strain>  (1) 
0

>  <r_i_glide_hbond>  (1) 
0

>  <r_i_glide_ligand_efficiency>  (1) 
-0.55379772909486746

>  <r_i_glide_ligand_efficiency_ln>  (1) 
-1.7928083507490211

>  <r_i_glide_ligand_efficiency_sa>  (1) 
-1.2316351237094847

>  <r_i_glide_lipo>  (1) 
-2.1084386422798511

>  <r_i_glide_metal>  (1) 
-0

>  <r_i_glide_rewards>  (1) 
-2.8884805249738053

>  <r_lp_Energy>  (1) 
15.305638999999999

>  <r_lp_tautomer_probability>  (1) 
1

>  <s_epik_cmdline>  (1) 
J2VwaWtfcHl0aG9uJywgJy1waHQnLCAnMS4wJywgJy1waCcsICc3LjQnLCAnLXRuJywgJzgnLCAnLW1hJywgJzUwMCcsICctaW1hZScsICc8aW5maWxlLm1hZT4nLCAnLW9tYWUnLCAnPG91dGZpbGUubWFlPic=

>  <s_epik_input>  (1) 
TzFbQ0gyXVtDSDJdT2MoYzEyKVtjSF1jKEYpW2NIXVtjSF0y

>  <s_glide_docking_method>  (1) 
confgen

>  <s_i_glide_gridfile>  (1) 
gpcr_drd2_6luq_protein_autoprepared_prepared

>  <s_lp_Force_Field>  (1) 
S-OPLS

>  <s_lp_Variant>  (1) 
Pocket2Mol_65_num_sample_100-1

>  <s_m_source_file>  (1) 
generated__ligand_Pocket2Mol_2026-05-06_prepared.sdf

>  <GenAI_Model>  (1) 
Pocket2Mol

>  <Protein>  (1) 
generic_title2

$$$$
Pocket2Mol_59_num_sample_100
     RDKit          3D

  0  0  0  0  0  0  0  0  0  0999 V3000
M  V30 BEGIN CTAB
M  V30 COUNTS 17 18 0 0 1
M  V30 BEGIN ATOM
M  V30 1 C 9.834839 7.728151 -7.499303 0
M  V30 2 O 10.495322 8.969259 -7.055701 0
M  V30 3 C 11.046423 8.593706 -5.884476 0
M  V30 4 C 10.904625 7.314091 -5.558059 0
M  V30 5 C 11.434894 6.797254 -4.362348 0
M  V30 6 N 12.124943 7.628353 -3.492093 0 CHG=1
M  V30 7 C 10.160149 6.510299 -6.529907 0
M  V30 8 O 12.617331 7.173228 -2.395885 0 CHG=-1
M  V30 9 C 12.267016 8.968068 -3.835834 0
M  V30 10 C 11.724529 9.464431 -5.045841 0
M  V30 11 H 10.123644 7.492688 -8.524186 0
M  V30 12 H 8.759707 7.912164 -7.505020 0
M  V30 13 H 11.352770 5.769303 -4.044119 0
M  V30 14 H 10.788041 5.754814 -7.002709 0
M  V30 15 H 9.261059 6.070471 -6.100542 0
M  V30 16 H 12.809949 9.563824 -3.117969 0
M  V30 17 H 11.834688 10.504798 -5.312765 0
M  V30 END ATOM
M  V30 BEGIN BOND
M  V30 1 1 2 1
M  V30 2 1 3 2
M  V30 3 2 4 3
M  V30 4 1 5 4
M  V30 5 2 6 5
M  V30 6 1 7 1
M  V30 7 1 7 4
M  V30 8 1 8 6
M  V30 9 1 9 6
M  V30 10 1 10 3
M  V30 11 2 10 9
M  V30 12 1 11 1
M  V30 13 1 12 1
M  V30 14 1 13 5
M  V30 15 1 14 7
M  V30 16 1 15 7
M  V30 17 1 16 9
M  V30 18 1 17 10
M  V30 END BOND
M  V30 END CTAB
M  END
>  <i_epik_Tot_Q>  (1) 
0

>  <i_epik_Tot_abs_Q>  (1) 
2

>  <i_i_glide_confnum>  (1) 
1

>  <i_i_glide_lignum>  (1) 
66

>  <i_i_glide_posenum>  (1) 
66

>  <i_i_glide_rotatable_bonds>  (1) 
0

>  <i_lp_mmshare_version>  (1) 
72125

>  <i_m_source_file_index>  (1) 
60

>  <i_f3d_flags>  (1) 
0

>  <num_sample>  (1) 
100

>  <b_lp_Chiralities_Consistent>  (1) 
1

>  <r_epik_Charging_Adjusted_Penalty>  (1) 
1.5203065777176405e-06

>  <r_epik_Ionization_Penalty>  (1) 
1.5203065777176405e-06

>  <r_epik_Ionization_Penalty_Charging>  (1) 
1.5203065777176405e-06

>  <r_epik_Ionization_Penalty_Neutral>  (1) 
0

>  <r_epik_State_Penalty>  (1) 
-0

>  <r_glide_ring_energy>  (1) 
0

>  <r_i_docking_score>  (1) 
-6.0906576805378441

>  <r_i_glide_ecoul>  (1) 
-1.6089123501588112

>  <r_i_glide_eff_state_penalty>  (1) 
-0

>  <r_i_glide_einternal>  (1) 
0

>  <r_i_glide_emodel>  (1) 
-28.655366128445788

>  <r_i_glide_emodel_strain>  (1) 
0

>  <r_i_glide_energy>  (1) 
-19.559094787713065

>  <r_i_glide_erotb>  (1) 
0

>  <r_i_glide_esite>  (1) 
0

>  <r_i_glide_evdw>  (1) 
-17.950182437554254

>  <r_i_glide_gscore>  (1) 
-6.0906576805378441

>  <r_i_glide_gscore_strain>  (1) 
0

>  <r_i_glide_hbond>  (1) 
0

>  <r_i_glide_ligand_efficiency>  (1) 
-0.60906576805378443

>  <r_i_glide_ligand_efficiency_ln>  (1) 
-1.8442091601086339

>  <r_i_glide_ligand_efficiency_sa>  (1) 
-1.3121924192059864

>  <r_i_glide_lipo>  (1) 
-1.6833323409339298

>  <r_i_glide_metal>  (1) 
-0

>  <r_i_glide_rewards>  (1) 
-3.2684793652023796

>  <r_lp_Energy>  (1) 
12.910414999999999

>  <r_lp_tautomer_probability>  (1) 
1

>  <s_epik_cmdline>  (1) 
J2VwaWtfcHl0aG9uJywgJy1waHQnLCAnMS4wJywgJy1waCcsICc3LjQnLCAnLXRuJywgJzgnLCAnLW1hJywgJzUwMCcsICctaW1hZScsICc8aW5maWxlLm1hZT4nLCAnLW9tYWUnLCAnPG91dGZpbGUubWFlPic=

>  <s_epik_input>  (1) 
TzFbQ0gyXVtDSDJdYyhjMTIpW2NIXVtuK10oW08tXSlbY0hdW2NIXTI=

>  <s_glide_docking_method>  (1) 
confgen

>  <s_i_glide_gridfile>  (1) 
gpcr_drd2_6luq_protein_autoprepared_prepared

>  <s_lp_Force_Field>  (1) 
S-OPLS

>  <s_lp_Variant>  (1) 
Pocket2Mol_59_num_sample_100-1

>  <s_m_source_file>  (1) 
generated__ligand_Pocket2Mol_2026-05-06_prepared.sdf

>  <GenAI_Model>  (1) 
Pocket2Mol

>  <Protein>  (1) 
generic_title2

$$$$
Pocket2Mol_94_num_sample_100
     RDKit          3D

  0  0  0  0  0  0  0  0  0  0999 V3000
M  V30 BEGIN CTAB
M  V30 COUNTS 24 25 0 0 1
M  V30 BEGIN ATOM
M  V30 1 C 12.104424 7.759675 -2.291669 0
M  V30 2 O 12.321496 8.995653 -3.072020 0
M  V30 3 C 11.884464 8.633880 -4.298816 0
M  V30 4 C 11.444941 7.362719 -4.414912 0
M  V30 5 C 10.959587 6.858549 -5.632887 0
M  V30 6 C 11.525435 6.569301 -3.185822 0
M  V30 7 C 11.886609 9.506737 -5.396827 0
M  V30 8 C 10.947192 7.698734 -6.770730 0
M  V30 9 N 10.433979 7.163832 -8.014939 0
M  V30 10 C 11.426069 9.044040 -6.647899 0
M  V30 11 C 10.489836 7.769301 -9.229734 0
M  V30 12 C 9.834933 7.016578 -10.383207 0
M  V30 13 O 11.034596 8.847933 -9.440133 0
M  V30 14 H 13.034839 7.461617 -1.811605 0
M  V30 15 H 11.401691 7.990889 -1.491667 0
M  V30 16 H 10.606932 5.839993 -5.700226 0
M  V30 17 H 10.560973 6.180207 -2.855033 0
M  V30 18 H 12.234838 5.753343 -3.295260 0
M  V30 19 H 12.238587 10.519946 -5.288266 0
M  V30 20 H 9.997825 6.254962 -7.968432 0
M  V30 21 H 11.434838 9.716142 -7.479535 0
M  V30 22 H 9.404581 6.068592 -10.058308 0
M  V30 23 H 9.034833 7.622276 -10.808662 0
M  V30 24 H 10.564881 6.815900 -11.167256 0
M  V30 END ATOM
M  V30 BEGIN BOND
M  V30 1 1 2 1
M  V30 2 1 3 2
M  V30 3 2 4 3
M  V30 4 1 5 4
M  V30 5 1 6 1
M  V30 6 1 6 4
M  V30 7 1 7 3
M  V30 8 2 8 5
M  V30 9 1 9 8
M  V30 10 2 10 7
M  V30 11 1 10 8
M  V30 12 1 11 9
M  V30 13 1 12 11
M  V30 14 2 13 11
M  V30 15 1 14 1
M  V30 16 1 15 1
M  V30 17 1 16 5
M  V30 18 1 17 6
M  V30 19 1 18 6
M  V30 20 1 19 7
M  V30 21 1 20 9
M  V30 22 1 21 10
M  V30 23 1 22 12
M  V30 24 1 23 12
M  V30 25 1 24 12
M  V30 END BOND
M  V30 END CTAB
M  END
>  <i_epik_Tot_Q>  (1) 
0

>  <i_epik_Tot_abs_Q>  (1) 
0

>  <i_i_glide_confnum>  (1) 
1

>  <i_i_glide_lignum>  (1) 
103

>  <i_i_glide_posenum>  (1) 
85

>  <i_i_glide_rotatable_bonds>  (1) 
2

>  <i_lp_mmshare_version>  (1) 
72125

>  <i_m_source_file_index>  (1) 
95

>  <i_f3d_flags>  (1) 
0

>  <num_sample>  (1) 
100

>  <b_lp_Chiralities_Consistent>  (1) 
1

>  <r_epik_Charging_Adjusted_Penalty>  (1) 
0

>  <r_epik_Ionization_Penalty>  (1) 
1.4103773659367358e-07

>  <r_epik_Ionization_Penalty_Charging>  (1) 
0

>  <r_epik_Ionization_Penalty_Neutral>  (1) 
1.4103773659367358e-07

>  <r_epik_State_Penalty>  (1) 
-0

>  <r_glide_ring_energy>  (1) 
0

>  <r_i_docking_score>  (1) 
-6.0862566691993187

>  <r_i_glide_ecoul>  (1) 
-1.7044338171608795

>  <r_i_glide_eff_state_penalty>  (1) 
-0

>  <r_i_glide_einternal>  (1) 
0.32071668623310945

>  <r_i_glide_emodel>  (1) 
-37.271815511948176

>  <r_i_glide_emodel_strain>  (1) 
0.026938442105851834

>  <r_i_glide_energy>  (1) 
-27.751692319842757

>  <r_i_glide_erotb>  (1) 
0

>  <r_i_glide_esite>  (1) 
-0.057259169741288488

>  <r_i_glide_evdw>  (1) 
-26.047258502681878

>  <r_i_glide_gscore>  (1) 
-6.0862566691993187

>  <r_i_glide_gscore_strain>  (1) 
0

>  <r_i_glide_hbond>  (1) 
0

>  <r_i_glide_ligand_efficiency>  (1) 
-0.46817358993840913

>  <r_i_glide_ligand_efficiency_ln>  (1) 
-1.7072491244400476

>  <r_i_glide_ligand_efficiency_sa>  (1) 
-1.1008328018969353

>  <r_i_glide_lipo>  (1) 
-1.9151142598062958

>  <r_i_glide_metal>  (1) 
-0

>  <r_i_glide_rewards>  (1) 
-2.5558552419435081

>  <r_lp_Energy>  (1) 
14.229996

>  <r_lp_tautomer_probability>  (1) 
1

>  <s_epik_cmdline>  (1) 
J2VwaWtfcHl0aG9uJywgJy1waHQnLCAnMS4wJywgJy1waCcsICc3LjQnLCAnLXRuJywgJzgnLCAnLW1hJywgJzUwMCcsICctaW1hZScsICc8aW5maWxlLm1hZT4nLCAnLW9tYWUnLCAnPG91dGZpbGUubWFlPic=

>  <s_epik_input>  (1) 
TzFbQ0gyXVtDSDJdYyhjMTIpW2NIXWMoW2NIXVtjSF0yKVtOSF1DKD1PKVtDSDNd

>  <s_glide_docking_method>  (1) 
confgen

>  <s_i_glide_gridfile>  (1) 
gpcr_drd2_6luq_protein_autoprepared_prepared

>  <s_lp_Force_Field>  (1) 
S-OPLS

>  <s_lp_Variant>  (1) 
Pocket2Mol_94_num_sample_100-1

>  <s_m_source_file>  (1) 
generated__ligand_Pocket2Mol_2026-05-06_prepared.sdf

>  <GenAI_Model>  (1) 
Pocket2Mol

>  <Protein>  (1) 
generic_title2

$$$$
Pocket2Mol_72_num_sample_100
     RDKit          3D

  0  0  0  0  0  0  0  0  0  0999 V3000
M  V30 BEGIN CTAB
M  V30 COUNTS 18 19 0 0 1
M  V30 BEGIN ATOM
M  V30 1 C 12.596697 7.191170 -2.659991 0
M  V30 2 O 11.617553 6.661490 -3.534674 0
M  V30 3 C 11.434793 7.384066 -4.691632 0
M  V30 4 C 10.841744 6.769112 -5.807563 0
M  V30 5 C 12.309947 8.676377 -2.440009 0
M  V30 6 C 11.834879 8.744343 -4.767011 0
M  V30 7 O 12.407881 9.369345 -3.678751 0
M  V30 8 C 10.665255 7.484760 -7.002738 0
M  V30 9 C 11.653459 9.456572 -5.969721 0
M  V30 10 F 12.033141 10.747366 -6.053699 0
M  V30 11 C 11.076895 8.823520 -7.086198 0
M  V30 12 H 12.569252 6.645421 -1.716937 0
M  V30 13 H 13.586934 7.049856 -3.091752 0
M  V30 14 H 10.525926 5.749545 -5.747568 0
M  V30 15 H 11.327952 8.827307 -1.997308 0
M  V30 16 H 13.035008 9.088394 -1.740912 0
M  V30 17 H 10.213633 7.003963 -7.858821 0
M  V30 18 H 10.946728 9.369301 -8.007756 0
M  V30 END ATOM
M  V30 BEGIN BOND
M  V30 1 1 2 1
M  V30 2 1 3 2
M  V30 3 2 4 3
M  V30 4 1 5 1
M  V30 5 1 6 3
M  V30 6 1 7 5
M  V30 7 1 7 6
M  V30 8 1 8 4
M  V30 9 2 9 6
M  V30 10 1 10 9
M  V30 11 2 11 8
M  V30 12 1 11 9
M  V30 13 1 12 1
M  V30 14 1 13 1
M  V30 15 1 14 4
M  V30 16 1 15 5
M  V30 17 1 16 5
M  V30 18 1 17 8
M  V30 19 1 18 11
M  V30 END BOND
M  V30 END CTAB
M  END
>  <i_epik_Tot_Q>  (1) 
0

>  <i_epik_Tot_abs_Q>  (1) 
0

>  <i_i_glide_confnum>  (1) 
2

>  <i_i_glide_lignum>  (1) 
79

>  <i_i_glide_posenum>  (1) 
274

>  <i_i_glide_rotatable_bonds>  (1) 
0

>  <i_lp_mmshare_version>  (1) 
72125

>  <i_m_source_file_index>  (1) 
73

>  <i_f3d_flags>  (1) 
0

>  <num_sample>  (1) 
100

>  <b_lp_Chiralities_Consistent>  (1) 
1

>  <r_epik_Charging_Adjusted_Penalty>  (1) 
0

>  <r_epik_Ionization_Penalty>  (1) 
0

>  <r_epik_Ionization_Penalty_Charging>  (1) 
0

>  <r_epik_Ionization_Penalty_Neutral>  (1) 
0

>  <r_epik_State_Penalty>  (1) 
-0

>  <r_glide_ring_energy>  (1) 
0.0030882705297212471

>  <r_i_docking_score>  (1) 
-6.0854095503722201

>  <r_i_glide_ecoul>  (1) 
-0.64958067205568493

>  <r_i_glide_eff_state_penalty>  (1) 
-0

>  <r_i_glide_einternal>  (1) 
0

>  <r_i_glide_emodel>  (1) 
-28.481974100765846

>  <r_i_glide_emodel_strain>  (1) 
7.3159611702067195e-10

>  <r_i_glide_energy>  (1) 
-20.510377425542899

>  <r_i_glide_erotb>  (1) 
0

>  <r_i_glide_esite>  (1) 
0

>  <r_i_glide_evdw>  (1) 
-19.860796753487215

>  <r_i_glide_gscore>  (1) 
-6.0854095503722201

>  <r_i_glide_gscore_strain>  (1) 
0

>  <r_i_glide_hbond>  (1) 
0

>  <r_i_glide_ligand_efficiency>  (1) 
-0.5532190500338382

>  <r_i_glide_ligand_efficiency_ln>  (1) 
-1.7909349941090209

>  <r_i_glide_ligand_efficiency_sa>  (1) 
-1.2303481529989262

>  <r_i_glide_lipo>  (1) 
-2.0528830282467712

>  <r_i_glide_metal>  (1) 
-0

>  <r_i_glide_rewards>  (1) 
-2.9420495836427358

>  <r_lp_Energy>  (1) 
17.335863

>  <r_lp_tautomer_probability>  (1) 
1

>  <s_epik_cmdline>  (1) 
J2VwaWtfcHl0aG9uJywgJy1waHQnLCAnMS4wJywgJy1waCcsICc3LjQnLCAnLXRuJywgJzgnLCAnLW1hJywgJzUwMCcsICctaW1hZScsICc8aW5maWxlLm1hZT4nLCAnLW9tYWUnLCAnPG91dGZpbGUubWFlPic=

>  <s_epik_input>  (1) 
TzFbQ0gyXVtDSDJdT2MoYzEyKWMoRilbY0hdW2NIXVtjSF0y

>  <s_glide_docking_method>  (1) 
confgen

>  <s_i_glide_gridfile>  (1) 
gpcr_drd2_6luq_protein_autoprepared_prepared

>  <s_lp_Force_Field>  (1) 
S-OPLS

>  <s_lp_Variant>  (1) 
Pocket2Mol_72_num_sample_100-1

>  <s_m_source_file>  (1) 
generated__ligand_Pocket2Mol_2026-05-06_prepared.sdf

>  <GenAI_Model>  (1) 
Pocket2Mol

>  <Protein>  (1) 
generic_title2

$$$$
Pocket2Mol_64_num_sample_100
     RDKit          3D

  0  0  0  0  0  0  0  0  0  0999 V3000
M  V30 BEGIN CTAB
M  V30 COUNTS 16 17 0 0 1
M  V30 BEGIN ATOM
M  V30 1 C 12.130304 7.234363 -2.425597 0
M  V30 2 O 11.629719 6.573981 -3.518259 0
M  V30 3 C 11.434840 7.309722 -4.664673 0
M  V30 4 C 11.745521 8.692515 -4.693118 0
M  V30 5 C 11.540271 9.432559 -5.875228 0
M  V30 6 C 10.922704 6.681250 -5.816789 0
M  V30 7 C 10.719340 7.424914 -6.995611 0
M  V30 8 O 12.246416 9.316496 -3.573044 0
M  V30 9 C 12.425595 8.547543 -2.451823 0
M  V30 10 F 11.834839 10.754118 -5.909815 0
M  V30 11 C 11.027949 8.799053 -7.024277 0
M  V30 12 H 12.253710 6.588429 -1.568889 0
M  V30 13 H 10.685855 5.627596 -5.795483 0
M  V30 14 H 10.326590 6.941323 -7.877971 0
M  V30 15 H 12.820871 9.110879 -1.619442 0
M  V30 16 H 10.872022 9.369275 -7.928142 0
M  V30 END ATOM
M  V30 BEGIN BOND
M  V30 1 1 2 1
M  V30 2 1 3 2
M  V30 3 1 4 3
M  V30 4 2 5 4
M  V30 5 2 6 3
M  V30 6 1 7 6
M  V30 7 1 8 4
M  V30 8 2 9 1
M  V30 9 1 9 8
M  V30 10 1 10 5
M  V30 11 1 11 5
M  V30 12 2 11 7
M  V30 13 1 12 1
M  V30 14 1 13 6
M  V30 15 1 14 7
M  V30 16 1 15 9
M  V30 17 1 16 11
M  V30 END BOND
M  V30 END CTAB
M  END
>  <i_epik_Tot_Q>  (1) 
0

>  <i_epik_Tot_abs_Q>  (1) 
0

>  <i_i_glide_confnum>  (1) 
1

>  <i_i_glide_lignum>  (1) 
71

>  <i_i_glide_posenum>  (1) 
330

>  <i_i_glide_rotatable_bonds>  (1) 
0

>  <i_lp_mmshare_version>  (1) 
72125

>  <i_m_source_file_index>  (1) 
65

>  <i_f3d_flags>  (1) 
0

>  <num_sample>  (1) 
100

>  <b_lp_Chiralities_Consistent>  (1) 
1

>  <r_epik_Charging_Adjusted_Penalty>  (1) 
0

>  <r_epik_Ionization_Penalty>  (1) 
0

>  <r_epik_Ionization_Penalty_Charging>  (1) 
0

>  <r_epik_Ionization_Penalty_Neutral>  (1) 
0

>  <r_epik_State_Penalty>  (1) 
-0

>  <r_glide_ring_energy>  (1) 
0

>  <r_i_docking_score>  (1) 
-6.0853934311145936

>  <r_i_glide_ecoul>  (1) 
-0.96728076399958096

>  <r_i_glide_eff_state_penalty>  (1) 
-0

>  <r_i_glide_einternal>  (1) 
0

>  <r_i_glide_emodel>  (1) 
-28.369628754471016

>  <r_i_glide_emodel_strain>  (1) 
0

>  <r_i_glide_energy>  (1) 
-20.683646934430836

>  <r_i_glide_erotb>  (1) 
0

>  <r_i_glide_esite>  (1) 
0

>  <r_i_glide_evdw>  (1) 
-19.716366170431254

>  <r_i_glide_gscore>  (1) 
-6.0853934311145936

>  <r_i_glide_gscore_strain>  (1) 
0

>  <r_i_glide_hbond>  (1) 
0

>  <r_i_glide_ligand_efficiency>  (1) 
-0.55321758464678128

>  <r_i_glide_ligand_efficiency_ln>  (1) 
-1.7909302502142472

>  <r_i_glide_ligand_efficiency_sa>  (1) 
-1.2303448940072867

>  <r_i_glide_lipo>  (1) 
-2.0605047096536735

>  <r_i_glide_metal>  (1) 
-0

>  <r_i_glide_rewards>  (1) 
-2.8939782983394209

>  <r_lp_Energy>  (1) 
23.975801000000001

>  <r_lp_tautomer_probability>  (1) 
1

>  <s_epik_cmdline>  (1) 
J2VwaWtfcHl0aG9uJywgJy1waHQnLCAnMS4wJywgJy1waCcsICc3LjQnLCAnLXRuJywgJzgnLCAnLW1hJywgJzUwMCcsICctaW1hZScsICc8aW5maWxlLm1hZT4nLCAnLW9tYWUnLCAnPG91dGZpbGUubWFlPic=

>  <s_epik_input>  (1) 
TzFbQ0hdPVtDSF1PYyhjMTIpYyhGKVtjSF1bY0hdW2NIXTI=

>  <s_glide_docking_method>  (1) 
confgen

>  <s_i_glide_gridfile>  (1) 
gpcr_drd2_6luq_protein_autoprepared_prepared

>  <s_lp_Force_Field>  (1) 
S-OPLS

>  <s_lp_Variant>  (1) 
Pocket2Mol_64_num_sample_100-1

>  <s_m_source_file>  (1) 
generated__ligand_Pocket2Mol_2026-05-06_prepared.sdf

>  <GenAI_Model>  (1) 
Pocket2Mol

>  <Protein>  (1) 
generic_title2

$$$$
Pocket2Mol_98_num_sample_100
     RDKit          3D

  0  0  0  0  0  0  0  0  0  0999 V3000
M  V30 BEGIN CTAB
M  V30 COUNTS 24 25 0 0 1
M  V30 BEGIN ATOM
M  V30 1 C 12.098359 7.755194 -2.298707 0
M  V30 2 O 12.311372 8.994478 -3.074447 0
M  V30 3 C 11.875428 8.636709 -4.303004 0
M  V30 4 C 11.435146 7.366423 -4.423330 0
M  V30 5 C 10.951677 6.865816 -5.643456 0
M  V30 6 C 11.517318 6.569216 -3.196863 0
M  V30 7 C 10.942414 7.709301 -6.779077 0
M  V30 8 N 10.431437 7.178429 -8.026114 0
M  V30 9 C 11.881101 9.512436 -5.398233 0
M  V30 10 C 11.422804 9.053928 -6.651422 0
M  V30 11 C 10.488857 7.788348 -9.238769 0
M  V30 12 O 11.034128 8.867689 -9.444486 0
M  V30 13 C 9.835138 7.040268 -10.396093 0
M  V30 14 H 13.034832 7.456178 -1.829876 0
M  V30 15 H 11.401290 7.980310 -1.491667 0
M  V30 16 H 10.599158 5.847473 -5.714541 0
M  V30 17 H 10.555231 6.173751 -2.865468 0
M  V30 18 H 12.234400 5.759269 -3.309179 0
M  V30 19 H 12.234994 10.524471 -5.285721 0
M  V30 20 H 11.434775 9.728326 -7.480958 0
M  V30 21 H 9.348293 6.122813 -10.064064 0
M  V30 22 H 9.076884 7.671169 -10.861003 0
M  V30 23 H 10.578861 6.784971 -11.150767 0
M  V30 24 H 9.995180 6.269616 -7.983386 0
M  V30 END ATOM
M  V30 BEGIN BOND
M  V30 1 1 2 1
M  V30 2 1 3 2
M  V30 3 2 4 3
M  V30 4 1 5 4
M  V30 5 1 6 1
M  V30 6 1 6 4
M  V30 7 2 7 5
M  V30 8 1 8 7
M  V30 9 1 9 3
M  V30 10 1 10 7
M  V30 11 2 10 9
M  V30 12 1 11 8
M  V30 13 2 12 11
M  V30 14 1 13 11
M  V30 15 1 14 1
M  V30 16 1 15 1
M  V30 17 1 16 5
M  V30 18 1 17 6
M  V30 19 1 18 6
M  V30 20 1 19 9
M  V30 21 1 20 10
M  V30 22 1 21 13
M  V30 23 1 22 13
M  V30 24 1 23 13
M  V30 25 1 24 8
M  V30 END BOND
M  V30 END CTAB
M  END
>  <i_epik_Tot_Q>  (1) 
0

>  <i_epik_Tot_abs_Q>  (1) 
0

>  <i_i_glide_confnum>  (1) 
1

>  <i_i_glide_lignum>  (1) 
107

>  <i_i_glide_posenum>  (1) 
127

>  <i_i_glide_rotatable_bonds>  (1) 
2

>  <i_lp_mmshare_version>  (1) 
72125

>  <i_m_source_file_index>  (1) 
99

>  <i_f3d_flags>  (1) 
0

>  <num_sample>  (1) 
100

>  <b_lp_Chiralities_Consistent>  (1) 
1

>  <r_epik_Charging_Adjusted_Penalty>  (1) 
0

>  <r_epik_Ionization_Penalty>  (1) 
1.4103773659367358e-07

>  <r_epik_Ionization_Penalty_Charging>  (1) 
0

>  <r_epik_Ionization_Penalty_Neutral>  (1) 
1.4103773659367358e-07

>  <r_epik_State_Penalty>  (1) 
-0

>  <r_glide_ring_energy>  (1) 
0

>  <r_i_docking_score>  (1) 
-6.0749202103195694

>  <r_i_glide_ecoul>  (1) 
-1.7031508817066641

>  <r_i_glide_eff_state_penalty>  (1) 
-0

>  <r_i_glide_einternal>  (1) 
0.3003475744148183

>  <r_i_glide_emodel>  (1) 
-37.247955905422174

>  <r_i_glide_emodel_strain>  (1) 
0.048110553472824336

>  <r_i_glide_energy>  (1) 
-27.745665827988717

>  <r_i_glide_erotb>  (1) 
0

>  <r_i_glide_esite>  (1) 
-0.058251659134430783

>  <r_i_glide_evdw>  (1) 
-26.042514946282051

>  <r_i_glide_gscore>  (1) 
-6.0749202103195694

>  <r_i_glide_gscore_strain>  (1) 
0

>  <r_i_glide_hbond>  (1) 
0

>  <r_i_glide_ligand_efficiency>  (1) 
-0.46730155463996687

>  <r_i_glide_ligand_efficiency_ln>  (1) 
-1.7040691469023521

>  <r_i_glide_ligand_efficiency_sa>  (1) 
-1.0987823550507911

>  <r_i_glide_lipo>  (1) 
-1.9039718929200895

>  <r_i_glide_metal>  (1) 
-0

>  <r_i_glide_rewards>  (1) 
-2.5550982786949472

>  <r_lp_Energy>  (1) 
14.229996

>  <r_lp_tautomer_probability>  (1) 
1

>  <s_epik_cmdline>  (1) 
J2VwaWtfcHl0aG9uJywgJy1waHQnLCAnMS4wJywgJy1waCcsICc3LjQnLCAnLXRuJywgJzgnLCAnLW1hJywgJzUwMCcsICctaW1hZScsICc8aW5maWxlLm1hZT4nLCAnLW9tYWUnLCAnPG91dGZpbGUubWFlPic=

>  <s_epik_input>  (1) 
TzFbQ0gyXVtDSDJdYyhjMTIpW2NIXWMoW2NIXVtjSF0yKS9OPUMoXFtPSF0pW0NIM10=

>  <s_glide_docking_method>  (1) 
confgen

>  <s_i_glide_gridfile>  (1) 
gpcr_drd2_6luq_protein_autoprepared_prepared

>  <s_lp_Force_Field>  (1) 
S-OPLS

>  <s_lp_Variant>  (1) 
Pocket2Mol_98_num_sample_100-1

>  <s_m_source_file>  (1) 
generated__ligand_Pocket2Mol_2026-05-06_prepared.sdf

>  <GenAI_Model>  (1) 
Pocket2Mol

>  <Protein>  (1) 
generic_title2

$$$$
Pocket2Mol_63_num_sample_100
     RDKit          3D

  0  0  0  0  0  0  0  0  0  0999 V3000
M  V30 BEGIN CTAB
M  V30 COUNTS 19 20 0 0 1
M  V30 BEGIN ATOM
M  V30 1 C 12.634838 8.423851 -2.074447 0
M  V30 2 O 12.351767 9.397442 -3.009539 0
M  V30 3 C 11.859579 8.764755 -4.120059 0
M  V30 4 C 11.834833 7.381861 -3.891799 0
M  V30 5 C 11.343054 6.569319 -4.942115 0
M  V30 6 C 10.894003 7.144152 -6.159185 0
M  V30 7 O 10.414626 6.321595 -7.154508 0
M  V30 8 C 11.434839 9.364912 -5.307601 0
M  V30 9 C 12.338286 7.168187 -2.570151 0
M  V30 10 C 10.944729 8.552477 -6.340746 0
M  V30 11 C 9.434699 6.847891 -8.040571 0
M  V30 12 H 13.032349 8.775472 -1.132843 0
M  V30 13 H 11.300492 5.501380 -4.811246 0
M  V30 14 H 11.478362 10.437269 -5.426105 0
M  V30 15 H 12.453189 6.216907 -2.070677 0
M  V30 16 H 10.610009 8.997985 -7.264265 0
M  V30 17 H 8.976837 6.028695 -8.594846 0
M  V30 18 H 8.635439 7.357935 -7.497814 0
M  V30 19 H 9.871840 7.529192 -8.770957 0
M  V30 END ATOM
M  V30 BEGIN BOND
M  V30 1 1 2 1
M  V30 2 1 3 2
M  V30 3 1 4 3
M  V30 4 2 5 4
M  V30 5 1 6 5
M  V30 6 1 7 6
M  V30 7 2 8 3
M  V30 8 2 9 1
M  V30 9 1 9 4
M  V30 10 2 10 6
M  V30 11 1 10 8
M  V30 12 1 11 7
M  V30 13 1 12 1
M  V30 14 1 13 5
M  V30 15 1 14 8
M  V30 16 1 15 9
M  V30 17 1 16 10
M  V30 18 1 17 11
M  V30 19 1 18 11
M  V30 20 1 19 11
M  V30 END BOND
M  V30 END CTAB
M  END
>  <i_epik_Tot_Q>  (1) 
0

>  <i_epik_Tot_abs_Q>  (1) 
0

>  <i_i_glide_confnum>  (1) 
1

>  <i_i_glide_lignum>  (1) 
70

>  <i_i_glide_posenum>  (1) 
42

>  <i_i_glide_rotatable_bonds>  (1) 
1

>  <i_lp_mmshare_version>  (1) 
72125

>  <i_m_source_file_index>  (1) 
64

>  <i_f3d_flags>  (1) 
0

>  <num_sample>  (1) 
100

>  <b_lp_Chiralities_Consistent>  (1) 
1

>  <r_epik_Charging_Adjusted_Penalty>  (1) 
0

>  <r_epik_Ionization_Penalty>  (1) 
0

>  <r_epik_Ionization_Penalty_Charging>  (1) 
0

>  <r_epik_Ionization_Penalty_Neutral>  (1) 
0

>  <r_epik_State_Penalty>  (1) 
-0

>  <r_glide_ring_energy>  (1) 
0

>  <r_i_docking_score>  (1) 
-6.0739694416736043

>  <r_i_glide_ecoul>  (1) 
-1.1600462450598628

>  <r_i_glide_eff_state_penalty>  (1) 
-0

>  <r_i_glide_einternal>  (1) 
4.5699849379050965

>  <r_i_glide_emodel>  (1) 
-30.893785489644856

>  <r_i_glide_emodel_strain>  (1) 
0.15532093816221604

>  <r_i_glide_energy>  (1) 
-24.217179224890781

>  <r_i_glide_erotb>  (1) 
0

>  <r_i_glide_esite>  (1) 
0

>  <r_i_glide_evdw>  (1) 
-23.057132979830918

>  <r_i_glide_gscore>  (1) 
-6.0739694416736043

>  <r_i_glide_gscore_strain>  (1) 
0

>  <r_i_glide_hbond>  (1) 
0

>  <r_i_glide_ligand_efficiency>  (1) 
-0.55217904015214581

>  <r_i_glide_ligand_efficiency_ln>  (1) 
-1.787568172067683

>  <r_i_glide_ligand_efficiency_sa>  (1) 
-1.2280351917280472

>  <r_i_glide_lipo>  (1) 
-2.2739415183070779

>  <r_i_glide_metal>  (1) 
-0

>  <r_i_glide_rewards>  (1) 
-2.4731643376160006

>  <r_lp_Energy>  (1) 
14.639571

>  <r_lp_tautomer_probability>  (1) 
1

>  <s_epik_cmdline>  (1) 
J2VwaWtfcHl0aG9uJywgJy1waHQnLCAnMS4wJywgJy1waCcsICc3LjQnLCAnLXRuJywgJzgnLCAnLW1hJywgJzUwMCcsICctaW1hZScsICc8aW5maWxlLm1hZT4nLCAnLW9tYWUnLCAnPG91dGZpbGUubWFlPic=

>  <s_epik_input>  (1) 
bzFbY0hdW2NIXWMoYzEyKVtjSF1jKE9bQ0gzXSlbY0hdW2NIXTI=

>  <s_glide_docking_method>  (1) 
confgen

>  <s_i_glide_gridfile>  (1) 
gpcr_drd2_6luq_protein_autoprepared_prepared

>  <s_lp_Force_Field>  (1) 
S-OPLS

>  <s_lp_Variant>  (1) 
Pocket2Mol_63_num_sample_100-1

>  <s_m_source_file>  (1) 
generated__ligand_Pocket2Mol_2026-05-06_prepared.sdf

>  <GenAI_Model>  (1) 
Pocket2Mol

>  <Protein>  (1) 
generic_title2

$$$$
Pocket2Mol_0_num_sample_100
     RDKit          3D

  0  0  0  0  0  0  0  0  0  0999 V3000
M  V30 BEGIN CTAB
M  V30 COUNTS 21 23 0 0 1
M  V30 BEGIN ATOM
M  V30 1 C 12.459892 8.151797 -1.955381 0
M  V30 2 O 12.128196 6.884666 -2.638399 0
M  V30 3 C 11.834837 7.314895 -3.888043 0
M  V30 4 C 12.020227 8.618018 -4.112724 0
M  V30 5 C 11.762335 9.196675 -5.359868 0
M  V30 6 C 12.496905 9.369307 -2.969153 0
M  V30 7 C 11.343213 6.471833 -4.884944 0
M  V30 8 C 11.276423 8.395776 -6.422425 0
M  V30 9 N 11.034839 8.938895 -7.638826 0
M  V30 10 C 10.515651 8.114227 -8.567786 0
M  V30 11 C 11.043870 6.985003 -6.172227 0
M  V30 12 C 10.277836 6.756982 -8.323747 0
M  V30 13 N 10.556473 6.172229 -7.144258 0
M  V30 14 H 13.399448 8.090751 -1.408638 0
M  V30 15 H 11.685394 8.334046 -1.209513 0
M  V30 16 H 11.931287 10.252391 -5.513161 0
M  V30 17 H 13.492781 9.761981 -3.153062 0
M  V30 18 H 11.812159 10.169299 -2.686824 0
M  V30 19 H 11.184929 5.427443 -4.673201 0
M  V30 20 H 10.282626 8.550368 -9.528037 0
M  V30 21 H 9.858003 6.124054 -9.091993 0
M  V30 END ATOM
M  V30 BEGIN BOND
M  V30 1 1 2 1
M  V30 2 1 3 2
M  V30 3 1 4 3
M  V30 4 2 5 4
M  V30 5 1 6 1
M  V30 6 1 6 4
M  V30 7 2 7 3
M  V30 8 1 8 5
M  V30 9 2 9 8
M  V30 10 1 10 9
M  V30 11 1 11 7
M  V30 12 1 11 8
M  V30 13 2 12 10
M  V30 14 2 13 11
M  V30 15 1 13 12
M  V30 16 1 14 1
M  V30 17 1 15 1
M  V30 18 1 16 5
M  V30 19 1 17 6
M  V30 20 1 18 6
M  V30 21 1 19 7
M  V30 22 1 20 10
M  V30 23 1 21 12
M  V30 END BOND
M  V30 END CTAB
M  END
>  <i_epik_Tot_Q>  (1) 
0

>  <i_epik_Tot_abs_Q>  (1) 
0

>  <i_i_glide_confnum>  (1) 
1

>  <i_i_glide_lignum>  (1) 
1

>  <i_i_glide_posenum>  (1) 
93

>  <i_i_glide_rotatable_bonds>  (1) 
0

>  <i_lp_mmshare_version>  (1) 
72125

>  <i_m_source_file_index>  (1) 
1

>  <i_f3d_flags>  (1) 
0

>  <num_sample>  (1) 
100

>  <b_lp_Chiralities_Consistent>  (1) 
1

>  <r_epik_Charging_Adjusted_Penalty>  (1) 
0

>  <r_epik_Ionization_Penalty>  (1) 
2.4588925185764017e-06

>  <r_epik_Ionization_Penalty_Charging>  (1) 
0

>  <r_epik_Ionization_Penalty_Neutral>  (1) 
2.4588925185764017e-06

>  <r_epik_State_Penalty>  (1) 
-0

>  <r_glide_ring_energy>  (1) 
0

>  <r_i_docking_score>  (1) 
-6.0716687340848292

>  <r_i_glide_ecoul>  (1) 
-0.8619686708000267

>  <r_i_glide_eff_state_penalty>  (1) 
-0

>  <r_i_glide_einternal>  (1) 
0

>  <r_i_glide_emodel>  (1) 
-32.638827996159037

>  <r_i_glide_emodel_strain>  (1) 
0

>  <r_i_glide_energy>  (1) 
-23.086562937036206

>  <r_i_glide_erotb>  (1) 
0

>  <r_i_glide_esite>  (1) 
0

>  <r_i_glide_evdw>  (1) 
-22.224594266236178

>  <r_i_glide_gscore>  (1) 
-6.0716687340848292

>  <r_i_glide_gscore_strain>  (1) 
0

>  <r_i_glide_hbond>  (1) 
0

>  <r_i_glide_ligand_efficiency>  (1) 
-0.46705144108344843

>  <r_i_glide_ligand_efficiency_ln>  (1) 
-1.7031570789011798

>  <r_i_glide_ligand_efficiency_sa>  (1) 
-1.09819425436948

>  <r_i_glide_lipo>  (1) 
-2.1651369477468414

>  <r_i_glide_metal>  (1) 
-0

>  <r_i_glide_rewards>  (1) 
-2.6660067724061758

>  <r_lp_Energy>  (1) 
22.769921999999998

>  <r_lp_tautomer_probability>  (1) 
1

>  <s_epik_cmdline>  (1) 
J2VwaWtfcHl0aG9uJywgJy1waHQnLCAnMS4wJywgJy1waCcsICc3LjQnLCAnLXRuJywgJzgnLCAnLW1hJywgJzUwMCcsICctaW1hZScsICc8aW5maWxlLm1hZT4nLCAnLW9tYWUnLCAnPG91dGZpbGUubWFlPic=

>  <s_epik_input>  (1) 
TzFbQ0gyXVtDSDJdYyhjMTIpW2NIXWMzYyhbY0hdMiluW2NIXVtjSF1uMw==

>  <s_glide_docking_method>  (1) 
confgen

>  <s_i_glide_gridfile>  (1) 
gpcr_drd2_6luq_protein_autoprepared_prepared

>  <s_lp_Force_Field>  (1) 
S-OPLS

>  <s_lp_Variant>  (1) 
Pocket2Mol_0_num_sample_100-1

>  <s_m_source_file>  (1) 
generated__ligand_Pocket2Mol_2026-05-06_prepared.sdf

>  <GenAI_Model>  (1) 
Pocket2Mol

>  <Protein>  (1) 
generic_title2

$$$$
Pocket2Mol_84_num_sample_100
     RDKit          3D

  0  0  0  0  0  0  0  0  0  0999 V3000
M  V30 BEGIN CTAB
M  V30 COUNTS 23 24 0 0 1
M  V30 BEGIN ATOM
M  V30 1 C 12.409340 7.980189 -2.775909 0
M  V30 2 O 12.460878 9.138994 -3.692877 0
M  V30 3 C 11.834863 8.654666 -4.787214 0
M  V30 4 C 11.379431 7.388435 -4.691685 0
M  V30 5 C 10.700745 6.768741 -5.752095 0
M  V30 6 C 11.631743 6.732533 -3.403871 0
M  V30 7 C 10.500252 7.484337 -6.958845 0
M  V30 8 N 9.798365 6.895166 -8.038573 0
M  V30 9 C 11.664909 9.401080 -5.963688 0
M  V30 10 C 10.996436 8.811551 -7.061382 0
M  V30 11 O 10.096732 7.453387 -9.289968 0
M  V30 12 C 9.898296 5.444285 -8.146956 0
M  V30 13 H 11.943573 8.287404 -1.838915 0
M  V30 14 H 13.434596 7.698649 -2.538415 0
M  V30 15 H 10.329781 5.769236 -5.641914 0
M  V30 16 H 10.708053 6.491053 -2.879284 0
M  V30 17 H 12.234884 5.833310 -3.504059 0
M  V30 18 H 12.039570 10.411975 -6.029482 0
M  V30 19 H 10.860153 9.369301 -7.971359 0
M  V30 20 H 9.256403 7.768807 -9.607109 0
M  V30 21 H 9.170419 4.969379 -7.491542 0
M  V30 22 H 9.672789 5.107075 -9.159377 0
M  V30 23 H 10.896149 5.086399 -7.891754 0
M  V30 END ATOM
M  V30 BEGIN BOND
M  V30 1 1 2 1
M  V30 2 1 3 2
M  V30 3 2 4 3
M  V30 4 1 5 4
M  V30 5 1 6 1
M  V30 6 1 6 4
M  V30 7 2 7 5
M  V30 8 1 8 7
M  V30 9 1 9 3
M  V30 10 1 10 7
M  V30 11 2 10 9
M  V30 12 1 11 8
M  V30 13 1 12 8
M  V30 14 1 13 1
M  V30 15 1 14 1
M  V30 16 1 15 5
M  V30 17 1 16 6
M  V30 18 1 17 6
M  V30 19 1 18 9
M  V30 20 1 19 10
M  V30 21 1 20 11
M  V30 22 1 21 12
M  V30 23 1 22 12
M  V30 24 1 23 12
M  V30 END BOND
M  V30 END CTAB
M  END
>  <i_epik_Tot_Q>  (1) 
0

>  <i_epik_Tot_abs_Q>  (1) 
0

>  <i_i_glide_confnum>  (1) 
1

>  <i_i_glide_lignum>  (1) 
91

>  <i_i_glide_posenum>  (1) 
41

>  <i_i_glide_rotatable_bonds>  (1) 
2

>  <i_lp_mmshare_version>  (1) 
72125

>  <i_m_source_file_index>  (1) 
85

>  <i_f3d_flags>  (1) 
0

>  <num_sample>  (1) 
100

>  <b_lp_Chiralities_Consistent>  (1) 
1

>  <r_epik_Charging_Adjusted_Penalty>  (1) 
0

>  <r_epik_Ionization_Penalty>  (1) 
0.00097486698469066322

>  <r_epik_Ionization_Penalty_Charging>  (1) 
0

>  <r_epik_Ionization_Penalty_Neutral>  (1) 
0.00097486698469066322

>  <r_epik_State_Penalty>  (1) 
-0

>  <r_glide_ring_energy>  (1) 
0

>  <r_i_docking_score>  (1) 
-6.0541546108948303

>  <r_i_glide_ecoul>  (1) 
-2.2070122237567755

>  <r_i_glide_eff_state_penalty>  (1) 
-0

>  <r_i_glide_einternal>  (1) 
0.1537571285256969

>  <r_i_glide_emodel>  (1) 
-34.086272506432792

>  <r_i_glide_emodel_strain>  (1) 
0

>  <r_i_glide_energy>  (1) 
-23.96165177502116

>  <r_i_glide_erotb>  (1) 
0

>  <r_i_glide_esite>  (1) 
-0.063387712092025802

>  <r_i_glide_evdw>  (1) 
-21.754639551264386

>  <r_i_glide_gscore>  (1) 
-6.0541546108948303

>  <r_i_glide_gscore_strain>  (1) 
0

>  <r_i_glide_hbond>  (1) 
-0.043812892677610134

>  <r_i_glide_ligand_efficiency>  (1) 
-0.50451288424123586

>  <r_i_glide_ligand_efficiency_ln>  (1) 
-1.7372501531032767

>  <r_i_glide_ligand_efficiency_sa>  (1) 
-1.1550461682852062

>  <r_i_glide_lipo>  (1) 
-1.9069195188448993

>  <r_i_glide_metal>  (1) 
-0

>  <r_i_glide_rewards>  (1) 
-2.6212506761535597

>  <r_lp_Energy>  (1) 
21.474352

>  <r_lp_tautomer_probability>  (1) 
1

>  <s_epik_Chemistry_Notes>  (1) 
This compound has a N-S or N-O group and may undergo hydrolysis at high or low pH.

>  <s_epik_cmdline>  (1) 
J2VwaWtfcHl0aG9uJywgJy1waHQnLCAnMS4wJywgJy1waCcsICc3LjQnLCAnLXRuJywgJzgnLCAnLW1hJywgJzUwMCcsICctaW1hZScsICc8aW5maWxlLm1hZT4nLCAnLW9tYWUnLCAnPG91dGZpbGUubWFlPic=

>  <s_epik_input>  (1) 
TzFbQ0gyXVtDSDJdYyhjMTIpW2NIXWMoTihbT0hdKVtDSDNdKVtjSF1bY0hdMg==

>  <s_glide_docking_method>  (1) 
confgen

>  <s_i_glide_gridfile>  (1) 
gpcr_drd2_6luq_protein_autoprepared_prepared

>  <s_lp_Force_Field>  (1) 
S-OPLS

>  <s_lp_Variant>  (1) 
Pocket2Mol_84_num_sample_100-1

>  <s_m_source_file>  (1) 
generated__ligand_Pocket2Mol_2026-05-06_prepared.sdf

>  <GenAI_Model>  (1) 
Pocket2Mol

>  <Protein>  (1) 
generic_title2

$$$$
Pocket2Mol_41_num_sample_100
     RDKit          3D

  0  0  0  0  0  0  0  0  0  0999 V3000
M  V30 BEGIN CTAB
M  V30 COUNTS 15 16 0 0 1
M  V30 BEGIN ATOM
M  V30 1 C 10.606844 6.945278 -6.830279 0
M  V30 2 O 11.035342 6.169299 -5.677487 0
M  V30 3 C 11.434828 7.065823 -4.737458 0
M  V30 4 C 11.434845 8.388453 -5.091630 0
M  V30 5 C 11.832707 9.383474 -4.190752 0
M  V30 6 C 11.834839 6.669135 -3.447868 0
M  V30 7 C 12.236604 7.650045 -2.516076 0
M  V30 8 S 10.936510 8.761724 -6.681903 0
M  V30 9 C 12.234868 9.013813 -2.889092 0
M  V30 10 H 11.101681 6.563499 -7.723450 0
M  V30 11 H 9.535518 6.796425 -6.970840 0
M  V30 12 H 11.826669 10.419706 -4.489421 0
M  V30 13 H 11.833298 5.627455 -3.173320 0
M  V30 14 H 12.544997 7.359914 -1.522662 0
M  V30 15 H 12.541208 9.769283 -2.181455 0
M  V30 END ATOM
M  V30 BEGIN BOND
M  V30 1 1 2 1
M  V30 2 1 3 2
M  V30 3 1 4 3
M  V30 4 2 5 4
M  V30 5 2 6 3
M  V30 6 1 7 6
M  V30 7 1 8 1
M  V30 8 1 8 4
M  V30 9 1 9 5
M  V30 10 2 9 7
M  V30 11 1 10 1
M  V30 12 1 11 1
M  V30 13 1 12 5
M  V30 14 1 13 6
M  V30 15 1 14 7
M  V30 16 1 15 9
M  V30 END BOND
M  V30 END CTAB
M  END
>  <i_epik_Tot_Q>  (1) 
0

>  <i_epik_Tot_abs_Q>  (1) 
0

>  <i_i_glide_confnum>  (1) 
1

>  <i_i_glide_lignum>  (1) 
46

>  <i_i_glide_posenum>  (1) 
55

>  <i_i_glide_rotatable_bonds>  (1) 
0

>  <i_lp_mmshare_version>  (1) 
72125

>  <i_m_source_file_index>  (1) 
42

>  <i_f3d_flags>  (1) 
0

>  <num_sample>  (1) 
100

>  <b_lp_Chiralities_Consistent>  (1) 
1

>  <r_epik_Charging_Adjusted_Penalty>  (1) 
0

>  <r_epik_Ionization_Penalty>  (1) 
0

>  <r_epik_Ionization_Penalty_Charging>  (1) 
0

>  <r_epik_Ionization_Penalty_Neutral>  (1) 
0

>  <r_epik_State_Penalty>  (1) 
-0

>  <r_glide_ring_energy>  (1) 
0

>  <r_i_docking_score>  (1) 
-6.0535333954754913

>  <r_i_glide_ecoul>  (1) 
-0.54156861694065594

>  <r_i_glide_eff_state_penalty>  (1) 
-0

>  <r_i_glide_einternal>  (1) 
0

>  <r_i_glide_emodel>  (1) 
-28.596256702945613

>  <r_i_glide_emodel_strain>  (1) 
0

>  <r_i_glide_energy>  (1) 
-20.642768223734329

>  <r_i_glide_erotb>  (1) 
0

>  <r_i_glide_esite>  (1) 
0

>  <r_i_glide_evdw>  (1) 
-20.101199606793674

>  <r_i_glide_gscore>  (1) 
-6.0535333954754913

>  <r_i_glide_gscore_strain>  (1) 
0

>  <r_i_glide_hbond>  (1) 
0

>  <r_i_glide_ligand_efficiency>  (1) 
-0.67261482171949905

>  <r_i_glide_ligand_efficiency_ln>  (1) 
-1.8933713441296691

>  <r_i_glide_ligand_efficiency_sa>  (1) 
-1.3990952098036706

>  <r_i_glide_lipo>  (1) 
-2.1778077228055341

>  <r_i_glide_metal>  (1) 
-0

>  <r_i_glide_rewards>  (1) 
-2.789430399789175

>  <r_lp_Energy>  (1) 
5.8399909999999995

>  <r_lp_tautomer_probability>  (1) 
1

>  <s_epik_Chemistry_Notes>  (1) 
This compound contains an acetal/aminal-like group ( X-CH(R)-Y where X, Y are N, S, or O) that may be acid/base labile, releasing an aldehyde.

>  <s_epik_cmdline>  (1) 
J2VwaWtfcHl0aG9uJywgJy1waHQnLCAnMS4wJywgJy1waCcsICc3LjQnLCAnLXRuJywgJzgnLCAnLW1hJywgJzUwMCcsICctaW1hZScsICc8aW5maWxlLm1hZT4nLCAnLW9tYWUnLCAnPG91dGZpbGUubWFlPic=

>  <s_epik_input>  (1) 
TzFbQ0gyXVNjKGMxMilbY0hdW2NIXVtjSF1bY0hdMg==

>  <s_glide_docking_method>  (1) 
confgen

>  <s_i_glide_gridfile>  (1) 
gpcr_drd2_6luq_protein_autoprepared_prepared

>  <s_lp_Force_Field>  (1) 
S-OPLS

>  <s_lp_Variant>  (1) 
Pocket2Mol_41_num_sample_100-1

>  <s_m_source_file>  (1) 
generated__ligand_Pocket2Mol_2026-05-06_prepared.sdf

>  <GenAI_Model>  (1) 
Pocket2Mol

>  <Protein>  (1) 
generic_title2

$$$$
Pocket2Mol_50_num_sample_100
     RDKit          3D

  0  0  0  0  0  0  0  0  0  0999 V3000
M  V30 BEGIN CTAB
M  V30 COUNTS 16 17 0 0 1
M  V30 BEGIN ATOM
M  V30 1 C 11.694917 9.416363 -5.278606 0
M  V30 2 O 10.417613 8.878837 -5.729873 0
M  V30 3 C 10.734880 8.569309 -6.986918 0
M  V30 4 C 11.998097 8.834410 -7.311147 0
M  V30 5 C 12.503983 8.569301 -8.594713 0
M  V30 6 C 9.834839 8.023590 -7.910465 0
M  V30 7 C 10.288364 7.750047 -9.220183 0
M  V30 8 O 9.434839 7.235985 -10.145277 0
M  V30 9 C 11.636674 8.020339 -9.565256 0
M  V30 10 O 12.715837 9.369302 -6.318777 0
M  V30 11 H 11.547858 10.454083 -4.976509 0
M  V30 12 H 12.037890 8.845342 -4.414816 0
M  V30 13 H 13.532907 8.790233 -8.837520 0
M  V30 14 H 8.810853 7.822423 -7.627590 0
M  V30 15 H 8.514172 7.369301 -9.892924 0
M  V30 16 H 11.995661 7.814159 -10.562656 0
M  V30 END ATOM
M  V30 BEGIN BOND
M  V30 1 1 2 1
M  V30 2 1 3 2
M  V30 3 2 4 3
M  V30 4 1 5 4
M  V30 5 1 6 3
M  V30 6 2 7 6
M  V30 7 1 8 7
M  V30 8 2 9 5
M  V30 9 1 9 7
M  V30 10 1 10 1
M  V30 11 1 10 4
M  V30 12 1 11 1
M  V30 13 1 12 1
M  V30 14 1 13 5
M  V30 15 1 14 6
M  V30 16 1 15 8
M  V30 17 1 16 9
M  V30 END BOND
M  V30 END CTAB
M  END
>  <i_epik_Tot_Q>  (1) 
0

>  <i_epik_Tot_abs_Q>  (1) 
0

>  <i_i_glide_confnum>  (1) 
1

>  <i_i_glide_lignum>  (1) 
57

>  <i_i_glide_posenum>  (1) 
287

>  <i_i_glide_rotatable_bonds>  (1) 
1

>  <i_lp_mmshare_version>  (1) 
72125

>  <i_m_source_file_index>  (1) 
51

>  <i_f3d_flags>  (1) 
0

>  <num_sample>  (1) 
100

>  <b_lp_Chiralities_Consistent>  (1) 
1

>  <r_epik_Charging_Adjusted_Penalty>  (1) 
0

>  <r_epik_Ionization_Penalty>  (1) 
0.0018243540331301816

>  <r_epik_Ionization_Penalty_Charging>  (1) 
0

>  <r_epik_Ionization_Penalty_Neutral>  (1) 
0.0018243540331301816

>  <r_epik_State_Penalty>  (1) 
-0

>  <r_glide_ring_energy>  (1) 
0

>  <r_i_docking_score>  (1) 
-6.0496651304606335

>  <r_i_glide_ecoul>  (1) 
-5.5261232768038244

>  <r_i_glide_eff_state_penalty>  (1) 
-0

>  <r_i_glide_einternal>  (1) 
0.39453432427523272

>  <r_i_glide_emodel>  (1) 
-32.116672787669721

>  <r_i_glide_emodel_strain>  (1) 
0.015183859376890041

>  <r_i_glide_energy>  (1) 
-22.637043405838078

>  <r_i_glide_erotb>  (1) 
0

>  <r_i_glide_esite>  (1) 
0

>  <r_i_glide_evdw>  (1) 
-17.110920129034252

>  <r_i_glide_gscore>  (1) 
-6.0496651304606335

>  <r_i_glide_gscore_strain>  (1) 
0

>  <r_i_glide_hbond>  (1) 
-0.16

>  <r_i_glide_ligand_efficiency>  (1) 
-0.6049665130460633

>  <r_i_glide_ligand_efficiency_ln>  (1) 
-1.8317968985247703

>  <r_i_glide_ligand_efficiency_sa>  (1) 
-1.3033608420140652

>  <r_i_glide_lipo>  (1) 
-0.99295769805593426

>  <r_i_glide_metal>  (1) 
-0

>  <r_i_glide_rewards>  (1) 
-3.2122429344324122

>  <r_lp_Energy>  (1) 
16.555202999999999

>  <r_lp_tautomer_probability>  (1) 
1

>  <s_epik_Chemistry_Notes>  (1) 
This compound contains an acetal/aminal-like group ( X-CH(R)-Y where X, Y are N, S, or O) that may be acid/base labile, releasing an aldehyde.

>  <s_epik_cmdline>  (1) 
J2VwaWtfcHl0aG9uJywgJy1waHQnLCAnMS4wJywgJy1waCcsICc3LjQnLCAnLXRuJywgJzgnLCAnLW1hJywgJzUwMCcsICctaW1hZScsICc8aW5maWxlLm1hZT4nLCAnLW9tYWUnLCAnPG91dGZpbGUubWFlPic=

>  <s_epik_input>  (1) 
TzFbQ0gyXU9jKGMxMilbY0hdW2NIXWMoW2NIXTIpW09IXQ==

>  <s_glide_docking_method>  (1) 
confgen

>  <s_i_glide_gridfile>  (1) 
gpcr_drd2_6luq_protein_autoprepared_prepared

>  <s_lp_Force_Field>  (1) 
S-OPLS

>  <s_lp_Variant>  (1) 
Pocket2Mol_50_num_sample_100-1

>  <s_m_source_file>  (1) 
generated__ligand_Pocket2Mol_2026-05-06_prepared.sdf

>  <GenAI_Model>  (1) 
Pocket2Mol

>  <Protein>  (1) 
generic_title2

$$$$
Pocket2Mol_57_num_sample_100
     RDKit          3D

  0  0  0  0  0  0  0  0  0  0999 V3000
M  V30 BEGIN CTAB
M  V30 COUNTS 18 19 0 0 1
M  V30 BEGIN ATOM
M  V30 1 C 11.767647 9.942745 -6.291803 0
M  V30 2 O 11.847457 10.113220 -4.917223 0
M  V30 3 C 11.862514 8.954150 -4.190432 0
M  V30 4 C 11.434873 7.749005 -4.776578 0
M  V30 5 C 11.434840 6.563154 -4.027632 0
M  V30 6 C 12.299387 8.968319 -2.856483 0
M  V30 7 C 12.311127 7.780546 -2.109003 0
M  V30 8 C 10.968893 7.745425 -6.213558 0
M  V30 9 C 11.875277 6.576621 -2.690809 0
M  V30 10 O 10.743446 9.071516 -6.666235 0
M  V30 11 H 11.560256 10.931371 -6.692659 0
M  V30 12 H 12.725327 9.600903 -6.690249 0
M  V30 13 H 11.099973 5.642368 -4.476836 0
M  V30 14 H 12.628938 9.890355 -2.406572 0
M  V30 15 H 12.653426 7.793846 -1.091503 0
M  V30 16 H 11.726142 7.266992 -6.836499 0
M  V30 17 H 10.047047 7.170939 -6.310678 0
M  V30 18 H 11.879583 5.665279 -2.113245 0
M  V30 END ATOM
M  V30 BEGIN BOND
M  V30 1 1 2 1
M  V30 2 1 3 2
M  V30 3 1 4 3
M  V30 4 2 5 4
M  V30 5 2 6 3
M  V30 6 1 7 6
M  V30 7 1 8 4
M  V30 8 1 9 5
M  V30 9 2 9 7
M  V30 10 1 10 1
M  V30 11 1 10 8
M  V30 12 1 11 1
M  V30 13 1 12 1
M  V30 14 1 13 5
M  V30 15 1 14 6
M  V30 16 1 15 7
M  V30 17 1 16 8
M  V30 18 1 17 8
M  V30 19 1 18 9
M  V30 END BOND
M  V30 END CTAB
M  END
>  <i_epik_Tot_Q>  (1) 
0

>  <i_epik_Tot_abs_Q>  (1) 
0

>  <i_i_glide_confnum>  (1) 
1

>  <i_i_glide_lignum>  (1) 
64

>  <i_i_glide_posenum>  (1) 
18

>  <i_i_glide_rotatable_bonds>  (1) 
0

>  <i_lp_mmshare_version>  (1) 
72125

>  <i_m_source_file_index>  (1) 
58

>  <i_f3d_flags>  (1) 
0

>  <num_sample>  (1) 
100

>  <b_lp_Chiralities_Consistent>  (1) 
1

>  <r_epik_Charging_Adjusted_Penalty>  (1) 
0

>  <r_epik_Ionization_Penalty>  (1) 
5.7885637950061117e-15

>  <r_epik_Ionization_Penalty_Charging>  (1) 
0

>  <r_epik_Ionization_Penalty_Neutral>  (1) 
5.7885637950061117e-15

>  <r_epik_State_Penalty>  (1) 
-0

>  <r_glide_ring_energy>  (1) 
0

>  <r_i_docking_score>  (1) 
-6.0484681216245768

>  <r_i_glide_ecoul>  (1) 
-1.3374944999107876

>  <r_i_glide_eff_state_penalty>  (1) 
-0

>  <r_i_glide_einternal>  (1) 
0

>  <r_i_glide_emodel>  (1) 
-27.994492430818973

>  <r_i_glide_emodel_strain>  (1) 
0

>  <r_i_glide_energy>  (1) 
-20.103530158344192

>  <r_i_glide_erotb>  (1) 
0

>  <r_i_glide_esite>  (1) 
0

>  <r_i_glide_evdw>  (1) 
-18.766035658433406

>  <r_i_glide_gscore>  (1) 
-6.0484681216245768

>  <r_i_glide_gscore_strain>  (1) 
0

>  <r_i_glide_hbond>  (1) 
0

>  <r_i_glide_ligand_efficiency>  (1) 
-0.60484681216245773

>  <r_i_glide_ligand_efficiency_ln>  (1) 
-1.831434452500716

>  <r_i_glide_ligand_efficiency_sa>  (1) 
-1.3031029542779977

>  <r_i_glide_lipo>  (1) 
-1.8317475001427916

>  <r_i_glide_metal>  (1) 
-0

>  <r_i_glide_rewards>  (1) 
-3.0777946635734974

>  <r_lp_Energy>  (1) 
18.330197999999999

>  <r_lp_tautomer_probability>  (1) 
1

>  <s_epik_Chemistry_Notes>  (1) 
This compound contains an acetal/aminal-like group ( X-CH(R)-Y where X, Y are N, S, or O) that may be acid/base labile, releasing an aldehyde.

>  <s_epik_cmdline>  (1) 
J2VwaWtfcHl0aG9uJywgJy1waHQnLCAnMS4wJywgJy1waCcsICc3LjQnLCAnLXRuJywgJzgnLCAnLW1hJywgJzUwMCcsICctaW1hZScsICc8aW5maWxlLm1hZT4nLCAnLW9tYWUnLCAnPG91dGZpbGUubWFlPic=

>  <s_epik_input>  (1) 
TzFbQ0gyXU9bQ0gyXWMoYzEyKVtjSF1bY0hdW2NIXVtjSF0y

>  <s_glide_docking_method>  (1) 
confgen

>  <s_i_glide_gridfile>  (1) 
gpcr_drd2_6luq_protein_autoprepared_prepared

>  <s_lp_Force_Field>  (1) 
S-OPLS

>  <s_lp_Variant>  (1) 
Pocket2Mol_57_num_sample_100-1

>  <s_m_source_file>  (1) 
generated__ligand_Pocket2Mol_2026-05-06_prepared.sdf

>  <GenAI_Model>  (1) 
Pocket2Mol

>  <Protein>  (1) 
generic_title2

$$$$
Pocket2Mol_67_num_sample_100
     RDKit          3D

  0  0  0  0  0  0  0  0  0  0999 V3000
M  V30 BEGIN CTAB
M  V30 COUNTS 21 22 0 0 1
M  V30 BEGIN ATOM
M  V30 1 C 9.565051 6.519066 -8.059385 0
M  V30 2 O 10.263065 6.168688 -6.875463 0
M  V30 3 C 10.858144 7.210182 -6.208283 0
M  V30 4 C 10.476772 7.407046 -8.907631 0
M  V30 5 O 10.749122 8.603530 -8.191927 0
M  V30 6 C 11.097353 8.442095 -6.868494 0
M  V30 7 C 11.693206 9.508168 -6.167553 0
M  V30 8 C 11.233882 7.050732 -4.860719 0
M  V30 9 C 11.834838 8.121311 -4.163007 0
M  V30 10 C 12.237515 7.951806 -2.711255 0
M  V30 11 C 12.058990 9.350397 -4.816870 0
M  V30 12 H 8.635352 7.029562 -7.806602 0
M  V30 13 H 9.300582 5.610765 -8.601343 0
M  V30 14 H 9.995915 7.657015 -9.854357 0
M  V30 15 H 11.413451 6.899848 -9.140722 0
M  V30 16 H 11.870740 10.447936 -6.667697 0
M  V30 17 H 11.055919 6.108930 -4.360703 0
M  V30 18 H 11.975905 6.963278 -2.331237 0
M  V30 19 H 13.314433 8.084548 -2.605425 0
M  V30 20 H 11.741000 8.697620 -2.090312 0
M  V30 21 H 12.515445 10.169301 -4.283805 0
M  V30 END ATOM
M  V30 BEGIN BOND
M  V30 1 1 2 1
M  V30 2 1 3 2
M  V30 3 1 4 1
M  V30 4 1 5 4
M  V30 5 2 6 3
M  V30 6 1 6 5
M  V30 7 1 7 6
M  V30 8 1 8 3
M  V30 9 2 9 8
M  V30 10 1 10 9
M  V30 11 2 11 7
M  V30 12 1 11 9
M  V30 13 1 12 1
M  V30 14 1 13 1
M  V30 15 1 14 4
M  V30 16 1 15 4
M  V30 17 1 16 7
M  V30 18 1 17 8
M  V30 19 1 18 10
M  V30 20 1 19 10
M  V30 21 1 20 10
M  V30 22 1 21 11
M  V30 END BOND
M  V30 END CTAB
M  END
>  <i_epik_Tot_Q>  (1) 
0

>  <i_epik_Tot_abs_Q>  (1) 
0

>  <i_i_glide_confnum>  (1) 
2

>  <i_i_glide_lignum>  (1) 
74

>  <i_i_glide_posenum>  (1) 
177

>  <i_i_glide_rotatable_bonds>  (1) 
0

>  <i_lp_mmshare_version>  (1) 
72125

>  <i_m_source_file_index>  (1) 
68

>  <i_f3d_flags>  (1) 
0

>  <num_sample>  (1) 
100

>  <b_lp_Chiralities_Consistent>  (1) 
1

>  <r_epik_Charging_Adjusted_Penalty>  (1) 
0

>  <r_epik_Ionization_Penalty>  (1) 
0

>  <r_epik_Ionization_Penalty_Charging>  (1) 
0

>  <r_epik_Ionization_Penalty_Neutral>  (1) 
0

>  <r_epik_State_Penalty>  (1) 
-0

>  <r_glide_ring_energy>  (1) 
0.0030884536109969021

>  <r_i_docking_score>  (1) 
-6.0405008315794424

>  <r_i_glide_ecoul>  (1) 
-0.73683492806675843

>  <r_i_glide_eff_state_penalty>  (1) 
-0

>  <r_i_glide_einternal>  (1) 
0

>  <r_i_glide_emodel>  (1) 
-28.581267092175963

>  <r_i_glide_emodel_strain>  (1) 
0.0025627813986783821

>  <r_i_glide_energy>  (1) 
-20.823428206857756

>  <r_i_glide_erotb>  (1) 
0

>  <r_i_glide_esite>  (1) 
0

>  <r_i_glide_evdw>  (1) 
-20.086593278790996

>  <r_i_glide_gscore>  (1) 
-6.0405008315794424

>  <r_i_glide_gscore_strain>  (1) 
0

>  <r_i_glide_hbond>  (1) 
0

>  <r_i_glide_ligand_efficiency>  (1) 
-0.54913643923449473

>  <r_i_glide_ligand_efficiency_ln>  (1) 
-1.7777183658178868

>  <r_i_glide_ligand_efficiency_sa>  (1) 
-1.2212685078636432

>  <r_i_glide_lipo>  (1) 
-1.9477048253044058

>  <r_i_glide_metal>  (1) 
-0

>  <r_i_glide_rewards>  (1) 
-2.977941103125473

>  <r_lp_Energy>  (1) 
14.201067

>  <r_lp_tautomer_probability>  (1) 
1

>  <s_epik_cmdline>  (1) 
J2VwaWtfcHl0aG9uJywgJy1waHQnLCAnMS4wJywgJy1waCcsICc3LjQnLCAnLXRuJywgJzgnLCAnLW1hJywgJzUwMCcsICctaW1hZScsICc8aW5maWxlLm1hZT4nLCAnLW9tYWUnLCAnPG91dGZpbGUubWFlPic=

>  <s_epik_input>  (1) 
TzFbQ0gyXVtDSDJdT2MoYzEyKVtjSF1bY0hdYyhbY0hdMilbQ0gzXQ==

>  <s_glide_docking_method>  (1) 
confgen

>  <s_i_glide_gridfile>  (1) 
gpcr_drd2_6luq_protein_autoprepared_prepared

>  <s_lp_Force_Field>  (1) 
S-OPLS

>  <s_lp_Variant>  (1) 
Pocket2Mol_67_num_sample_100-1

>  <s_m_source_file>  (1) 
generated__ligand_Pocket2Mol_2026-05-06_prepared.sdf

>  <GenAI_Model>  (1) 
Pocket2Mol

>  <Protein>  (1) 
generic_title2

$$$$
Pocket2Mol_52_num_sample_100
     RDKit          3D

  0  0  0  0  0  0  0  0  0  0999 V3000
M  V30 BEGIN CTAB
M  V30 COUNTS 15 16 0 0 1
M  V30 BEGIN ATOM
M  V30 1 C 9.871448 7.716259 -7.479614 0
M  V30 2 O 10.407076 8.969301 -7.042015 0
M  V30 3 C 11.034842 8.676056 -5.842011 0
M  V30 4 C 10.881677 7.364637 -5.612032 0
M  V30 5 C 11.434839 6.809122 -4.436876 0
M  V30 6 C 11.708446 9.517438 -4.985117 0
M  V30 7 C 10.170795 6.696333 -6.588798 0
M  V30 8 N 12.130866 7.608120 -3.529147 0 CHG=1
M  V30 9 O 12.634798 7.103731 -2.460559 0 CHG=-1
M  V30 10 C 12.264535 8.969299 -3.807747 0
M  V30 11 H 9.327388 7.754301 -8.413920 0
M  V30 12 H 11.363908 5.769292 -4.161080 0
M  V30 13 H 11.807054 10.569293 -5.207945 0
M  V30 14 H 9.932480 5.646047 -6.597646 0
M  V30 15 H 12.811275 9.533390 -3.065327 0
M  V30 END ATOM
M  V30 BEGIN BOND
M  V30 1 1 2 1
M  V30 2 1 3 2
M  V30 3 1 4 3
M  V30 4 2 5 4
M  V30 5 2 6 3
M  V30 6 2 7 1
M  V30 7 1 7 4
M  V30 8 1 8 5
M  V30 9 1 9 8
M  V30 10 1 10 6
M  V30 11 2 10 8
M  V30 12 1 11 1
M  V30 13 1 12 5
M  V30 14 1 13 6
M  V30 15 1 14 7
M  V30 16 1 15 10
M  V30 END BOND
M  V30 END CTAB
M  END
>  <i_epik_Tot_Q>  (1) 
0

>  <i_epik_Tot_abs_Q>  (1) 
2

>  <i_i_glide_confnum>  (1) 
1

>  <i_i_glide_lignum>  (1) 
59

>  <i_i_glide_posenum>  (1) 
379

>  <i_i_glide_rotatable_bonds>  (1) 
0

>  <i_lp_mmshare_version>  (1) 
72125

>  <i_m_source_file_index>  (1) 
53

>  <i_f3d_flags>  (1) 
0

>  <num_sample>  (1) 
100

>  <b_lp_Chiralities_Consistent>  (1) 
1

>  <r_epik_Charging_Adjusted_Penalty>  (1) 
1.0992902245007022e-07

>  <r_epik_Ionization_Penalty>  (1) 
1.0992902245007022e-07

>  <r_epik_Ionization_Penalty_Charging>  (1) 
1.0992902245007022e-07

>  <r_epik_Ionization_Penalty_Neutral>  (1) 
0

>  <r_epik_State_Penalty>  (1) 
-0

>  <r_glide_ring_energy>  (1) 
0

>  <r_i_docking_score>  (1) 
-6.039230218659231

>  <r_i_glide_ecoul>  (1) 
-1.252243404065309

>  <r_i_glide_eff_state_penalty>  (1) 
-0

>  <r_i_glide_einternal>  (1) 
0

>  <r_i_glide_emodel>  (1) 
-27.621734894858584

>  <r_i_glide_emodel_strain>  (1) 
0

>  <r_i_glide_energy>  (1) 
-18.970202831061151

>  <r_i_glide_erotb>  (1) 
0

>  <r_i_glide_esite>  (1) 
0

>  <r_i_glide_evdw>  (1) 
-17.717959426995844

>  <r_i_glide_gscore>  (1) 
-6.039230218659231

>  <r_i_glide_gscore_strain>  (1) 
0

>  <r_i_glide_hbond>  (1) 
0

>  <r_i_glide_ligand_efficiency>  (1) 
-0.60392302186592306

>  <r_i_glide_ligand_efficiency_ln>  (1) 
-1.8286372791637011

>  <r_i_glide_ligand_efficiency_sa>  (1) 
-1.3011127084168288

>  <r_i_glide_lipo>  (1) 
-1.7085526329493121

>  <r_i_glide_metal>  (1) 
-0

>  <r_i_glide_rewards>  (1) 
-3.2569431037503298

>  <r_lp_Energy>  (1) 
10.75684

>  <r_lp_tautomer_probability>  (1) 
1

>  <s_epik_cmdline>  (1) 
J2VwaWtfcHl0aG9uJywgJy1waHQnLCAnMS4wJywgJy1waCcsICc3LjQnLCAnLXRuJywgJzgnLCAnLW1hJywgJzUwMCcsICctaW1hZScsICc8aW5maWxlLm1hZT4nLCAnLW9tYWUnLCAnPG91dGZpbGUubWFlPic=

>  <s_epik_input>  (1) 
bzFbY0hdW2NIXWMoYzEyKVtjSF1bbitdKFtPLV0pW2NIXVtjSF0y

>  <s_glide_docking_method>  (1) 
confgen

>  <s_i_glide_gridfile>  (1) 
gpcr_drd2_6luq_protein_autoprepared_prepared

>  <s_lp_Force_Field>  (1) 
S-OPLS

>  <s_lp_Variant>  (1) 
Pocket2Mol_52_num_sample_100-1

>  <s_m_source_file>  (1) 
generated__ligand_Pocket2Mol_2026-05-06_prepared.sdf

>  <GenAI_Model>  (1) 
Pocket2Mol

>  <Protein>  (1) 
generic_title2

$$$$
Pocket2Mol_49_num_sample_100
     RDKit          3D

  0  0  0  0  0  0  0  0  0  0999 V3000
M  V30 BEGIN CTAB
M  V30 COUNTS 20 21 0 0 1
M  V30 BEGIN ATOM
M  V30 1 C 11.856193 9.323972 -6.736100 0
M  V30 2 O 11.847787 9.788911 -5.392988 0
M  V30 3 C 11.849196 8.824741 -4.408749 0
M  V30 4 C 11.434832 7.497280 -4.692174 0
M  V30 5 C 11.452556 6.528585 -3.675918 0
M  V30 6 C 12.265504 9.161626 -3.105689 0
M  V30 7 C 12.283015 8.184848 -2.092884 0
M  V30 8 C 10.961728 7.116871 -6.087894 0
M  V30 9 C 11.879195 6.868199 -2.378306 0
M  V30 10 C 10.707752 8.344928 -6.957798 0
M  V30 11 H 11.788077 10.169336 -7.408769 0
M  V30 12 H 12.814447 8.857969 -6.965874 0
M  V30 13 H 11.136848 5.520942 -3.892038 0
M  V30 14 H 12.577919 10.169301 -2.884675 0
M  V30 15 H 12.607701 8.447667 -1.096480 0
M  V30 16 H 11.724736 6.488940 -6.551182 0
M  V30 17 H 10.055871 6.511593 -6.023106 0
M  V30 18 H 11.894000 6.117840 -1.601276 0
M  V30 19 H 9.769938 8.822280 -6.669161 0
M  V30 20 H 10.611681 8.067505 -8.008203 0
M  V30 END ATOM
M  V30 BEGIN BOND
M  V30 1 1 2 1
M  V30 2 1 3 2
M  V30 3 1 4 3
M  V30 4 2 5 4
M  V30 5 2 6 3
M  V30 6 1 7 6
M  V30 7 1 8 4
M  V30 8 1 9 5
M  V30 9 2 9 7
M  V30 10 1 10 1
M  V30 11 1 10 8
M  V30 12 1 11 1
M  V30 13 1 12 1
M  V30 14 1 13 5
M  V30 15 1 14 6
M  V30 16 1 15 7
M  V30 17 1 16 8
M  V30 18 1 17 8
M  V30 19 1 18 9
M  V30 20 1 19 10
M  V30 21 1 20 10
M  V30 END BOND
M  V30 END CTAB
M  END
>  <i_epik_Tot_Q>  (1) 
0

>  <i_epik_Tot_abs_Q>  (1) 
0

>  <i_i_glide_confnum>  (1) 
1

>  <i_i_glide_lignum>  (1) 
56

>  <i_i_glide_posenum>  (1) 
103

>  <i_i_glide_rotatable_bonds>  (1) 
0

>  <i_lp_mmshare_version>  (1) 
72125

>  <i_m_source_file_index>  (1) 
50

>  <i_f3d_flags>  (1) 
0

>  <num_sample>  (1) 
100

>  <b_lp_Chiralities_Consistent>  (1) 
1

>  <r_epik_Charging_Adjusted_Penalty>  (1) 
0

>  <r_epik_Ionization_Penalty>  (1) 
0

>  <r_epik_Ionization_Penalty_Charging>  (1) 
0

>  <r_epik_Ionization_Penalty_Neutral>  (1) 
0

>  <r_epik_State_Penalty>  (1) 
-0

>  <r_glide_ring_energy>  (1) 
0

>  <r_i_docking_score>  (1) 
-6.0360136940366509

>  <r_i_glide_ecoul>  (1) 
-1.4514011428344182

>  <r_i_glide_eff_state_penalty>  (1) 
-0

>  <r_i_glide_einternal>  (1) 
0

>  <r_i_glide_emodel>  (1) 
-28.758729037249829

>  <r_i_glide_emodel_strain>  (1) 
2.4687489386110428e-08

>  <r_i_glide_energy>  (1) 
-21.112194411159077

>  <r_i_glide_erotb>  (1) 
0

>  <r_i_glide_esite>  (1) 
0

>  <r_i_glide_evdw>  (1) 
-19.66079326832466

>  <r_i_glide_gscore>  (1) 
-6.0360136940366509

>  <r_i_glide_gscore_strain>  (1) 
0

>  <r_i_glide_hbond>  (1) 
0

>  <r_i_glide_ligand_efficiency>  (1) 
-0.60360136940366504

>  <r_i_glide_ligand_efficiency_ln>  (1) 
-1.8276633376808902

>  <r_i_glide_ligand_efficiency_sa>  (1) 
-1.3004197291940058

>  <r_i_glide_lipo>  (1) 
-2.2209028756479907

>  <r_i_glide_metal>  (1) 
-0

>  <r_i_glide_rewards>  (1) 
-2.6143609835472645

>  <r_lp_Energy>  (1) 
14.978437

>  <r_lp_tautomer_probability>  (1) 
1

>  <s_epik_cmdline>  (1) 
J2VwaWtfcHl0aG9uJywgJy1waHQnLCAnMS4wJywgJy1waCcsICc3LjQnLCAnLXRuJywgJzgnLCAnLW1hJywgJzUwMCcsICctaW1hZScsICc8aW5maWxlLm1hZT4nLCAnLW9tYWUnLCAnPG91dGZpbGUubWFlPic=

>  <s_epik_input>  (1) 
TzFbQ0gyXVtDSDJdW0NIMl1jKGMxMilbY0hdW2NIXVtjSF1bY0hdMg==

>  <s_glide_docking_method>  (1) 
confgen

>  <s_i_glide_gridfile>  (1) 
gpcr_drd2_6luq_protein_autoprepared_prepared

>  <s_lp_Force_Field>  (1) 
S-OPLS

>  <s_lp_Variant>  (1) 
Pocket2Mol_49_num_sample_100-1

>  <s_m_source_file>  (1) 
generated__ligand_Pocket2Mol_2026-05-06_prepared.sdf

>  <GenAI_Model>  (1) 
Pocket2Mol

>  <Protein>  (1) 
generic_title2

$$$$
Pocket2Mol_62_num_sample_100
     RDKit          3D

  0  0  0  0  0  0  0  0  0  0999 V3000
M  V30 BEGIN CTAB
M  V30 COUNTS 21 22 0 0 1
M  V30 BEGIN ATOM
M  V30 1 C 12.505138 8.529285 -2.043458 0
M  V30 2 O 12.235352 7.175036 -2.567191 0
M  V30 3 C 11.834903 7.440710 -3.830859 0
M  V30 4 C 11.834839 8.740475 -4.186179 0
M  V30 5 C 11.434840 9.154608 -5.470474 0
M  V30 6 C 11.018908 8.179270 -6.406552 0
M  V30 7 O 10.618625 8.569303 -7.666606 0
M  V30 8 C 12.259865 9.661765 -3.139709 0
M  V30 9 C 11.434835 6.443874 -4.727230 0
M  V30 10 C 11.022211 6.807418 -6.027542 0
M  V30 11 C 9.850447 7.666973 -8.453369 0
M  V30 12 H 13.530942 8.570840 -1.678718 0
M  V30 13 H 11.860787 8.702643 -1.180582 0
M  V30 14 H 11.438160 10.201838 -5.735646 0
M  V30 15 H 13.172538 10.169301 -3.442681 0
M  V30 16 H 11.455485 10.346691 -2.862319 0
M  V30 17 H 11.439566 5.409660 -4.426050 0
M  V30 18 H 10.711948 6.043570 -6.723548 0
M  V30 19 H 9.435143 8.199245 -9.309339 0
M  V30 20 H 10.465181 6.852379 -8.837826 0
M  V30 21 H 9.012631 7.253193 -7.890598 0
M  V30 END ATOM
M  V30 BEGIN BOND
M  V30 1 1 2 1
M  V30 2 1 3 2
M  V30 3 2 4 3
M  V30 4 1 5 4
M  V30 5 2 6 5
M  V30 6 1 7 6
M  V30 7 1 8 1
M  V30 8 1 8 4
M  V30 9 1 9 3
M  V30 10 1 10 6
M  V30 11 2 10 9
M  V30 12 1 11 7
M  V30 13 1 12 1
M  V30 14 1 13 1
M  V30 15 1 14 5
M  V30 16 1 15 8
M  V30 17 1 16 8
M  V30 18 1 17 9
M  V30 19 1 18 10
M  V30 20 1 19 11
M  V30 21 1 20 11
M  V30 22 1 21 11
M  V30 END BOND
M  V30 END CTAB
M  END
>  <i_epik_Tot_Q>  (1) 
0

>  <i_epik_Tot_abs_Q>  (1) 
0

>  <i_i_glide_confnum>  (1) 
1

>  <i_i_glide_lignum>  (1) 
69

>  <i_i_glide_posenum>  (1) 
318

>  <i_i_glide_rotatable_bonds>  (1) 
1

>  <i_lp_mmshare_version>  (1) 
72125

>  <i_m_source_file_index>  (1) 
63

>  <i_f3d_flags>  (1) 
0

>  <num_sample>  (1) 
100

>  <b_lp_Chiralities_Consistent>  (1) 
1

>  <r_epik_Charging_Adjusted_Penalty>  (1) 
0

>  <r_epik_Ionization_Penalty>  (1) 
0

>  <r_epik_Ionization_Penalty_Charging>  (1) 
0

>  <r_epik_Ionization_Penalty_Neutral>  (1) 
0

>  <r_epik_State_Penalty>  (1) 
-0

>  <r_glide_ring_energy>  (1) 
0

>  <r_i_docking_score>  (1) 
-6.0306326706854643

>  <r_i_glide_ecoul>  (1) 
-1.402611564317426

>  <r_i_glide_eff_state_penalty>  (1) 
-0

>  <r_i_glide_einternal>  (1) 
0.066107311678137215

>  <r_i_glide_emodel>  (1) 
-29.682374792256518

>  <r_i_glide_emodel_strain>  (1) 
0.0095041399106960966

>  <r_i_glide_energy>  (1) 
-21.186136872874485

>  <r_i_glide_erotb>  (1) 
0

>  <r_i_glide_esite>  (1) 
0

>  <r_i_glide_evdw>  (1) 
-19.78352530855706

>  <r_i_glide_gscore>  (1) 
-6.0306326706854643

>  <r_i_glide_gscore_strain>  (1) 
0

>  <r_i_glide_hbond>  (1) 
0

>  <r_i_glide_ligand_efficiency>  (1) 
-0.54823933369867861

>  <r_i_glide_ligand_efficiency_ln>  (1) 
-1.7748141677476941

>  <r_i_glide_ligand_efficiency_sa>  (1) 
-1.2192733630128485

>  <r_i_glide_lipo>  (1) 
-2.1446642226819681

>  <r_i_glide_metal>  (1) 
-0

>  <r_i_glide_rewards>  (1) 
-2.6864004479280288

>  <r_lp_Energy>  (1) 
15.977421

>  <r_lp_tautomer_probability>  (1) 
1

>  <s_epik_cmdline>  (1) 
J2VwaWtfcHl0aG9uJywgJy1waHQnLCAnMS4wJywgJy1waCcsICc3LjQnLCAnLXRuJywgJzgnLCAnLW1hJywgJzUwMCcsICctaW1hZScsICc8aW5maWxlLm1hZT4nLCAnLW9tYWUnLCAnPG91dGZpbGUubWFlPic=

>  <s_epik_input>  (1) 
TzFbQ0gyXVtDSDJdYyhjMTIpW2NIXWMoT1tDSDNdKVtjSF1bY0hdMg==

>  <s_glide_docking_method>  (1) 
confgen

>  <s_i_glide_gridfile>  (1) 
gpcr_drd2_6luq_protein_autoprepared_prepared

>  <s_lp_Force_Field>  (1) 
S-OPLS

>  <s_lp_Variant>  (1) 
Pocket2Mol_62_num_sample_100-1

>  <s_m_source_file>  (1) 
generated__ligand_Pocket2Mol_2026-05-06_prepared.sdf

>  <GenAI_Model>  (1) 
Pocket2Mol

>  <Protein>  (1) 
generic_title2

$$$$
Pocket2Mol_92_num_sample_100
     RDKit          3D

  0  0  0  0  0  0  0  0  0  0999 V3000
M  V30 BEGIN CTAB
M  V30 COUNTS 26 27 0 0 1
M  V30 BEGIN ATOM
M  V30 1 C 10.484483 6.972909 -8.911456 0
M  V30 2 O 11.623037 7.783770 -9.157692 0
M  V30 3 C 9.528473 7.574585 -7.876707 0
M  V30 4 O 10.057223 7.428387 -6.573723 0
M  V30 5 C 12.462753 7.966298 -8.027694 0
M  V30 6 C 10.838091 8.513318 -6.089938 0 CFG=1
M  V30 7 C 11.434835 8.182613 -4.731670 0
M  V30 8 C 11.889569 9.022035 -7.091762 0
M  V30 9 C 11.517595 6.843769 -4.291685 0
M  V30 10 N 11.835311 9.239762 -3.985197 0
M  V30 11 C 12.330219 8.969287 -2.755998 0
M  V30 12 C 12.455398 7.670182 -2.235543 0
M  V30 13 C 12.039959 6.586745 -3.018029 0
M  V30 14 H 10.784853 5.969702 -8.608761 0
M  V30 15 H 9.956063 6.864705 -9.858979 0
M  V30 16 H 8.632079 6.965306 -7.891903 0
M  V30 17 H 9.227959 8.597527 -8.109523 0
M  V30 18 H 12.634845 7.032770 -7.491672 0
M  V30 19 H 13.429798 8.307966 -8.397815 0
M  V30 20 H 11.434818 9.769305 -7.731312 0
M  V30 21 H 12.691346 9.538053 -6.562747 0
M  V30 22 H 11.179007 6.032457 -4.920110 0
M  V30 23 H 12.634798 9.815901 -2.170323 0
M  V30 24 H 12.862209 7.512466 -1.249588 0
M  V30 25 H 12.118658 5.577015 -2.646994 0
M  V30 26 H 10.145081 9.335755 -5.909849 0
M  V30 END ATOM
M  V30 BEGIN BOND
M  V30 1 1 2 1
M  V30 2 1 3 1
M  V30 3 1 4 3
M  V30 4 1 5 2
M  V30 5 1 6 4
M  V30 6 1 7 6
M  V30 7 1 8 5
M  V30 8 1 8 6
M  V30 9 1 9 7
M  V30 10 2 10 7
M  V30 11 1 11 10
M  V30 12 2 12 11
M  V30 13 2 13 9
M  V30 14 1 13 12
M  V30 15 1 14 1
M  V30 16 1 15 1
M  V30 17 1 16 3
M  V30 18 1 17 3
M  V30 19 1 18 5
M  V30 20 1 19 5
M  V30 21 1 20 8
M  V30 22 1 21 8
M  V30 23 1 22 9
M  V30 24 1 23 11
M  V30 25 1 24 12
M  V30 26 1 25 13
M  V30 27 1 6 26 CFG=1
M  V30 END BOND
M  V30 END CTAB
M  END
>  <i_epik_Tot_Q>  (1) 
0

>  <i_epik_Tot_abs_Q>  (1) 
0

>  <i_i_glide_confnum>  (1) 
14

>  <i_i_glide_lignum>  (1) 
100

>  <i_i_glide_posenum>  (1) 
16

>  <i_i_glide_rotatable_bonds>  (1) 
1

>  <i_lp_mmshare_version>  (1) 
72125

>  <i_m_source_file_index>  (1) 
93

>  <i_f3d_flags>  (1) 
0

>  <num_sample>  (1) 
100

>  <b_lp_Chiralities_Consistent>  (1) 
1

>  <r_epik_Charging_Adjusted_Penalty>  (1) 
0.0037896276157117258

>  <r_epik_Ionization_Penalty>  (1) 
0.0037896276174286705

>  <r_epik_Ionization_Penalty_Charging>  (1) 
0

>  <r_epik_Ionization_Penalty_Neutral>  (1) 
0.0037896276174286705

>  <r_epik_State_Penalty>  (1) 
0.0037896276157117258

>  <r_glide_ring_energy>  (1) 
1.3088655123439863

>  <r_i_docking_score>  (1) 
-6.0228519357380126

>  <r_i_glide_ecoul>  (1) 
-1.5380299183191568

>  <r_i_glide_eff_state_penalty>  (1) 
0.0037896276157117258

>  <r_i_glide_einternal>  (1) 
1.4384238583511821

>  <r_i_glide_emodel>  (1) 
-34.497302402483186

>  <r_i_glide_emodel_strain>  (1) 
0.02852847184002627

>  <r_i_glide_energy>  (1) 
-24.740161648233308

>  <r_i_glide_erotb>  (1) 
0.4895878840251785

>  <r_i_glide_esite>  (1) 
0

>  <r_i_glide_evdw>  (1) 
-23.20213172991415

>  <r_i_glide_gscore>  (1) 
-6.0266415633537243

>  <r_i_glide_gscore_strain>  (1) 
0

>  <r_i_glide_hbond>  (1) 
0

>  <r_i_glide_ligand_efficiency>  (1) 
-0.4632963027490779

>  <r_i_glide_ligand_efficiency_ln>  (1) 
-1.6894635328078416

>  <r_i_glide_ligand_efficiency_sa>  (1) 
-1.0893646673466848

>  <r_i_glide_lipo>  (1) 
-2.0382861685898663

>  <r_i_glide_metal>  (1) 
-0

>  <r_i_glide_rewards>  (1) 
-3.0871322045454548

>  <r_lp_Energy>  (1) 
20.645538999999999

>  <s_epik_cmdline>  (1) 
J2VwaWtfcHl0aG9uJywgJy1waHQnLCAnMS4wJywgJy1waCcsICc3LjQnLCAnLXRuJywgJzgnLCAnLW1hJywgJzUwMCcsICctaW1hZScsICc8aW5maWxlLm1hZT4nLCAnLW9tYWUnLCAnPG91dGZpbGUubWFlPic=

>  <s_epik_input>  (1) 
W0NIMl0xW0NIMl1PW0NIMl1bQ0gyXU8vQzE9QzJcW0NIXT1bQ0hdW0NIXT1bQ0hdW05IXTI=

>  <s_glide_docking_method>  (1) 
confgen

>  <s_i_glide_gridfile>  (1) 
gpcr_drd2_6luq_protein_autoprepared_prepared

>  <s_lp_Force_Field>  (1) 
S-OPLS

>  <s_lp_Variant>  (1) 
Pocket2Mol_92_num_sample_100-1

>  <s_m_source_file>  (1) 
generated__ligand_Pocket2Mol_2026-05-06_prepared.sdf

>  <GenAI_Model>  (1) 
Pocket2Mol

>  <Protein>  (1) 
generic_title2

$$$$
Pocket2Mol_46_num_sample_100
     RDKit          3D

  0  0  0  0  0  0  0  0  0  0999 V3000
M  V30 BEGIN CTAB
M  V30 COUNTS 18 19 0 0 1
M  V30 BEGIN ATOM
M  V30 1 C 12.234850 8.608728 -2.338408 0
M  V30 2 O 12.344695 9.347748 -3.550789 0
M  V30 3 C 11.857799 8.745615 -4.693143 0
M  V30 4 C 11.800799 9.475970 -5.896458 0
M  V30 5 C 12.470600 7.120939 -2.595614 0
M  V30 6 C 11.434749 7.388074 -4.674714 0
M  V30 7 O 11.506127 6.648929 -3.517660 0
M  V30 8 C 11.322816 8.861731 -7.072319 0
M  V30 9 C 10.941388 6.792645 -5.848657 0
M  V30 10 C 10.887277 7.526073 -7.044986 0
M  V30 11 H 12.975952 8.976492 -1.629214 0
M  V30 12 H 11.256548 8.775720 -1.891705 0
M  V30 13 H 12.130279 10.504337 -5.920234 0
M  V30 14 H 13.467764 6.969446 -3.004494 0
M  V30 15 H 12.399797 6.544499 -1.673358 0
M  V30 16 H 11.289090 9.413482 -7.996433 0
M  V30 17 H 10.611979 5.769294 -5.832707 0
M  V30 18 H 10.514750 7.060925 -7.946613 0
M  V30 END ATOM
M  V30 BEGIN BOND
M  V30 1 1 2 1
M  V30 2 1 3 2
M  V30 3 2 4 3
M  V30 4 1 5 1
M  V30 5 1 6 3
M  V30 6 1 7 5
M  V30 7 1 7 6
M  V30 8 1 8 4
M  V30 9 2 9 6
M  V30 10 2 10 8
M  V30 11 1 10 9
M  V30 12 1 11 1
M  V30 13 1 12 1
M  V30 14 1 13 4
M  V30 15 1 14 5
M  V30 16 1 15 5
M  V30 17 1 16 8
M  V30 18 1 17 9
M  V30 19 1 18 10
M  V30 END BOND
M  V30 END CTAB
M  END
>  <i_epik_Tot_Q>  (1) 
0

>  <i_epik_Tot_abs_Q>  (1) 
0

>  <i_i_glide_confnum>  (1) 
2

>  <i_i_glide_lignum>  (1) 
52

>  <i_i_glide_posenum>  (1) 
61

>  <i_i_glide_rotatable_bonds>  (1) 
0

>  <i_lp_mmshare_version>  (1) 
72125

>  <i_m_source_file_index>  (1) 
47

>  <i_f3d_flags>  (1) 
0

>  <num_sample>  (1) 
100

>  <b_lp_Chiralities_Consistent>  (1) 
1

>  <r_epik_Charging_Adjusted_Penalty>  (1) 
0

>  <r_epik_Ionization_Penalty>  (1) 
0

>  <r_epik_Ionization_Penalty_Charging>  (1) 
0

>  <r_epik_Ionization_Penalty_Neutral>  (1) 
0

>  <r_epik_State_Penalty>  (1) 
-0

>  <r_glide_ring_energy>  (1) 
0.0030885007139812575

>  <r_i_docking_score>  (1) 
-6.0225925119532802

>  <r_i_glide_ecoul>  (1) 
-0.27244320772776465

>  <r_i_glide_eff_state_penalty>  (1) 
-0

>  <r_i_glide_einternal>  (1) 
0

>  <r_i_glide_emodel>  (1) 
-29.551299066575282

>  <r_i_glide_emodel_strain>  (1) 
0

>  <r_i_glide_energy>  (1) 
-21.44502612970075

>  <r_i_glide_erotb>  (1) 
0

>  <r_i_glide_esite>  (1) 
0

>  <r_i_glide_evdw>  (1) 
-21.172582921972985

>  <r_i_glide_gscore>  (1) 
-6.0225925119532802

>  <r_i_glide_gscore_strain>  (1) 
0

>  <r_i_glide_hbond>  (1) 
0

>  <r_i_glide_ligand_efficiency>  (1) 
-0.60225925119532797

>  <r_i_glide_ligand_efficiency_ln>  (1) 
-1.8235994962641038

>  <r_i_glide_ligand_efficiency_sa>  (1) 
-1.2975282231678411

>  <r_i_glide_lipo>  (1) 
-2.1013275281597061

>  <r_i_glide_metal>  (1) 
-0

>  <r_i_glide_rewards>  (1) 
-2.8217693565357598

>  <r_lp_Energy>  (1) 
16.729797999999999

>  <r_lp_tautomer_probability>  (1) 
1

>  <s_epik_cmdline>  (1) 
J2VwaWtfcHl0aG9uJywgJy1waHQnLCAnMS4wJywgJy1waCcsICc3LjQnLCAnLXRuJywgJzgnLCAnLW1hJywgJzUwMCcsICctaW1hZScsICc8aW5maWxlLm1hZT4nLCAnLW9tYWUnLCAnPG91dGZpbGUubWFlPic=

>  <s_epik_input>  (1) 
TzFbQ0gyXVtDSDJdT2MoYzEyKVtjSF1bY0hdW2NIXVtjSF0y

>  <s_glide_docking_method>  (1) 
confgen

>  <s_i_glide_gridfile>  (1) 
gpcr_drd2_6luq_protein_autoprepared_prepared

>  <s_lp_Force_Field>  (1) 
S-OPLS

>  <s_lp_Variant>  (1) 
Pocket2Mol_46_num_sample_100-1

>  <s_m_source_file>  (1) 
generated__ligand_Pocket2Mol_2026-05-06_prepared.sdf

>  <GenAI_Model>  (1) 
Pocket2Mol

>  <Protein>  (1) 
generic_title2

$$$$
Pocket2Mol_67_num_sample_100
     RDKit          3D

  0  0  0  0  0  0  0  0  0  0999 V3000
M  V30 BEGIN CTAB
M  V30 COUNTS 21 22 0 0 1
M  V30 BEGIN ATOM
M  V30 1 C 12.328521 6.726627 -2.365227 0
M  V30 2 O 11.447307 6.364458 -3.415543 0
M  V30 3 C 11.434845 7.235177 -4.479076 0
M  V30 4 C 12.057383 8.181520 -1.973256 0
M  V30 5 O 12.296328 9.035125 -3.086013 0
M  V30 6 C 11.863879 8.580614 -4.313940 0
M  V30 7 C 11.858691 9.455071 -5.417060 0
M  V30 8 C 10.994482 6.789841 -5.739664 0
M  V30 9 C 10.992438 7.670663 -6.839902 0
M  V30 10 C 10.523114 7.189126 -8.197940 0
M  V30 11 C 11.429490 8.999791 -6.677945 0
M  V30 12 H 13.360994 6.595748 -2.691550 0
M  V30 13 H 12.163386 6.060387 -1.518184 0
M  V30 14 H 12.714690 8.483097 -1.157119 0
M  V30 15 H 11.034839 8.298132 -1.617427 0
M  V30 16 H 12.188743 10.475645 -5.297737 0
M  V30 17 H 10.663662 5.769352 -5.863400 0
M  V30 18 H 10.267165 6.129299 -8.180102 0
M  V30 19 H 9.637853 7.745142 -8.510651 0
M  V30 20 H 11.304167 7.337387 -8.943937 0
M  V30 21 H 11.434841 9.672248 -7.521879 0
M  V30 END ATOM
M  V30 BEGIN BOND
M  V30 1 1 2 1
M  V30 2 1 3 2
M  V30 3 1 4 1
M  V30 4 1 5 4
M  V30 5 2 6 3
M  V30 6 1 6 5
M  V30 7 1 7 6
M  V30 8 1 8 3
M  V30 9 2 9 8
M  V30 10 1 10 9
M  V30 11 2 11 7
M  V30 12 1 11 9
M  V30 13 1 12 1
M  V30 14 1 13 1
M  V30 15 1 14 4
M  V30 16 1 15 4
M  V30 17 1 16 7
M  V30 18 1 17 8
M  V30 19 1 18 10
M  V30 20 1 19 10
M  V30 21 1 20 10
M  V30 22 1 21 11
M  V30 END BOND
M  V30 END CTAB
M  END
>  <i_epik_Tot_Q>  (1) 
0

>  <i_epik_Tot_abs_Q>  (1) 
0

>  <i_i_glide_confnum>  (1) 
2

>  <i_i_glide_lignum>  (1) 
74

>  <i_i_glide_posenum>  (1) 
15

>  <i_i_glide_rotatable_bonds>  (1) 
0

>  <i_lp_mmshare_version>  (1) 
72125

>  <i_m_source_file_index>  (1) 
68

>  <i_f3d_flags>  (1) 
0

>  <num_sample>  (1) 
100

>  <b_lp_Chiralities_Consistent>  (1) 
1

>  <r_epik_Charging_Adjusted_Penalty>  (1) 
0

>  <r_epik_Ionization_Penalty>  (1) 
0

>  <r_epik_Ionization_Penalty_Charging>  (1) 
0

>  <r_epik_Ionization_Penalty_Neutral>  (1) 
0

>  <r_epik_State_Penalty>  (1) 
-0

>  <r_glide_ring_energy>  (1) 
0.0030884536109969021

>  <r_i_docking_score>  (1) 
-6.0203222761680468

>  <r_i_glide_ecoul>  (1) 
0.053895687244944701

>  <r_i_glide_eff_state_penalty>  (1) 
-0

>  <r_i_glide_einternal>  (1) 
0

>  <r_i_glide_emodel>  (1) 
-29.439809531989305

>  <r_i_glide_emodel_strain>  (1) 
0.0048477730128801966

>  <r_i_glide_energy>  (1) 
-21.710179597144446

>  <r_i_glide_erotb>  (1) 
0

>  <r_i_glide_esite>  (1) 
0

>  <r_i_glide_evdw>  (1) 
-21.764075284389392

>  <r_i_glide_gscore>  (1) 
-6.0203222761680468

>  <r_i_glide_gscore_strain>  (1) 
0

>  <r_i_glide_hbond>  (1) 
0

>  <r_i_glide_ligand_efficiency>  (1) 
-0.54730202510618609

>  <r_i_glide_ligand_efficiency_ln>  (1) 
-1.7717798203974515

>  <r_i_glide_ligand_efficiency_sa>  (1) 
-1.2171888073644257

>  <r_i_glide_lipo>  (1) 
-2.1692692793105821

>  <r_i_glide_metal>  (1) 
-0

>  <r_i_glide_rewards>  (1) 
-2.7709335857247366

>  <r_lp_Energy>  (1) 
14.201067

>  <r_lp_tautomer_probability>  (1) 
1

>  <s_epik_cmdline>  (1) 
J2VwaWtfcHl0aG9uJywgJy1waHQnLCAnMS4wJywgJy1waCcsICc3LjQnLCAnLXRuJywgJzgnLCAnLW1hJywgJzUwMCcsICctaW1hZScsICc8aW5maWxlLm1hZT4nLCAnLW9tYWUnLCAnPG91dGZpbGUubWFlPic=

>  <s_epik_input>  (1) 
TzFbQ0gyXVtDSDJdT2MoYzEyKVtjSF1bY0hdYyhbY0hdMilbQ0gzXQ==

>  <s_glide_docking_method>  (1) 
confgen

>  <s_i_glide_gridfile>  (1) 
gpcr_drd2_6luq_protein_autoprepared_prepared

>  <s_lp_Force_Field>  (1) 
S-OPLS

>  <s_lp_Variant>  (1) 
Pocket2Mol_67_num_sample_100-1

>  <s_m_source_file>  (1) 
generated__ligand_Pocket2Mol_2026-05-06_prepared.sdf

>  <GenAI_Model>  (1) 
Pocket2Mol

>  <Protein>  (1) 
generic_title2

$$$$
Pocket2Mol_56_num_sample_100
     RDKit          3D

  0  0  0  0  0  0  0  0  0  0999 V3000
M  V30 BEGIN CTAB
M  V30 COUNTS 19 20 0 0 1
M  V30 BEGIN ATOM
M  V30 1 C 12.232494 8.531596 -2.278960 0
M  V30 2 O 12.462416 9.242173 -3.487234 0
M  V30 3 C 11.939869 8.714842 -4.651024 0
M  V30 4 C 11.434839 7.381619 -4.691660 0
M  V30 5 C 10.914786 6.868844 -5.896451 0
M  V30 6 C 11.931021 9.498697 -5.821307 0
M  V30 7 C 11.426606 8.969301 -7.023652 0
M  V30 8 N 11.459119 6.569334 -3.546499 0
M  V30 9 C 12.354456 7.023739 -2.496621 0
M  V30 10 C 10.912535 7.660194 -7.059593 0
M  V30 11 H 12.955264 8.864069 -1.533556 0
M  V30 12 H 11.247517 8.784621 -1.891666 0
M  V30 13 H 10.526504 5.861844 -5.931657 0
M  V30 14 H 12.321318 10.504916 -5.798821 0
M  V30 15 H 11.434838 9.568991 -7.920995 0
M  V30 16 H 11.283723 5.577540 -3.644912 0
M  V30 17 H 13.380361 6.766845 -2.757929 0
M  V30 18 H 12.119925 6.486907 -1.577246 0
M  V30 19 H 10.520375 7.259560 -7.983394 0
M  V30 END ATOM
M  V30 BEGIN BOND
M  V30 1 1 2 1
M  V30 2 1 3 2
M  V30 3 1 4 3
M  V30 4 2 5 4
M  V30 5 2 6 3
M  V30 6 1 7 6
M  V30 7 1 8 4
M  V30 8 1 9 1
M  V30 9 1 9 8
M  V30 10 1 10 5
M  V30 11 2 10 7
M  V30 12 1 11 1
M  V30 13 1 12 1
M  V30 14 1 13 5
M  V30 15 1 14 6
M  V30 16 1 15 7
M  V30 17 1 16 8
M  V30 18 1 17 9
M  V30 19 1 18 9
M  V30 20 1 19 10
M  V30 END BOND
M  V30 END CTAB
M  END
>  <i_epik_Tot_Q>  (1) 
0

>  <i_epik_Tot_abs_Q>  (1) 
0

>  <i_i_glide_confnum>  (1) 
1

>  <i_i_glide_lignum>  (1) 
63

>  <i_i_glide_posenum>  (1) 
386

>  <i_i_glide_rotatable_bonds>  (1) 
0

>  <i_lp_mmshare_version>  (1) 
72125

>  <i_m_source_file_index>  (1) 
57

>  <i_f3d_flags>  (1) 
0

>  <num_sample>  (1) 
100

>  <b_lp_Chiralities_Consistent>  (1) 
1

>  <r_epik_Charging_Adjusted_Penalty>  (1) 
0

>  <r_epik_Ionization_Penalty>  (1) 
0.00026422915675488977

>  <r_epik_Ionization_Penalty_Charging>  (1) 
0

>  <r_epik_Ionization_Penalty_Neutral>  (1) 
0.00026422915675488977

>  <r_epik_State_Penalty>  (1) 
-0

>  <r_glide_ring_energy>  (1) 
0

>  <r_i_docking_score>  (1) 
-6.0109695012768212

>  <r_i_glide_ecoul>  (1) 
-1.4180154755594578

>  <r_i_glide_eff_state_penalty>  (1) 
-0

>  <r_i_glide_einternal>  (1) 
0

>  <r_i_glide_emodel>  (1) 
-30.139272932087795

>  <r_i_glide_emodel_strain>  (1) 
1.7191581491715624e-11

>  <r_i_glide_energy>  (1) 
-22.058595566535772

>  <r_i_glide_erotb>  (1) 
0

>  <r_i_glide_esite>  (1) 
0

>  <r_i_glide_evdw>  (1) 
-20.640580090976314

>  <r_i_glide_gscore>  (1) 
-6.0109695012768212

>  <r_i_glide_gscore_strain>  (1) 
0

>  <r_i_glide_hbond>  (1) 
0

>  <r_i_glide_ligand_efficiency>  (1) 
-0.60109695012768216

>  <r_i_glide_ligand_efficiency_ln>  (1) 
-1.8200801287537509

>  <r_i_glide_ligand_efficiency_sa>  (1) 
-1.2950241214274436

>  <r_i_glide_lipo>  (1) 
-2.0766104733480226

>  <r_i_glide_metal>  (1) 
-0

>  <r_i_glide_rewards>  (1) 
-2.6896277020460637

>  <r_lp_Energy>  (1) 
15.245389999999999

>  <r_lp_tautomer_probability>  (1) 
1

>  <s_epik_cmdline>  (1) 
J2VwaWtfcHl0aG9uJywgJy1waHQnLCAnMS4wJywgJy1waCcsICc3LjQnLCAnLXRuJywgJzgnLCAnLW1hJywgJzUwMCcsICctaW1hZScsICc8aW5maWxlLm1hZT4nLCAnLW9tYWUnLCAnPG91dGZpbGUubWFlPic=

>  <s_epik_input>  (1) 
TzFbQ0gyXVtDSDJdW05IXWMoYzEyKVtjSF1bY0hdW2NIXVtjSF0y

>  <s_glide_docking_method>  (1) 
confgen

>  <s_i_glide_gridfile>  (1) 
gpcr_drd2_6luq_protein_autoprepared_prepared

>  <s_lp_Force_Field>  (1) 
S-OPLS

>  <s_lp_Variant>  (1) 
Pocket2Mol_56_num_sample_100-1

>  <s_m_source_file>  (1) 
generated__ligand_Pocket2Mol_2026-05-06_prepared.sdf

>  <GenAI_Model>  (1) 
Pocket2Mol

>  <Protein>  (1) 
generic_title2

$$$$
Pocket2Mol_64_num_sample_100
     RDKit          3D

  0  0  0  0  0  0  0  0  0  0999 V3000
M  V30 BEGIN CTAB
M  V30 COUNTS 16 17 0 0 1
M  V30 BEGIN ATOM
M  V30 1 C 9.781125 6.651116 -7.349785 0
M  V30 2 O 10.490663 6.169301 -6.282301 0
M  V30 3 C 11.034824 7.087980 -5.415918 0
M  V30 4 C 10.960882 8.470176 -5.707517 0
M  V30 5 C 11.519121 9.404567 -4.819444 0
M  V30 6 C 11.667648 6.653508 -4.234257 0
M  V30 7 C 12.234837 7.593470 -3.349210 0
M  V30 8 O 10.338593 8.904395 -6.854811 0
M  V30 9 C 9.708574 7.963885 -7.624482 0
M  V30 10 F 11.434837 10.720913 -5.093897 0
M  V30 11 C 12.161231 8.968931 -3.642433 0
M  V30 12 H 9.301864 5.869697 -7.921296 0
M  V30 13 H 11.723137 5.601268 -4.009349 0
M  V30 14 H 12.722979 7.258644 -2.445740 0
M  V30 15 H 9.161152 8.396222 -8.450401 0
M  V30 16 H 12.591346 9.690418 -2.962587 0
M  V30 END ATOM
M  V30 BEGIN BOND
M  V30 1 1 2 1
M  V30 2 1 3 2
M  V30 3 1 4 3
M  V30 4 2 5 4
M  V30 5 2 6 3
M  V30 6 1 7 6
M  V30 7 1 8 4
M  V30 8 2 9 1
M  V30 9 1 9 8
M  V30 10 1 10 5
M  V30 11 1 11 5
M  V30 12 2 11 7
M  V30 13 1 12 1
M  V30 14 1 13 6
M  V30 15 1 14 7
M  V30 16 1 15 9
M  V30 17 1 16 11
M  V30 END BOND
M  V30 END CTAB
M  END
>  <i_epik_Tot_Q>  (1) 
0

>  <i_epik_Tot_abs_Q>  (1) 
0

>  <i_i_glide_confnum>  (1) 
1

>  <i_i_glide_lignum>  (1) 
71

>  <i_i_glide_posenum>  (1) 
258

>  <i_i_glide_rotatable_bonds>  (1) 
0

>  <i_lp_mmshare_version>  (1) 
72125

>  <i_m_source_file_index>  (1) 
65

>  <i_f3d_flags>  (1) 
0

>  <num_sample>  (1) 
100

>  <b_lp_Chiralities_Consistent>  (1) 
1

>  <r_epik_Charging_Adjusted_Penalty>  (1) 
0

>  <r_epik_Ionization_Penalty>  (1) 
0

>  <r_epik_Ionization_Penalty_Charging>  (1) 
0

>  <r_epik_Ionization_Penalty_Neutral>  (1) 
0

>  <r_epik_State_Penalty>  (1) 
-0

>  <r_glide_ring_energy>  (1) 
0

>  <r_i_docking_score>  (1) 
-6.0107853988389914

>  <r_i_glide_ecoul>  (1) 
-1.041302302616006

>  <r_i_glide_eff_state_penalty>  (1) 
-0

>  <r_i_glide_einternal>  (1) 
0

>  <r_i_glide_emodel>  (1) 
-27.44356921161658

>  <r_i_glide_emodel_strain>  (1) 
0

>  <r_i_glide_energy>  (1) 
-19.851818929140968

>  <r_i_glide_erotb>  (1) 
0

>  <r_i_glide_esite>  (1) 
0

>  <r_i_glide_evdw>  (1) 
-18.810516626524961

>  <r_i_glide_gscore>  (1) 
-6.0107853988389914

>  <r_i_glide_gscore_strain>  (1) 
0

>  <r_i_glide_hbond>  (1) 
0

>  <r_i_glide_ligand_efficiency>  (1) 
-0.54643503625809009

>  <r_i_glide_ligand_efficiency_ln>  (1) 
-1.7689731190239859

>  <r_i_glide_ligand_efficiency_sa>  (1) 
-1.2152606414275147

>  <r_i_glide_lipo>  (1) 
-1.7467995960087037

>  <r_i_glide_metal>  (1) 
-0

>  <r_i_glide_rewards>  (1) 
-3.1672646261116384

>  <r_lp_Energy>  (1) 
23.975801000000001

>  <r_lp_tautomer_probability>  (1) 
1

>  <s_epik_cmdline>  (1) 
J2VwaWtfcHl0aG9uJywgJy1waHQnLCAnMS4wJywgJy1waCcsICc3LjQnLCAnLXRuJywgJzgnLCAnLW1hJywgJzUwMCcsICctaW1hZScsICc8aW5maWxlLm1hZT4nLCAnLW9tYWUnLCAnPG91dGZpbGUubWFlPic=

>  <s_epik_input>  (1) 
TzFbQ0hdPVtDSF1PYyhjMTIpYyhGKVtjSF1bY0hdW2NIXTI=

>  <s_glide_docking_method>  (1) 
confgen

>  <s_i_glide_gridfile>  (1) 
gpcr_drd2_6luq_protein_autoprepared_prepared

>  <s_lp_Force_Field>  (1) 
S-OPLS

>  <s_lp_Variant>  (1) 
Pocket2Mol_64_num_sample_100-1

>  <s_m_source_file>  (1) 
generated__ligand_Pocket2Mol_2026-05-06_prepared.sdf

>  <GenAI_Model>  (1) 
Pocket2Mol

>  <Protein>  (1) 
generic_title2

$$$$
Pocket2Mol_72_num_sample_100
     RDKit          3D

  0  0  0  0  0  0  0  0  0  0999 V3000
M  V30 BEGIN CTAB
M  V30 COUNTS 18 19 0 0 1
M  V30 BEGIN ATOM
M  V30 1 C 9.434802 6.711531 -7.245057 0
M  V30 2 O 10.321161 6.169301 -6.281325 0
M  V30 3 C 10.975033 7.090426 -5.501180 0
M  V30 4 C 11.555795 6.688849 -4.282735 0
M  V30 5 C 10.159471 7.815172 -8.013000 0
M  V30 6 C 11.071313 8.440728 -5.916354 0
M  V30 7 O 10.511628 8.849146 -7.105226 0
M  V30 8 C 12.234808 7.627311 -3.478975 0
M  V30 9 C 11.743641 9.372948 -5.109841 0
M  V30 10 F 11.834837 10.656497 -5.507513 0
M  V30 11 C 12.325493 8.969266 -3.891673 0
M  V30 12 H 9.105447 5.922218 -7.920866 0
M  V30 13 H 8.549900 7.103107 -6.743581 0
M  V30 14 H 11.483147 5.662488 -3.965351 0
M  V30 15 H 11.053209 7.428200 -8.503986 0
M  V30 16 H 9.511965 8.227262 -8.787771 0
M  V30 17 H 12.681331 7.316922 -2.545860 0
M  V30 18 H 12.843237 9.689945 -3.275598 0
M  V30 END ATOM
M  V30 BEGIN BOND
M  V30 1 1 2 1
M  V30 2 1 3 2
M  V30 3 2 4 3
M  V30 4 1 5 1
M  V30 5 1 6 3
M  V30 6 1 7 5
M  V30 7 1 7 6
M  V30 8 1 8 4
M  V30 9 2 9 6
M  V30 10 1 10 9
M  V30 11 2 11 8
M  V30 12 1 11 9
M  V30 13 1 12 1
M  V30 14 1 13 1
M  V30 15 1 14 4
M  V30 16 1 15 5
M  V30 17 1 16 5
M  V30 18 1 17 8
M  V30 19 1 18 11
M  V30 END BOND
M  V30 END CTAB
M  END
>  <i_epik_Tot_Q>  (1) 
0

>  <i_epik_Tot_abs_Q>  (1) 
0

>  <i_i_glide_confnum>  (1) 
2

>  <i_i_glide_lignum>  (1) 
79

>  <i_i_glide_posenum>  (1) 
231

>  <i_i_glide_rotatable_bonds>  (1) 
0

>  <i_lp_mmshare_version>  (1) 
72125

>  <i_m_source_file_index>  (1) 
73

>  <i_f3d_flags>  (1) 
0

>  <num_sample>  (1) 
100

>  <b_lp_Chiralities_Consistent>  (1) 
1

>  <r_epik_Charging_Adjusted_Penalty>  (1) 
0

>  <r_epik_Ionization_Penalty>  (1) 
0

>  <r_epik_Ionization_Penalty_Charging>  (1) 
0

>  <r_epik_Ionization_Penalty_Neutral>  (1) 
0

>  <r_epik_State_Penalty>  (1) 
-0

>  <r_glide_ring_energy>  (1) 
0.0030882705297212471

>  <r_i_docking_score>  (1) 
-6.001028060453339

>  <r_i_glide_ecoul>  (1) 
-1.1753259643442044

>  <r_i_glide_eff_state_penalty>  (1) 
-0

>  <r_i_glide_einternal>  (1) 
0

>  <r_i_glide_emodel>  (1) 
-28.695327143889159

>  <r_i_glide_emodel_strain>  (1) 
0

>  <r_i_glide_energy>  (1) 
-20.834266200818575

>  <r_i_glide_erotb>  (1) 
0

>  <r_i_glide_esite>  (1) 
0

>  <r_i_glide_evdw>  (1) 
-19.658940236474372

>  <r_i_glide_gscore>  (1) 
-6.001028060453339

>  <r_i_glide_gscore_strain>  (1) 
0

>  <r_i_glide_hbond>  (1) 
0

>  <r_i_glide_ligand_efficiency>  (1) 
-0.5455480054957581

>  <r_i_glide_ligand_efficiency_ln>  (1) 
-1.7661015359991163

>  <r_i_glide_ligand_efficiency_sa>  (1) 
-1.2132879026723657

>  <r_i_glide_lipo>  (1) 
-1.803926635655789

>  <r_i_glide_metal>  (1) 
-0

>  <r_i_glide_rewards>  (1) 
-3.0378555183222007

>  <r_lp_Energy>  (1) 
17.335863

>  <r_lp_tautomer_probability>  (1) 
1

>  <s_epik_cmdline>  (1) 
J2VwaWtfcHl0aG9uJywgJy1waHQnLCAnMS4wJywgJy1waCcsICc3LjQnLCAnLXRuJywgJzgnLCAnLW1hJywgJzUwMCcsICctaW1hZScsICc8aW5maWxlLm1hZT4nLCAnLW9tYWUnLCAnPG91dGZpbGUubWFlPic=

>  <s_epik_input>  (1) 
TzFbQ0gyXVtDSDJdT2MoYzEyKWMoRilbY0hdW2NIXVtjSF0y

>  <s_glide_docking_method>  (1) 
confgen

>  <s_i_glide_gridfile>  (1) 
gpcr_drd2_6luq_protein_autoprepared_prepared

>  <s_lp_Force_Field>  (1) 
S-OPLS

>  <s_lp_Variant>  (1) 
Pocket2Mol_72_num_sample_100-1

>  <s_m_source_file>  (1) 
generated__ligand_Pocket2Mol_2026-05-06_prepared.sdf

>  <GenAI_Model>  (1) 
Pocket2Mol

>  <Protein>  (1) 
generic_title2

$$$$
Pocket2Mol_53_num_sample_100
     RDKit          3D

  0  0  0  0  0  0  0  0  0  0999 V3000
M  V30 BEGIN CTAB
M  V30 COUNTS 16 17 0 0 1
M  V30 BEGIN ATOM
M  V30 1 C 11.905326 6.971394 -2.419326 0
M  V30 2 O 11.437190 6.433246 -3.582373 0
M  V30 3 C 11.434837 7.294810 -4.685297 0
M  V30 4 C 11.841008 8.684405 -4.543536 0
M  V30 5 C 11.827534 9.493896 -5.702887 0
M  V30 6 C 11.034842 6.798111 -5.938233 0
M  V30 7 C 11.034777 7.630496 -7.064124 0
M  V30 8 N 12.234833 9.197372 -3.347444 0 CHG=-1
M  V30 9 C 11.432949 8.969302 -6.949105 0
M  V30 10 C 12.262835 8.280736 -2.374856 0
M  V30 11 H 11.947483 6.268130 -1.602011 0
M  V30 12 H 12.128476 10.529311 -5.633939 0
M  V30 13 H 10.730778 5.769301 -6.033288 0
M  V30 14 H 10.728999 7.239447 -8.023274 0
M  V30 15 H 11.434838 9.602397 -7.821526 0
M  V30 16 H 12.634965 8.653329 -1.396338 0
M  V30 END ATOM
M  V30 BEGIN BOND
M  V30 1 1 2 1
M  V30 2 1 3 2
M  V30 3 1 4 3
M  V30 4 2 5 4
M  V30 5 2 6 3
M  V30 6 1 7 6
M  V30 7 1 8 4
M  V30 8 1 9 5
M  V30 9 2 9 7
M  V30 10 2 10 1
M  V30 11 1 10 8
M  V30 12 1 11 1
M  V30 13 1 12 5
M  V30 14 1 13 6
M  V30 15 1 14 7
M  V30 16 1 15 9
M  V30 17 1 16 10
M  V30 END BOND
M  V30 END CTAB
M  END
>  <i_epik_Tot_Q>  (1) 
-1

>  <i_epik_Tot_abs_Q>  (1) 
1

>  <i_i_glide_confnum>  (1) 
1

>  <i_i_glide_lignum>  (1) 
60

>  <i_i_glide_posenum>  (1) 
58

>  <i_i_glide_rotatable_bonds>  (1) 
0

>  <i_lp_mmshare_version>  (1) 
72125

>  <i_m_source_file_index>  (1) 
54

>  <i_f3d_flags>  (1) 
0

>  <num_sample>  (1) 
100

>  <b_lp_Chiralities_Consistent>  (1) 
1

>  <r_epik_Charging_Adjusted_Penalty>  (1) 
0.016215214782958735

>  <r_epik_Ionization_Penalty>  (1) 
0.016215214782958842

>  <r_epik_Ionization_Penalty_Charging>  (1) 
0

>  <r_epik_Ionization_Penalty_Neutral>  (1) 
0.016215214782958842

>  <r_epik_State_Penalty>  (1) 
0.016215214782958735

>  <r_glide_ring_energy>  (1) 
0

>  <r_i_docking_score>  (1) 
-6.0009877603202959

>  <r_i_glide_ecoul>  (1) 
-0.94005677243722052

>  <r_i_glide_eff_state_penalty>  (1) 
0.016215214782958735

>  <r_i_glide_einternal>  (1) 
0

>  <r_i_glide_emodel>  (1) 
-29.42486843232453

>  <r_i_glide_emodel_strain>  (1) 
0

>  <r_i_glide_energy>  (1) 
-20.849515714000169

>  <r_i_glide_erotb>  (1) 
0

>  <r_i_glide_esite>  (1) 
0

>  <r_i_glide_evdw>  (1) 
-19.909458941562949

>  <r_i_glide_gscore>  (1) 
-6.0172029751032543

>  <r_i_glide_gscore_strain>  (1) 
0

>  <r_i_glide_hbond>  (1) 
0

>  <r_i_glide_ligand_efficiency>  (1) 
-0.60009877603202955

>  <r_i_glide_ligand_efficiency_ln>  (1) 
-1.8170577264006063

>  <r_i_glide_ligand_efficiency_sa>  (1) 
-1.2928736205290787

>  <r_i_glide_lipo>  (1) 
-2.1383009502478516

>  <r_i_glide_metal>  (1) 
-0

>  <r_i_glide_rewards>  (1) 
-2.7424205619116719

>  <r_lp_Energy>  (1) 
26.292493999999998

>  <s_epik_Chemistry_Notes>  (1) 
This compound has an imine and may undergo hydrolysis.

>  <s_epik_cmdline>  (1) 
J2VwaWtfcHl0aG9uJywgJy1waHQnLCAnMS4wJywgJy1waCcsICc3LjQnLCAnLXRuJywgJzgnLCAnLW1hJywgJzUwMCcsICctaW1hZScsICc8aW5maWxlLm1hZT4nLCAnLW9tYWUnLCAnPG91dGZpbGUubWFlPic=

>  <s_epik_input>  (1) 
TzFbQ0gyXVtDSF09TmMoYzEyKVtjSF1bY0hdW2NIXVtjSF0y

>  <s_glide_docking_method>  (1) 
confgen

>  <s_i_glide_gridfile>  (1) 
gpcr_drd2_6luq_protein_autoprepared_prepared

>  <s_lp_Force_Field>  (1) 
S-OPLS

>  <s_lp_Variant>  (1) 
Pocket2Mol_53_num_sample_100-1

>  <s_m_source_file>  (1) 
generated__ligand_Pocket2Mol_2026-05-06_prepared.sdf

>  <GenAI_Model>  (1) 
Pocket2Mol

>  <Protein>  (1) 
generic_title2

$$$$
Pocket2Mol_32_num_sample_100
     RDKit          3D

  0  0  0  0  0  0  0  0  0  0999 V3000
M  V30 BEGIN CTAB
M  V30 COUNTS 17 18 0 0 1
M  V30 BEGIN ATOM
M  V30 1 C 9.834841 7.767439 -7.422307 0
M  V30 2 O 10.596485 8.969301 -7.033962 0
M  V30 3 C 11.150368 8.593078 -5.863577 0
M  V30 4 C 10.915144 7.321558 -5.491671 0
M  V30 5 C 11.434851 6.794480 -4.295618 0
M  V30 6 C 10.087887 6.554710 -6.422344 0
M  V30 7 C 11.924586 9.455126 -5.069204 0
M  V30 8 C 12.469128 8.969302 -3.857048 0
M  V30 9 C 12.226254 7.627787 -3.468266 0
M  V30 10 H 8.775687 8.028009 -7.420350 0
M  V30 11 H 10.085464 7.484757 -8.445092 0
M  V30 12 H 11.235364 5.770384 -4.014022 0
M  V30 13 H 10.661433 5.752288 -6.883684 0
M  V30 14 H 9.174974 6.174611 -5.962557 0
M  V30 15 H 12.101849 10.473533 -5.381180 0
M  V30 16 H 13.067417 9.616000 -3.232203 0
M  V30 17 H 12.637632 7.245386 -2.545626 0
M  V30 END ATOM
M  V30 BEGIN BOND
M  V30 1 1 2 1
M  V30 2 1 3 2
M  V30 3 1 4 3
M  V30 4 2 5 4
M  V30 5 1 6 1
M  V30 6 1 6 4
M  V30 7 2 7 3
M  V30 8 1 8 7
M  V30 9 1 9 5
M  V30 10 2 9 8
M  V30 11 1 10 1
M  V30 12 1 11 1
M  V30 13 1 12 5
M  V30 14 1 13 6
M  V30 15 1 14 6
M  V30 16 1 15 7
M  V30 17 1 16 8
M  V30 18 1 17 9
M  V30 END BOND
M  V30 END CTAB
M  END
>  <i_epik_Tot_Q>  (1) 
0

>  <i_epik_Tot_abs_Q>  (1) 
0

>  <i_i_glide_confnum>  (1) 
1

>  <i_i_glide_lignum>  (1) 
36

>  <i_i_glide_posenum>  (1) 
9

>  <i_i_glide_rotatable_bonds>  (1) 
0

>  <i_lp_mmshare_version>  (1) 
72125

>  <i_m_source_file_index>  (1) 
33

>  <i_f3d_flags>  (1) 
0

>  <num_sample>  (1) 
100

>  <b_lp_Chiralities_Consistent>  (1) 
1

>  <r_epik_Charging_Adjusted_Penalty>  (1) 
0

>  <r_epik_Ionization_Penalty>  (1) 
0

>  <r_epik_Ionization_Penalty_Charging>  (1) 
0

>  <r_epik_Ionization_Penalty_Neutral>  (1) 
0

>  <r_epik_State_Penalty>  (1) 
-0

>  <r_glide_ring_energy>  (1) 
0

>  <r_i_docking_score>  (1) 
-5.9956822669374779

>  <r_i_glide_ecoul>  (1) 
-1.732407168846313

>  <r_i_glide_eff_state_penalty>  (1) 
-0

>  <r_i_glide_einternal>  (1) 
0

>  <r_i_glide_emodel>  (1) 
-28.571127703072811

>  <r_i_glide_emodel_strain>  (1) 
0

>  <r_i_glide_energy>  (1) 
-20.732223174517532

>  <r_i_glide_erotb>  (1) 
0

>  <r_i_glide_esite>  (1) 
0

>  <r_i_glide_evdw>  (1) 
-18.999816005671221

>  <r_i_glide_gscore>  (1) 
-5.9956822669374779

>  <r_i_glide_gscore_strain>  (1) 
0

>  <r_i_glide_hbond>  (1) 
0

>  <r_i_glide_ligand_efficiency>  (1) 
-0.66618691854860868

>  <r_i_glide_ligand_efficiency_ln>  (1) 
-1.8752771730326196

>  <r_i_glide_ligand_efficiency_sa>  (1) 
-1.3857246324017576

>  <r_i_glide_lipo>  (1) 
-2.0169720368859059

>  <r_i_glide_metal>  (1) 
-0

>  <r_i_glide_rewards>  (1) 
-2.7688583544410639

>  <r_lp_Energy>  (1) 
11.954839999999999

>  <r_lp_tautomer_probability>  (1) 
1

>  <s_epik_cmdline>  (1) 
J2VwaWtfcHl0aG9uJywgJy1waHQnLCAnMS4wJywgJy1waCcsICc3LjQnLCAnLXRuJywgJzgnLCAnLW1hJywgJzUwMCcsICctaW1hZScsICc8aW5maWxlLm1hZT4nLCAnLW9tYWUnLCAnPG91dGZpbGUubWFlPic=

>  <s_epik_input>  (1) 
TzFbQ0gyXVtDSDJdYyhjMTIpW2NIXVtjSF1bY0hdW2NIXTI=

>  <s_glide_docking_method>  (1) 
confgen

>  <s_i_glide_gridfile>  (1) 
gpcr_drd2_6luq_protein_autoprepared_prepared

>  <s_lp_Force_Field>  (1) 
S-OPLS

>  <s_lp_Variant>  (1) 
Pocket2Mol_32_num_sample_100-1

>  <s_m_source_file>  (1) 
generated__ligand_Pocket2Mol_2026-05-06_prepared.sdf

>  <GenAI_Model>  (1) 
Pocket2Mol

>  <Protein>  (1) 
generic_title2

$$$$
Pocket2Mol_90_num_sample_100
     RDKit          3D

  0  0  0  0  0  0  0  0  0  0999 V3000
M  V30 BEGIN CTAB
M  V30 COUNTS 23 24 0 0 1
M  V30 BEGIN ATOM
M  V30 1 C 5.760939 6.736775 -17.354865 0
M  V30 2 O 6.709716 5.610447 -17.235179 0
M  V30 3 C 7.034839 5.660167 -15.924195 0
M  V30 4 C 6.495255 6.679857 -15.224790 0
M  V30 5 C 6.742938 6.844472 -13.851610 0
M  V30 6 C 5.648876 7.585597 -16.006702 0
M  V30 7 C 7.877437 4.719343 -15.310490 0
M  V30 8 C 7.586293 5.924164 -13.187178 0
M  V30 9 N 7.821662 6.109706 -11.771657 0
M  V30 10 C 8.163312 4.843336 -13.931663 0
M  V30 11 C 8.683560 5.399018 -11.005533 0
M  V30 12 O 9.433496 4.521400 -11.414371 0
M  V30 13 N 8.634840 5.769306 -9.732345 0
M  V30 14 H 6.051541 7.369311 -18.192856 0
M  V30 15 H 4.783908 6.320879 -17.604537 0
M  V30 16 H 6.297420 7.665411 -13.310464 0
M  V30 17 H 4.634849 7.666570 -15.622387 0
M  V30 18 H 6.107505 8.570877 -16.092408 0
M  V30 19 H 8.300640 3.908852 -15.885039 0
M  V30 20 H 7.287632 6.839362 -11.315353 0
M  V30 21 H 8.801123 4.118617 -13.467702 0
M  V30 22 H 7.989779 6.511954 -9.443678 0
M  V30 23 H 9.228143 5.318950 -9.055077 0
M  V30 END ATOM
M  V30 BEGIN BOND
M  V30 1 1 2 1
M  V30 2 1 3 2
M  V30 3 2 4 3
M  V30 4 1 5 4
M  V30 5 1 6 1
M  V30 6 1 6 4
M  V30 7 1 7 3
M  V30 8 2 8 5
M  V30 9 1 9 8
M  V30 10 2 10 7
M  V30 11 1 10 8
M  V30 12 1 11 9
M  V30 13 2 12 11
M  V30 14 1 13 11
M  V30 15 1 14 1
M  V30 16 1 15 1
M  V30 17 1 16 5
M  V30 18 1 17 6
M  V30 19 1 18 6
M  V30 20 1 19 7
M  V30 21 1 20 9
M  V30 22 1 21 10
M  V30 23 1 22 13
M  V30 24 1 23 13
M  V30 END BOND
M  V30 END CTAB
M  END
>  <i_epik_Tot_Q>  (1) 
0

>  <i_epik_Tot_abs_Q>  (1) 
0

>  <i_i_glide_confnum>  (1) 
1

>  <i_i_glide_lignum>  (1) 
97

>  <i_i_glide_posenum>  (1) 
222

>  <i_i_glide_rotatable_bonds>  (1) 
2

>  <i_lp_mmshare_version>  (1) 
72125

>  <i_m_source_file_index>  (1) 
91

>  <i_f3d_flags>  (1) 
0

>  <num_sample>  (1) 
100

>  <b_lp_Chiralities_Consistent>  (1) 
1

>  <r_epik_Charging_Adjusted_Penalty>  (1) 
0

>  <r_epik_Ionization_Penalty>  (1) 
1.9038757045197726e-05

>  <r_epik_Ionization_Penalty_Charging>  (1) 
0

>  <r_epik_Ionization_Penalty_Neutral>  (1) 
1.9038757045197726e-05

>  <r_epik_State_Penalty>  (1) 
-0

>  <r_glide_ring_energy>  (1) 
0

>  <r_i_docking_score>  (1) 
-5.9874182015653297

>  <r_i_glide_ecoul>  (1) 
-4.5927222028716681

>  <r_i_glide_eff_state_penalty>  (1) 
-0

>  <r_i_glide_einternal>  (1) 
0.814323657187078

>  <r_i_glide_emodel>  (1) 
-33.556829740103879

>  <r_i_glide_emodel_strain>  (1) 
0

>  <r_i_glide_energy>  (1) 
-23.409791970095675

>  <r_i_glide_erotb>  (1) 
0

>  <r_i_glide_esite>  (1) 
-0.19288035488870303

>  <r_i_glide_evdw>  (1) 
-18.817069767224005

>  <r_i_glide_gscore>  (1) 
-5.9874182015653297

>  <r_i_glide_gscore_strain>  (1) 
0

>  <r_i_glide_hbond>  (1) 
-0.24803637667307096

>  <r_i_glide_ligand_efficiency>  (1) 
-0.46057063088964073

>  <r_i_glide_ligand_efficiency_ln>  (1) 
-1.6795240552389614

>  <r_i_glide_ligand_efficiency_sa>  (1) 
-1.0829557005562458

>  <r_i_glide_lipo>  (1) 
-1.359161090871885

>  <r_i_glide_metal>  (1) 
-0

>  <r_i_glide_rewards>  (1) 
-2.5575785603397199

>  <r_lp_Energy>  (1) 
13.450968999999999

>  <r_lp_tautomer_probability>  (1) 
1

>  <s_epik_cmdline>  (1) 
J2VwaWtfcHl0aG9uJywgJy1waHQnLCAnMS4wJywgJy1waCcsICc3LjQnLCAnLXRuJywgJzgnLCAnLW1hJywgJzUwMCcsICctaW1hZScsICc8aW5maWxlLm1hZT4nLCAnLW9tYWUnLCAnPG91dGZpbGUubWFlPic=

>  <s_epik_input>  (1) 
TzFbQ0gyXVtDSDJdYyhjMTIpW2NIXWMoW2NIXVtjSF0yKVtOSF1DKD1PKVtOSDJd

>  <s_glide_docking_method>  (1) 
confgen

>  <s_i_glide_gridfile>  (1) 
gpcr_drd2_6luq_protein_autoprepared_prepared

>  <s_lp_Force_Field>  (1) 
S-OPLS

>  <s_lp_Variant>  (1) 
Pocket2Mol_90_num_sample_100-1

>  <s_m_source_file>  (1) 
generated__ligand_Pocket2Mol_2026-05-06_prepared.sdf

>  <GenAI_Model>  (1) 
Pocket2Mol

>  <Protein>  (1) 
generic_title2

$$$$
Pocket2Mol_86_num_sample_100
     RDKit          3D

  0  0  0  0  0  0  0  0  0  0999 V3000
M  V30 BEGIN CTAB
M  V30 COUNTS 25 26 0 0 1
M  V30 BEGIN ATOM
M  V30 1 C 9.442702 6.155313 -10.552971 0
M  V30 2 O 10.287657 7.369303 -10.574998 0
M  V30 3 C 10.555644 7.542659 -9.261497 0
M  V30 4 C 10.072294 6.593864 -8.433651 0
M  V30 5 C 10.277461 6.651753 -7.045417 0
M  V30 6 C 9.322368 5.521083 -9.092586 0
M  V30 7 C 11.283369 8.636014 -8.769522 0
M  V30 8 C 11.003162 7.745431 -6.496025 0
M  V30 9 N 11.213071 7.838648 -5.091690 0
M  V30 10 C 11.506055 8.748010 -7.377742 0
M  V30 11 C 11.097806 6.594933 -4.332696 0
M  V30 12 C 12.062249 8.925983 -4.604185 0
M  V30 13 H 8.451570 6.434519 -10.911890 0
M  V30 14 H 9.834792 5.422216 -11.258324 0
M  V30 15 H 9.875343 5.879033 -6.409797 0
M  V30 16 H 9.828331 4.560165 -8.997310 0
M  V30 17 H 8.292397 5.463635 -8.736844 0
M  V30 18 H 11.661807 9.388300 -9.445829 0
M  V30 19 H 12.057202 9.590736 -6.994070 0
M  V30 20 H 11.702210 5.806699 -4.783356 0
M  V30 21 H 11.444967 6.729142 -3.308309 0
M  V30 22 H 10.063573 6.254015 -4.287175 0
M  V30 23 H 13.034482 8.969302 -5.093484 0
M  V30 24 H 11.562797 9.884043 -4.751560 0
M  V30 25 H 12.239363 8.822215 -3.533497 0
M  V30 END ATOM
M  V30 BEGIN BOND
M  V30 1 1 2 1
M  V30 2 1 3 2
M  V30 3 2 4 3
M  V30 4 1 5 4
M  V30 5 1 6 1
M  V30 6 1 6 4
M  V30 7 1 7 3
M  V30 8 2 8 5
M  V30 9 1 9 8
M  V30 10 2 10 7
M  V30 11 1 10 8
M  V30 12 1 11 9
M  V30 13 1 12 9
M  V30 14 1 13 1
M  V30 15 1 14 1
M  V30 16 1 15 5
M  V30 17 1 16 6
M  V30 18 1 17 6
M  V30 19 1 18 7
M  V30 20 1 19 10
M  V30 21 1 20 11
M  V30 22 1 21 11
M  V30 23 1 22 11
M  V30 24 1 23 12
M  V30 25 1 24 12
M  V30 26 1 25 12
M  V30 END BOND
M  V30 END CTAB
M  END
>  <i_epik_Tot_Q>  (1) 
0

>  <i_epik_Tot_abs_Q>  (1) 
0

>  <i_i_glide_confnum>  (1) 
1

>  <i_i_glide_lignum>  (1) 
93

>  <i_i_glide_posenum>  (1) 
73

>  <i_i_glide_rotatable_bonds>  (1) 
1

>  <i_lp_mmshare_version>  (1) 
72125

>  <i_m_source_file_index>  (1) 
87

>  <i_f3d_flags>  (1) 
0

>  <num_sample>  (1) 
100

>  <b_lp_Chiralities_Consistent>  (1) 
1

>  <r_epik_Charging_Adjusted_Penalty>  (1) 
0.017477600144237933

>  <r_epik_Ionization_Penalty>  (1) 
0.017477600144237951

>  <r_epik_Ionization_Penalty_Charging>  (1) 
0

>  <r_epik_Ionization_Penalty_Neutral>  (1) 
0.017477600144237951

>  <r_epik_State_Penalty>  (1) 
0.017477600144237933

>  <r_glide_ring_energy>  (1) 
0

>  <r_i_docking_score>  (1) 
-5.9850302646195637

>  <r_i_glide_ecoul>  (1) 
-1.5873822578075782

>  <r_i_glide_eff_state_penalty>  (1) 
0.017477600144237933

>  <r_i_glide_einternal>  (1) 
0.7200968498140079

>  <r_i_glide_emodel>  (1) 
-32.965149917691882

>  <r_i_glide_emodel_strain>  (1) 
0

>  <r_i_glide_energy>  (1) 
-23.682213000926595

>  <r_i_glide_erotb>  (1) 
0

>  <r_i_glide_esite>  (1) 
0

>  <r_i_glide_evdw>  (1) 
-22.094830743119015

>  <r_i_glide_gscore>  (1) 
-6.0025078647638015

>  <r_i_glide_gscore_strain>  (1) 
0

>  <r_i_glide_hbond>  (1) 
0

>  <r_i_glide_ligand_efficiency>  (1) 
-0.49875252205163029

>  <r_i_glide_ligand_efficiency_ln>  (1) 
-1.7174148021966829

>  <r_i_glide_ligand_efficiency_sa>  (1) 
-1.1418582310037919

>  <r_i_glide_lipo>  (1) 
-1.5016902461477457

>  <r_i_glide_metal>  (1) 
-0

>  <r_i_glide_rewards>  (1) 
-3.157968742788968

>  <r_lp_Energy>  (1) 
28.069341999999999

>  <r_lp_tautomer_probability>  (1) 
1

>  <s_epik_cmdline>  (1) 
J2VwaWtfcHl0aG9uJywgJy1waHQnLCAnMS4wJywgJy1waCcsICc3LjQnLCAnLXRuJywgJzgnLCAnLW1hJywgJzUwMCcsICctaW1hZScsICc8aW5maWxlLm1hZT4nLCAnLW9tYWUnLCAnPG91dGZpbGUubWFlPic=

>  <s_epik_input>  (1) 
TzFbQ0gyXVtDSDJdYyhjMTIpW2NIXWMoTihbQ0gzXSlbQ0gzXSlbY0hdW2NIXTI=

>  <s_glide_docking_method>  (1) 
confgen

>  <s_i_glide_gridfile>  (1) 
gpcr_drd2_6luq_protein_autoprepared_prepared

>  <s_lp_Force_Field>  (1) 
S-OPLS

>  <s_lp_Variant>  (1) 
Pocket2Mol_86_num_sample_100-1

>  <s_m_source_file>  (1) 
generated__ligand_Pocket2Mol_2026-05-06_prepared.sdf

>  <GenAI_Model>  (1) 
Pocket2Mol

>  <Protein>  (1) 
generic_title2

$$$$
Pocket2Mol_41_num_sample_100
     RDKit          3D

  0  0  0  0  0  0  0  0  0  0999 V3000
M  V30 BEGIN CTAB
M  V30 COUNTS 15 16 0 0 1
M  V30 BEGIN ATOM
M  V30 1 C 11.180242 8.674590 -6.903829 0
M  V30 2 O 11.048089 7.395821 -6.227389 0
M  V30 3 C 11.434836 7.603194 -4.937224 0
M  V30 4 C 11.833983 8.867733 -4.589458 0
M  V30 5 C 12.243143 9.169952 -3.279194 0
M  V30 6 C 11.434795 6.569309 -3.989244 0
M  V30 7 C 11.844237 6.839109 -2.663751 0
M  V30 8 S 11.807178 10.049969 -5.825706 0
M  V30 9 C 12.248629 8.146893 -2.306774 0
M  V30 10 H 11.858614 8.556512 -7.750388 0
M  V30 11 H 10.206587 8.958112 -7.306974 0
M  V30 12 H 12.551982 10.169300 -3.018944 0
M  V30 13 H 11.120791 5.578157 -4.272595 0
M  V30 14 H 11.845512 6.049411 -1.926371 0
M  V30 15 H 12.560388 8.360924 -1.295430 0
M  V30 END ATOM
M  V30 BEGIN BOND
M  V30 1 1 2 1
M  V30 2 1 3 2
M  V30 3 1 4 3
M  V30 4 2 5 4
M  V30 5 2 6 3
M  V30 6 1 7 6
M  V30 7 1 8 1
M  V30 8 1 8 4
M  V30 9 1 9 5
M  V30 10 2 9 7
M  V30 11 1 10 1
M  V30 12 1 11 1
M  V30 13 1 12 5
M  V30 14 1 13 6
M  V30 15 1 14 7
M  V30 16 1 15 9
M  V30 END BOND
M  V30 END CTAB
M  END
>  <i_epik_Tot_Q>  (1) 
0

>  <i_epik_Tot_abs_Q>  (1) 
0

>  <i_i_glide_confnum>  (1) 
1

>  <i_i_glide_lignum>  (1) 
46

>  <i_i_glide_posenum>  (1) 
65

>  <i_i_glide_rotatable_bonds>  (1) 
0

>  <i_lp_mmshare_version>  (1) 
72125

>  <i_m_source_file_index>  (1) 
42

>  <i_f3d_flags>  (1) 
0

>  <num_sample>  (1) 
100

>  <b_lp_Chiralities_Consistent>  (1) 
1

>  <r_epik_Charging_Adjusted_Penalty>  (1) 
0

>  <r_epik_Ionization_Penalty>  (1) 
0

>  <r_epik_Ionization_Penalty_Charging>  (1) 
0

>  <r_epik_Ionization_Penalty_Neutral>  (1) 
0

>  <r_epik_State_Penalty>  (1) 
-0

>  <r_glide_ring_energy>  (1) 
0

>  <r_i_docking_score>  (1) 
-5.9717053532200639

>  <r_i_glide_ecoul>  (1) 
-0.85013249772474242

>  <r_i_glide_eff_state_penalty>  (1) 
-0

>  <r_i_glide_einternal>  (1) 
0

>  <r_i_glide_emodel>  (1) 
-29.199745467821593

>  <r_i_glide_emodel_strain>  (1) 
0

>  <r_i_glide_energy>  (1) 
-21.353767486832947

>  <r_i_glide_erotb>  (1) 
0

>  <r_i_glide_esite>  (1) 
0

>  <r_i_glide_evdw>  (1) 
-20.503634989108203

>  <r_i_glide_gscore>  (1) 
-5.9717053532200639

>  <r_i_glide_gscore_strain>  (1) 
0

>  <r_i_glide_hbond>  (1) 
0

>  <r_i_glide_ligand_efficiency>  (1) 
-0.66352281702445159

>  <r_i_glide_ligand_efficiency_ln>  (1) 
-1.8677778832150147

>  <r_i_glide_ligand_efficiency_sa>  (1) 
-1.3801830779183903

>  <r_i_glide_lipo>  (1) 
-2.2048693807338045

>  <r_i_glide_metal>  (1) 
-0

>  <r_i_glide_rewards>  (1) 
-2.6141343483721382

>  <r_lp_Energy>  (1) 
5.8399909999999995

>  <r_lp_tautomer_probability>  (1) 
1

>  <s_epik_Chemistry_Notes>  (1) 
This compound contains an acetal/aminal-like group ( X-CH(R)-Y where X, Y are N, S, or O) that may be acid/base labile, releasing an aldehyde.

>  <s_epik_cmdline>  (1) 
J2VwaWtfcHl0aG9uJywgJy1waHQnLCAnMS4wJywgJy1waCcsICc3LjQnLCAnLXRuJywgJzgnLCAnLW1hJywgJzUwMCcsICctaW1hZScsICc8aW5maWxlLm1hZT4nLCAnLW9tYWUnLCAnPG91dGZpbGUubWFlPic=

>  <s_epik_input>  (1) 
TzFbQ0gyXVNjKGMxMilbY0hdW2NIXVtjSF1bY0hdMg==

>  <s_glide_docking_method>  (1) 
confgen

>  <s_i_glide_gridfile>  (1) 
gpcr_drd2_6luq_protein_autoprepared_prepared

>  <s_lp_Force_Field>  (1) 
S-OPLS

>  <s_lp_Variant>  (1) 
Pocket2Mol_41_num_sample_100-1

>  <s_m_source_file>  (1) 
generated__ligand_Pocket2Mol_2026-05-06_prepared.sdf

>  <GenAI_Model>  (1) 
Pocket2Mol

>  <Protein>  (1) 
generic_title2

$$$$
Pocket2Mol_57_num_sample_100
     RDKit          3D

  0  0  0  0  0  0  0  0  0  0999 V3000
M  V30 BEGIN CTAB
M  V30 COUNTS 18 19 0 0 1
M  V30 BEGIN ATOM
M  V30 1 C 10.467747 8.223126 -6.707727 0
M  V30 2 O 10.872812 7.153362 -5.901831 0
M  V30 3 C 11.434840 7.491084 -4.691679 0
M  V30 4 C 11.834838 8.815313 -4.442931 0
M  V30 5 C 12.407580 9.158240 -3.203526 0
M  V30 6 C 11.610995 6.511084 -3.702332 0
M  V30 7 C 12.186705 6.850074 -2.462887 0
M  V30 8 C 11.639424 9.858990 -5.514294 0
M  V30 9 C 12.584912 8.175225 -2.213562 0
M  V30 10 O 11.424164 9.239667 -6.773964 0
M  V30 11 H 10.305049 7.841179 -7.716081 0
M  V30 12 H 9.514553 8.613135 -6.344437 0
M  V30 13 H 12.711959 10.169301 -3.011832 0
M  V30 14 H 11.303752 5.497019 -3.893836 0
M  V30 15 H 12.320702 6.091996 -1.704491 0
M  V30 16 H 10.787939 10.488886 -5.253660 0
M  V30 17 H 12.515189 10.500904 -5.589657 0
M  V30 18 H 13.026298 8.438768 -1.263300 0
M  V30 END ATOM
M  V30 BEGIN BOND
M  V30 1 1 2 1
M  V30 2 1 3 2
M  V30 3 1 4 3
M  V30 4 2 5 4
M  V30 5 2 6 3
M  V30 6 1 7 6
M  V30 7 1 8 4
M  V30 8 1 9 5
M  V30 9 2 9 7
M  V30 10 1 10 1
M  V30 11 1 10 8
M  V30 12 1 11 1
M  V30 13 1 12 1
M  V30 14 1 13 5
M  V30 15 1 14 6
M  V30 16 1 15 7
M  V30 17 1 16 8
M  V30 18 1 17 8
M  V30 19 1 18 9
M  V30 END BOND
M  V30 END CTAB
M  END
>  <i_epik_Tot_Q>  (1) 
0

>  <i_epik_Tot_abs_Q>  (1) 
0

>  <i_i_glide_confnum>  (1) 
1

>  <i_i_glide_lignum>  (1) 
64

>  <i_i_glide_posenum>  (1) 
88

>  <i_i_glide_rotatable_bonds>  (1) 
0

>  <i_lp_mmshare_version>  (1) 
72125

>  <i_m_source_file_index>  (1) 
58

>  <i_f3d_flags>  (1) 
0

>  <num_sample>  (1) 
100

>  <b_lp_Chiralities_Consistent>  (1) 
1

>  <r_epik_Charging_Adjusted_Penalty>  (1) 
0

>  <r_epik_Ionization_Penalty>  (1) 
5.7885637950061117e-15

>  <r_epik_Ionization_Penalty_Charging>  (1) 
0

>  <r_epik_Ionization_Penalty_Neutral>  (1) 
5.7885637950061117e-15

>  <r_epik_State_Penalty>  (1) 
-0

>  <r_glide_ring_energy>  (1) 
0

>  <r_i_docking_score>  (1) 
-5.9703869631300561

>  <r_i_glide_ecoul>  (1) 
-0.77295539183581763

>  <r_i_glide_eff_state_penalty>  (1) 
-0

>  <r_i_glide_einternal>  (1) 
0

>  <r_i_glide_emodel>  (1) 
-28.641558192582707

>  <r_i_glide_emodel_strain>  (1) 
0

>  <r_i_glide_energy>  (1) 
-20.852462287505741

>  <r_i_glide_erotb>  (1) 
0

>  <r_i_glide_esite>  (1) 
0

>  <r_i_glide_evdw>  (1) 
-20.079506895669923

>  <r_i_glide_gscore>  (1) 
-5.9703869631300561

>  <r_i_glide_gscore_strain>  (1) 
0

>  <r_i_glide_hbond>  (1) 
0

>  <r_i_glide_ligand_efficiency>  (1) 
-0.59703869631300566

>  <r_i_glide_ligand_efficiency_ln>  (1) 
-1.8077920159560352

>  <r_i_glide_ligand_efficiency_sa>  (1) 
-1.2862808786281503

>  <r_i_glide_lipo>  (1) 
-1.8836422580897041

>  <r_i_glide_metal>  (1) 
-0

>  <r_i_glide_rewards>  (1) 
-2.9668260514814837

>  <r_lp_Energy>  (1) 
18.330197999999999

>  <r_lp_tautomer_probability>  (1) 
1

>  <s_epik_Chemistry_Notes>  (1) 
This compound contains an acetal/aminal-like group ( X-CH(R)-Y where X, Y are N, S, or O) that may be acid/base labile, releasing an aldehyde.

>  <s_epik_cmdline>  (1) 
J2VwaWtfcHl0aG9uJywgJy1waHQnLCAnMS4wJywgJy1waCcsICc3LjQnLCAnLXRuJywgJzgnLCAnLW1hJywgJzUwMCcsICctaW1hZScsICc8aW5maWxlLm1hZT4nLCAnLW9tYWUnLCAnPG91dGZpbGUubWFlPic=

>  <s_epik_input>  (1) 
TzFbQ0gyXU9bQ0gyXWMoYzEyKVtjSF1bY0hdW2NIXVtjSF0y

>  <s_glide_docking_method>  (1) 
confgen

>  <s_i_glide_gridfile>  (1) 
gpcr_drd2_6luq_protein_autoprepared_prepared

>  <s_lp_Force_Field>  (1) 
S-OPLS

>  <s_lp_Variant>  (1) 
Pocket2Mol_57_num_sample_100-1

>  <s_m_source_file>  (1) 
generated__ligand_Pocket2Mol_2026-05-06_prepared.sdf

>  <GenAI_Model>  (1) 
Pocket2Mol

>  <Protein>  (1) 
generic_title2

$$$$
Pocket2Mol_71_num_sample_100
     RDKit          3D

  0  0  0  0  0  0  0  0  0  0999 V3000
M  V30 BEGIN CTAB
M  V30 COUNTS 16 17 0 0 1
M  V30 BEGIN ATOM
M  V30 1 C 11.835465 6.969273 -2.350775 0
M  V30 2 O 11.421604 6.446163 -3.551844 0
M  V30 3 C 11.434874 7.297742 -4.645689 0
M  V30 4 C 11.861907 8.656810 -4.517735 0
M  V30 5 C 11.853177 9.474904 -5.667728 0
M  V30 6 C 11.017619 6.798047 -5.894185 0
M  V30 7 C 11.017030 7.631243 -7.027076 0
M  V30 8 N 12.264668 9.151275 -3.329056 0 CHG=-1
M  V30 9 C 12.234423 8.286427 -2.295576 0
M  V30 10 F 10.614675 7.146281 -8.226766 0
M  V30 11 C 11.434806 8.969216 -6.913243 0
M  V30 12 H 11.806943 6.268047 -1.531284 0
M  V30 13 H 12.171134 10.505081 -5.597220 0
M  V30 14 H 10.697250 5.770977 -5.980046 0
M  V30 15 H 12.564645 8.685930 -1.312975 0
M  V30 16 H 11.434838 9.609805 -7.782013 0
M  V30 END ATOM
M  V30 BEGIN BOND
M  V30 1 1 2 1
M  V30 2 1 3 2
M  V30 3 2 4 3
M  V30 4 1 5 4
M  V30 5 1 6 3
M  V30 6 2 7 6
M  V30 7 1 8 4
M  V30 8 2 9 1
M  V30 9 1 9 8
M  V30 10 1 10 7
M  V30 11 2 11 5
M  V30 12 1 11 7
M  V30 13 1 12 1
M  V30 14 1 13 5
M  V30 15 1 14 6
M  V30 16 1 15 9
M  V30 17 1 16 11
M  V30 END BOND
M  V30 END CTAB
M  END
>  <i_epik_Tot_Q>  (1) 
-1

>  <i_epik_Tot_abs_Q>  (1) 
1

>  <i_i_glide_confnum>  (1) 
1

>  <i_i_glide_lignum>  (1) 
78

>  <i_i_glide_posenum>  (1) 
182

>  <i_i_glide_rotatable_bonds>  (1) 
0

>  <i_lp_mmshare_version>  (1) 
72125

>  <i_m_source_file_index>  (1) 
72

>  <i_f3d_flags>  (1) 
0

>  <num_sample>  (1) 
100

>  <b_lp_Chiralities_Consistent>  (1) 
1

>  <r_epik_Charging_Adjusted_Penalty>  (1) 
0.017639978051431922

>  <r_epik_Ionization_Penalty>  (1) 
0.017639978051431908

>  <r_epik_Ionization_Penalty_Charging>  (1) 
0

>  <r_epik_Ionization_Penalty_Neutral>  (1) 
0.017639978051431908

>  <r_epik_State_Penalty>  (1) 
0.017639978051431922

>  <r_glide_ring_energy>  (1) 
0

>  <r_i_docking_score>  (1) 
-5.9691987190769611

>  <r_i_glide_ecoul>  (1) 
-0.47388185269244931

>  <r_i_glide_eff_state_penalty>  (1) 
0.017639978051431922

>  <r_i_glide_einternal>  (1) 
0

>  <r_i_glide_emodel>  (1) 
-29.216299990285592

>  <r_i_glide_emodel_strain>  (1) 
2.7969804250460584e-09

>  <r_i_glide_energy>  (1) 
-20.762462005220058

>  <r_i_glide_erotb>  (1) 
0

>  <r_i_glide_esite>  (1) 
-0.024479257394267099

>  <r_i_glide_evdw>  (1) 
-20.288580152527608

>  <r_i_glide_gscore>  (1) 
-5.9868386971283929

>  <r_i_glide_gscore_strain>  (1) 
0

>  <r_i_glide_hbond>  (1) 
0

>  <r_i_glide_ligand_efficiency>  (1) 
-0.54265442900699645

>  <r_i_glide_ligand_efficiency_ln>  (1) 
-1.7567341662537372

>  <r_i_glide_ligand_efficiency_sa>  (1) 
-1.2068526461708202

>  <r_i_glide_lipo>  (1) 
-2.1365343853733028

>  <r_i_glide_metal>  (1) 
-0

>  <r_i_glide_rewards>  (1) 
-2.7403137688305748

>  <r_lp_Energy>  (1) 
25.3598

>  <s_epik_Chemistry_Notes>  (1) 
This compound has an imine and may undergo hydrolysis.

>  <s_epik_cmdline>  (1) 
J2VwaWtfcHl0aG9uJywgJy1waHQnLCAnMS4wJywgJy1waCcsICc3LjQnLCAnLXRuJywgJzgnLCAnLW1hJywgJzUwMCcsICctaW1hZScsICc8aW5maWxlLm1hZT4nLCAnLW9tYWUnLCAnPG91dGZpbGUubWFlPic=

>  <s_epik_input>  (1) 
TzFbQ0gyXVtDSF09TmMoYzEyKVtjSF1bY0hdYyhGKVtjSF0y

>  <s_glide_docking_method>  (1) 
confgen

>  <s_i_glide_gridfile>  (1) 
gpcr_drd2_6luq_protein_autoprepared_prepared

>  <s_lp_Force_Field>  (1) 
S-OPLS

>  <s_lp_Variant>  (1) 
Pocket2Mol_71_num_sample_100-1

>  <s_m_source_file>  (1) 
generated__ligand_Pocket2Mol_2026-05-06_prepared.sdf

>  <GenAI_Model>  (1) 
Pocket2Mol

>  <Protein>  (1) 
generic_title2

$$$$
Pocket2Mol_37_num_sample_100
     RDKit          3D

  0  0  0  0  0  0  0  0  0  0999 V3000
M  V30 BEGIN CTAB
M  V30 COUNTS 17 18 0 0 1
M  V30 BEGIN ATOM
M  V30 1 C 11.103336 8.941138 -6.647599 0
M  V30 2 O 10.980047 7.675686 -6.158529 0
M  V30 3 C 11.434839 7.745864 -4.874488 0
M  V30 4 C 11.829977 8.986026 -4.544133 0
M  V30 5 C 12.371047 9.369301 -3.214760 0
M  V30 6 C 11.434839 6.517471 -4.082206 0
M  V30 7 C 11.616800 9.779620 -5.700030 0
M  V30 8 C 12.009552 6.867971 -2.691791 0
M  V30 9 C 12.418149 8.117060 -2.311509 0
M  V30 10 H 10.784721 9.069359 -7.671388 0
M  V30 11 H 11.741141 10.133396 -2.757666 0
M  V30 12 H 13.376941 9.769301 -3.333989 0
M  V30 13 H 12.039713 5.757632 -4.569646 0
M  V30 14 H 10.420390 6.132953 -3.976949 0
M  V30 15 H 11.814689 10.834030 -5.825195 0
M  V30 16 H 12.081454 6.052069 -1.987367 0
M  V30 17 H 12.805760 8.264076 -1.314213 0
M  V30 END ATOM
M  V30 BEGIN BOND
M  V30 1 1 2 1
M  V30 2 1 3 2
M  V30 3 2 4 3
M  V30 4 1 5 4
M  V30 5 1 6 3
M  V30 6 2 7 1
M  V30 7 1 7 4
M  V30 8 1 8 6
M  V30 9 1 9 5
M  V30 10 2 9 8
M  V30 11 1 10 1
M  V30 12 1 11 5
M  V30 13 1 12 5
M  V30 14 1 13 6
M  V30 15 1 14 6
M  V30 16 1 15 7
M  V30 17 1 16 8
M  V30 18 1 17 9
M  V30 END BOND
M  V30 END CTAB
M  END
>  <i_epik_Tot_Q>  (1) 
0

>  <i_epik_Tot_abs_Q>  (1) 
0

>  <i_i_glide_confnum>  (1) 
1

>  <i_i_glide_lignum>  (1) 
42

>  <i_i_glide_posenum>  (1) 
13

>  <i_i_glide_rotatable_bonds>  (1) 
0

>  <i_lp_mmshare_version>  (1) 
72125

>  <i_m_source_file_index>  (1) 
38

>  <i_f3d_flags>  (1) 
0

>  <num_sample>  (1) 
100

>  <b_lp_Chiralities_Consistent>  (1) 
1

>  <r_epik_Charging_Adjusted_Penalty>  (1) 
0

>  <r_epik_Ionization_Penalty>  (1) 
0

>  <r_epik_Ionization_Penalty_Charging>  (1) 
0

>  <r_epik_Ionization_Penalty_Neutral>  (1) 
0

>  <r_epik_State_Penalty>  (1) 
-0

>  <r_glide_ring_energy>  (1) 
0

>  <r_i_docking_score>  (1) 
-5.9682812190867569

>  <r_i_glide_ecoul>  (1) 
-0.70900207519165026

>  <r_i_glide_eff_state_penalty>  (1) 
-0

>  <r_i_glide_einternal>  (1) 
0

>  <r_i_glide_emodel>  (1) 
-28.699365562593279

>  <r_i_glide_emodel_strain>  (1) 
0

>  <r_i_glide_energy>  (1) 
-20.845918514727497

>  <r_i_glide_erotb>  (1) 
0

>  <r_i_glide_esite>  (1) 
0

>  <r_i_glide_evdw>  (1) 
-20.136916439535845

>  <r_i_glide_gscore>  (1) 
-5.9682812190867569

>  <r_i_glide_gscore_strain>  (1) 
0

>  <r_i_glide_hbond>  (1) 
0

>  <r_i_glide_ligand_efficiency>  (1) 
-0.66314235767630636

>  <r_i_glide_ligand_efficiency_ln>  (1) 
-1.8667069124244173

>  <r_i_glide_ligand_efficiency_sa>  (1) 
-1.3793916905829846

>  <r_i_glide_lipo>  (1) 
-2.2169903323428182

>  <r_i_glide_metal>  (1) 
-0

>  <r_i_glide_rewards>  (1) 
-2.6380947534883981

>  <r_lp_Energy>  (1) 
4.5932930000000001

>  <r_lp_tautomer_probability>  (1) 
1

>  <s_epik_cmdline>  (1) 
J2VwaWtfcHl0aG9uJywgJy1waHQnLCAnMS4wJywgJy1waCcsICc3LjQnLCAnLXRuJywgJzgnLCAnLW1hJywgJzUwMCcsICctaW1hZScsICc8aW5maWxlLm1hZT4nLCAnLW9tYWUnLCAnPG91dGZpbGUubWFlPic=

>  <s_epik_input>  (1) 
bzFbY0hdW2NIXWMoYzEyKVtDSDJdW0NIXT1bQ0hdW0NIMl0y

>  <s_glide_docking_method>  (1) 
confgen

>  <s_i_glide_gridfile>  (1) 
gpcr_drd2_6luq_protein_autoprepared_prepared

>  <s_lp_Force_Field>  (1) 
S-OPLS

>  <s_lp_Variant>  (1) 
Pocket2Mol_37_num_sample_100-1

>  <s_m_source_file>  (1) 
generated__ligand_Pocket2Mol_2026-05-06_prepared.sdf

>  <GenAI_Model>  (1) 
Pocket2Mol

>  <Protein>  (1) 
generic_title2

$$$$
Pocket2Mol_56_num_sample_100
     RDKit          3D

  0  0  0  0  0  0  0  0  0  0999 V3000
M  V30 BEGIN CTAB
M  V30 COUNTS 19 20 0 0 1
M  V30 BEGIN ATOM
M  V30 1 C 12.292019 6.615577 -2.374380 0
M  V30 2 O 11.435279 6.299802 -3.459213 0
M  V30 3 C 11.434839 7.202375 -4.498722 0
M  V30 4 C 11.849086 8.548975 -4.291671 0
M  V30 5 C 11.843296 9.453615 -5.371740 0
M  V30 6 C 11.015588 6.788474 -5.777380 0
M  V30 7 C 11.015645 7.698332 -6.850491 0
M  V30 8 N 12.270582 8.982138 -3.022073 0
M  V30 9 C 12.048878 8.055969 -1.923618 0
M  V30 10 C 11.432051 9.027115 -6.648574 0
M  V30 11 H 12.110312 5.916405 -1.557933 0
M  V30 12 H 13.327154 6.484978 -2.691417 0
M  V30 13 H 12.158763 10.474852 -5.223160 0
M  V30 14 H 10.696939 5.769303 -5.935762 0
M  V30 15 H 10.696408 7.375801 -7.831146 0
M  V30 16 H 12.412254 9.964020 -2.832383 0
M  V30 17 H 11.034843 8.169267 -1.538636 0
M  V30 18 H 12.726350 8.313162 -1.108893 0
M  V30 19 H 11.434968 9.721433 -7.474366 0
M  V30 END ATOM
M  V30 BEGIN BOND
M  V30 1 1 2 1
M  V30 2 1 3 2
M  V30 3 1 4 3
M  V30 4 2 5 4
M  V30 5 2 6 3
M  V30 6 1 7 6
M  V30 7 1 8 4
M  V30 8 1 9 1
M  V30 9 1 9 8
M  V30 10 1 10 5
M  V30 11 2 10 7
M  V30 12 1 11 1
M  V30 13 1 12 1
M  V30 14 1 13 5
M  V30 15 1 14 6
M  V30 16 1 15 7
M  V30 17 1 16 8
M  V30 18 1 17 9
M  V30 19 1 18 9
M  V30 20 1 19 10
M  V30 END BOND
M  V30 END CTAB
M  END
>  <i_epik_Tot_Q>  (1) 
0

>  <i_epik_Tot_abs_Q>  (1) 
0

>  <i_i_glide_confnum>  (1) 
1

>  <i_i_glide_lignum>  (1) 
63

>  <i_i_glide_posenum>  (1) 
112

>  <i_i_glide_rotatable_bonds>  (1) 
0

>  <i_lp_mmshare_version>  (1) 
72125

>  <i_m_source_file_index>  (1) 
57

>  <i_f3d_flags>  (1) 
0

>  <num_sample>  (1) 
100

>  <b_lp_Chiralities_Consistent>  (1) 
1

>  <r_epik_Charging_Adjusted_Penalty>  (1) 
0

>  <r_epik_Ionization_Penalty>  (1) 
0.00026422915675488977

>  <r_epik_Ionization_Penalty_Charging>  (1) 
0

>  <r_epik_Ionization_Penalty_Neutral>  (1) 
0.00026422915675488977

>  <r_epik_State_Penalty>  (1) 
-0

>  <r_glide_ring_energy>  (1) 
0

>  <r_i_docking_score>  (1) 
-5.9622020026783318

>  <r_i_glide_ecoul>  (1) 
0.060759560379057963

>  <r_i_glide_eff_state_penalty>  (1) 
-0

>  <r_i_glide_einternal>  (1) 
0

>  <r_i_glide_emodel>  (1) 
-29.538792427468934

>  <r_i_glide_emodel_strain>  (1) 
0

>  <r_i_glide_energy>  (1) 
-21.523674273607003

>  <r_i_glide_erotb>  (1) 
0

>  <r_i_glide_esite>  (1) 
0

>  <r_i_glide_evdw>  (1) 
-21.584433833986061

>  <r_i_glide_gscore>  (1) 
-5.9622020026783318

>  <r_i_glide_gscore_strain>  (1) 
0

>  <r_i_glide_hbond>  (1) 
0

>  <r_i_glide_ligand_efficiency>  (1) 
-0.59622020026783318

>  <r_i_glide_ligand_efficiency_ln>  (1) 
-1.8053136663537532

>  <r_i_glide_ligand_efficiency_sa>  (1) 
-1.2845174823547769

>  <r_i_glide_lipo>  (1) 
-2.1707992067706825

>  <r_i_glide_metal>  (1) 
-0

>  <r_i_glide_rewards>  (1) 
-2.7212950382652052

>  <r_lp_Energy>  (1) 
15.245389999999999

>  <r_lp_tautomer_probability>  (1) 
1

>  <s_epik_cmdline>  (1) 
J2VwaWtfcHl0aG9uJywgJy1waHQnLCAnMS4wJywgJy1waCcsICc3LjQnLCAnLXRuJywgJzgnLCAnLW1hJywgJzUwMCcsICctaW1hZScsICc8aW5maWxlLm1hZT4nLCAnLW9tYWUnLCAnPG91dGZpbGUubWFlPic=

>  <s_epik_input>  (1) 
TzFbQ0gyXVtDSDJdW05IXWMoYzEyKVtjSF1bY0hdW2NIXVtjSF0y

>  <s_glide_docking_method>  (1) 
confgen

>  <s_i_glide_gridfile>  (1) 
gpcr_drd2_6luq_protein_autoprepared_prepared

>  <s_lp_Force_Field>  (1) 
S-OPLS

>  <s_lp_Variant>  (1) 
Pocket2Mol_56_num_sample_100-1

>  <s_m_source_file>  (1) 
generated__ligand_Pocket2Mol_2026-05-06_prepared.sdf

>  <GenAI_Model>  (1) 
Pocket2Mol

>  <Protein>  (1) 
generic_title2

$$$$
Pocket2Mol_38_num_sample_100
     RDKit          3D

  0  0  0  0  0  0  0  0  0  0999 V3000
M  V30 BEGIN CTAB
M  V30 COUNTS 15 16 0 0 1
M  V30 BEGIN ATOM
M  V30 1 C 9.822926 7.826119 -7.427814 0
M  V30 2 O 10.456953 8.969299 -6.981876 0
M  V30 3 C 11.086479 8.649218 -5.805691 0
M  V30 4 C 10.855935 7.298942 -5.506695 0
M  V30 5 C 11.438867 6.798731 -4.312513 0
M  V30 6 C 11.844922 9.503664 -5.003238 0
M  V30 7 C 10.041621 6.774368 -6.558506 0
M  V30 8 C 12.422496 8.998568 -3.827631 0
M  V30 9 C 12.223344 7.643995 -3.480192 0
M  V30 10 H 9.268147 7.920164 -8.352617 0
M  V30 11 H 11.287358 5.768852 -4.036114 0
M  V30 12 H 11.984920 10.536078 -5.285768 0
M  V30 13 H 9.672875 5.766072 -6.644222 0
M  V30 14 H 13.015176 9.641420 -3.192061 0
M  V30 15 H 12.664392 7.249825 -2.575677 0
M  V30 END ATOM
M  V30 BEGIN BOND
M  V30 1 1 2 1
M  V30 2 1 3 2
M  V30 3 1 4 3
M  V30 4 2 5 4
M  V30 5 2 6 3
M  V30 6 2 7 1
M  V30 7 1 7 4
M  V30 8 1 8 6
M  V30 9 1 9 5
M  V30 10 2 9 8
M  V30 11 1 10 1
M  V30 12 1 11 5
M  V30 13 1 12 6
M  V30 14 1 13 7
M  V30 15 1 14 8
M  V30 16 1 15 9
M  V30 END BOND
M  V30 END CTAB
M  END
>  <i_epik_Tot_Q>  (1) 
0

>  <i_epik_Tot_abs_Q>  (1) 
0

>  <i_i_glide_confnum>  (1) 
1

>  <i_i_glide_lignum>  (1) 
43

>  <i_i_glide_posenum>  (1) 
88

>  <i_i_glide_rotatable_bonds>  (1) 
0

>  <i_lp_mmshare_version>  (1) 
72125

>  <i_m_source_file_index>  (1) 
39

>  <i_f3d_flags>  (1) 
0

>  <num_sample>  (1) 
100

>  <b_lp_Chiralities_Consistent>  (1) 
1

>  <r_epik_Charging_Adjusted_Penalty>  (1) 
0

>  <r_epik_Ionization_Penalty>  (1) 
0

>  <r_epik_Ionization_Penalty_Charging>  (1) 
0

>  <r_epik_Ionization_Penalty_Neutral>  (1) 
0

>  <r_epik_State_Penalty>  (1) 
-0

>  <r_glide_ring_energy>  (1) 
0

>  <r_i_docking_score>  (1) 
-5.9571401856475354

>  <r_i_glide_ecoul>  (1) 
-1.6243791089136468

>  <r_i_glide_eff_state_penalty>  (1) 
-0

>  <r_i_glide_einternal>  (1) 
0

>  <r_i_glide_emodel>  (1) 
-28.032183968775961

>  <r_i_glide_emodel_strain>  (1) 
0

>  <r_i_glide_energy>  (1) 
-20.417920600108665

>  <r_i_glide_erotb>  (1) 
0

>  <r_i_glide_esite>  (1) 
0

>  <r_i_glide_evdw>  (1) 
-18.793541491195018

>  <r_i_glide_gscore>  (1) 
-5.9571401856475354

>  <r_i_glide_gscore_strain>  (1) 
0

>  <r_i_glide_hbond>  (1) 
0

>  <r_i_glide_ligand_efficiency>  (1) 
-0.66190446507194833

>  <r_i_glide_ligand_efficiency_ln>  (1) 
-1.8632223172170004

>  <r_i_glide_ligand_efficiency_sa>  (1) 
-1.3768167702019842

>  <r_i_glide_lipo>  (1) 
-2.0027394031775869

>  <r_i_glide_metal>  (1) 
-0

>  <r_i_glide_rewards>  (1) 
-2.7710668415731501

>  <r_lp_Energy>  (1) 
12.927653999999999

>  <r_lp_tautomer_probability>  (1) 
1

>  <s_epik_cmdline>  (1) 
J2VwaWtfcHl0aG9uJywgJy1waHQnLCAnMS4wJywgJy1waCcsICc3LjQnLCAnLXRuJywgJzgnLCAnLW1hJywgJzUwMCcsICctaW1hZScsICc8aW5maWxlLm1hZT4nLCAnLW9tYWUnLCAnPG91dGZpbGUubWFlPic=

>  <s_epik_input>  (1) 
bzFbY0hdW2NIXWMoYzEyKVtjSF1bY0hdW2NIXVtjSF0y

>  <s_glide_docking_method>  (1) 
confgen

>  <s_i_glide_gridfile>  (1) 
gpcr_drd2_6luq_protein_autoprepared_prepared

>  <s_lp_Force_Field>  (1) 
S-OPLS

>  <s_lp_Variant>  (1) 
Pocket2Mol_38_num_sample_100-1

>  <s_m_source_file>  (1) 
generated__ligand_Pocket2Mol_2026-05-06_prepared.sdf

>  <GenAI_Model>  (1) 
Pocket2Mol

>  <Protein>  (1) 
generic_title2

$$$$
Pocket2Mol_54_num_sample_100
     RDKit          3D

  0  0  0  0  0  0  0  0  0  0999 V3000
M  V30 BEGIN CTAB
M  V30 COUNTS 18 19 0 0 1
M  V30 BEGIN ATOM
M  V30 1 C 10.398339 8.194037 -7.070682 0
M  V30 2 O 10.434875 6.953495 -6.271306 0
M  V30 3 C 11.125909 7.345401 -5.177914 0
M  V30 4 C 11.564791 8.617096 -5.185676 0
M  V30 5 C 12.296457 9.150682 -4.109869 0
M  V30 6 C 11.386475 6.496510 -4.094932 0
M  V30 7 C 12.116207 6.988849 -2.991846 0
M  V30 8 O 12.376805 6.178946 -1.926530 0
M  V30 9 C 12.574662 8.328275 -2.997887 0
M  V30 10 C 11.237418 9.370531 -6.386054 0
M  V30 11 H 10.767283 7.983689 -8.075319 0
M  V30 12 H 9.354884 8.493634 -7.180280 0
M  V30 13 H 12.643763 10.169301 -4.137621 0
M  V30 14 H 11.029926 5.481103 -4.107439 0
M  V30 15 H 11.933636 5.341334 -1.972285 0
M  V30 16 H 13.135299 8.717723 -2.161032 0
M  V30 17 H 10.651188 10.261578 -6.157854 0
M  V30 18 H 12.145626 9.618320 -6.937975 0
M  V30 END ATOM
M  V30 BEGIN BOND
M  V30 1 1 2 1
M  V30 2 1 3 2
M  V30 3 2 4 3
M  V30 4 1 5 4
M  V30 5 1 6 3
M  V30 6 2 7 6
M  V30 7 1 8 7
M  V30 8 2 9 5
M  V30 9 1 9 7
M  V30 10 1 10 1
M  V30 11 1 10 4
M  V30 12 1 11 1
M  V30 13 1 12 1
M  V30 14 1 13 5
M  V30 15 1 14 6
M  V30 16 1 15 8
M  V30 17 1 16 9
M  V30 18 1 17 10
M  V30 19 1 18 10
M  V30 END BOND
M  V30 END CTAB
M  END
>  <i_epik_Tot_Q>  (1) 
0

>  <i_epik_Tot_abs_Q>  (1) 
0

>  <i_i_glide_confnum>  (1) 
1

>  <i_i_glide_lignum>  (1) 
61

>  <i_i_glide_posenum>  (1) 
172

>  <i_i_glide_rotatable_bonds>  (1) 
1

>  <i_lp_mmshare_version>  (1) 
72125

>  <i_m_source_file_index>  (1) 
55

>  <i_f3d_flags>  (1) 
0

>  <num_sample>  (1) 
100

>  <b_lp_Chiralities_Consistent>  (1) 
1

>  <r_epik_Charging_Adjusted_Penalty>  (1) 
0

>  <r_epik_Ionization_Penalty>  (1) 
0.0019697177408658601

>  <r_epik_Ionization_Penalty_Charging>  (1) 
0

>  <r_epik_Ionization_Penalty_Neutral>  (1) 
0.0019697177408658601

>  <r_epik_State_Penalty>  (1) 
-0

>  <r_glide_ring_energy>  (1) 
0

>  <r_i_docking_score>  (1) 
-5.9550689273073445

>  <r_i_glide_ecoul>  (1) 
-2.1173754511928058

>  <r_i_glide_eff_state_penalty>  (1) 
-0

>  <r_i_glide_einternal>  (1) 
0.0046801289573316363

>  <r_i_glide_emodel>  (1) 
-29.553186305756288

>  <r_i_glide_emodel_strain>  (1) 
5.0382098493173544e-10

>  <r_i_glide_energy>  (1) 
-20.714594873676102

>  <r_i_glide_erotb>  (1) 
0

>  <r_i_glide_esite>  (1) 
0

>  <r_i_glide_evdw>  (1) 
-18.597219422483295

>  <r_i_glide_gscore>  (1) 
-5.9550689273073445

>  <r_i_glide_gscore_strain>  (1) 
0

>  <r_i_glide_hbond>  (1) 
0

>  <r_i_glide_ligand_efficiency>  (1) 
-0.59550689273073443

>  <r_i_glide_ligand_efficiency_ln>  (1) 
-1.8031538203028159

>  <r_i_glide_ligand_efficiency_sa>  (1) 
-1.2829807078521902

>  <r_i_glide_lipo>  (1) 
-2.0999940298227462

>  <r_i_glide_metal>  (1) 
-0

>  <r_i_glide_rewards>  (1) 
-2.6076076086815121

>  <r_lp_Energy>  (1) 
8.5284040000000001

>  <r_lp_tautomer_probability>  (1) 
1

>  <s_epik_cmdline>  (1) 
J2VwaWtfcHl0aG9uJywgJy1waHQnLCAnMS4wJywgJy1waCcsICc3LjQnLCAnLXRuJywgJzgnLCAnLW1hJywgJzUwMCcsICctaW1hZScsICc8aW5maWxlLm1hZT4nLCAnLW9tYWUnLCAnPG91dGZpbGUubWFlPic=

>  <s_epik_input>  (1) 
TzFbQ0gyXVtDSDJdYyhjMTIpW2NIXVtjSF1jKFtjSF0yKVtPSF0=

>  <s_glide_docking_method>  (1) 
confgen

>  <s_i_glide_gridfile>  (1) 
gpcr_drd2_6luq_protein_autoprepared_prepared

>  <s_lp_Force_Field>  (1) 
S-OPLS

>  <s_lp_Variant>  (1) 
Pocket2Mol_54_num_sample_100-1

>  <s_m_source_file>  (1) 
generated__ligand_Pocket2Mol_2026-05-06_prepared.sdf

>  <GenAI_Model>  (1) 
Pocket2Mol

>  <Protein>  (1) 
generic_title2

$$$$
Pocket2Mol_60_num_sample_100
     RDKit          3D

  0  0  0  0  0  0  0  0  0  0999 V3000
M  V30 BEGIN CTAB
M  V30 COUNTS 19 20 0 0 1
M  V30 BEGIN ATOM
M  V30 1 C 10.120277 6.711303 -7.768410 0
M  V30 2 O 10.284741 6.230439 -6.444289 0
M  V30 3 C 10.920902 7.082744 -5.570227 0
M  V30 4 C 9.598414 8.146451 -7.705508 0
M  V30 5 O 10.556840 8.969301 -7.053295 0
M  V30 6 C 11.059395 8.462598 -5.877914 0
M  V30 7 C 11.435364 6.580064 -4.361817 0
M  V30 8 C 12.093532 7.438155 -3.460650 0
M  V30 9 C 11.719489 9.319472 -4.973762 0
M  V30 10 O 12.591102 6.943904 -2.293077 0
M  V30 11 C 12.235257 8.807718 -3.765109 0
M  V30 12 H 11.071770 6.659460 -8.297536 0
M  V30 13 H 9.417955 6.065757 -8.300006 0
M  V30 14 H 9.416788 8.525439 -8.711922 0
M  V30 15 H 8.652522 8.182799 -7.164503 0
M  V30 16 H 11.326095 5.534263 -4.129091 0
M  V30 17 H 11.827548 10.369038 -5.206174 0
M  V30 18 H 12.378961 6.031917 -2.157770 0
M  V30 19 H 12.740249 9.465749 -3.072533 0
M  V30 END ATOM
M  V30 BEGIN BOND
M  V30 1 1 2 1
M  V30 2 1 3 2
M  V30 3 1 4 1
M  V30 4 1 5 4
M  V30 5 2 6 3
M  V30 6 1 6 5
M  V30 7 1 7 3
M  V30 8 2 8 7
M  V30 9 1 9 6
M  V30 10 1 10 8
M  V30 11 1 11 8
M  V30 12 2 11 9
M  V30 13 1 12 1
M  V30 14 1 13 1
M  V30 15 1 14 4
M  V30 16 1 15 4
M  V30 17 1 16 7
M  V30 18 1 17 9
M  V30 19 1 18 10
M  V30 20 1 19 11
M  V30 END BOND
M  V30 END CTAB
M  END
>  <i_epik_Tot_Q>  (1) 
0

>  <i_epik_Tot_abs_Q>  (1) 
0

>  <i_i_glide_confnum>  (1) 
1

>  <i_i_glide_lignum>  (1) 
67

>  <i_i_glide_posenum>  (1) 
198

>  <i_i_glide_rotatable_bonds>  (1) 
1

>  <i_lp_mmshare_version>  (1) 
72125

>  <i_m_source_file_index>  (1) 
61

>  <i_f3d_flags>  (1) 
0

>  <num_sample>  (1) 
100

>  <b_lp_Chiralities_Consistent>  (1) 
1

>  <r_epik_Charging_Adjusted_Penalty>  (1) 
0

>  <r_epik_Ionization_Penalty>  (1) 
0.0014130578134093086

>  <r_epik_Ionization_Penalty_Charging>  (1) 
0

>  <r_epik_Ionization_Penalty_Neutral>  (1) 
0.0014130578134093086

>  <r_epik_State_Penalty>  (1) 
-0

>  <r_glide_ring_energy>  (1) 
0

>  <r_i_docking_score>  (1) 
-5.9522802501572585

>  <r_i_glide_ecoul>  (1) 
-1.9900190992698965

>  <r_i_glide_eff_state_penalty>  (1) 
-0

>  <r_i_glide_einternal>  (1) 
0.013759891314058151

>  <r_i_glide_emodel>  (1) 
-33.023356643409187

>  <r_i_glide_emodel_strain>  (1) 
0

>  <r_i_glide_energy>  (1) 
-24.030232801282473

>  <r_i_glide_erotb>  (1) 
0

>  <r_i_glide_esite>  (1) 
0

>  <r_i_glide_evdw>  (1) 
-22.040213702012576

>  <r_i_glide_gscore>  (1) 
-5.9522802501572585

>  <r_i_glide_gscore_strain>  (1) 
0

>  <r_i_glide_hbond>  (1) 
0

>  <r_i_glide_ligand_efficiency>  (1) 
-0.54111638637793258

>  <r_i_glide_ligand_efficiency_ln>  (1) 
-1.7517550637324966

>  <r_i_glide_ligand_efficiency_sa>  (1) 
-1.2034320699853354

>  <r_i_glide_lipo>  (1) 
-1.8023619934293562

>  <r_i_glide_metal>  (1) 
-0

>  <r_i_glide_rewards>  (1) 
-2.7494047067367893

>  <r_lp_Energy>  (1) 
13.915925999999999

>  <r_lp_tautomer_probability>  (1) 
1

>  <s_epik_cmdline>  (1) 
J2VwaWtfcHl0aG9uJywgJy1waHQnLCAnMS4wJywgJy1waCcsICc3LjQnLCAnLXRuJywgJzgnLCAnLW1hJywgJzUwMCcsICctaW1hZScsICc8aW5maWxlLm1hZT4nLCAnLW9tYWUnLCAnPG91dGZpbGUubWFlPic=

>  <s_epik_input>  (1) 
TzFbQ0gyXVtDSDJdT2MoYzEyKVtjSF1bY0hdYyhbY0hdMilbT0hd

>  <s_glide_docking_method>  (1) 
confgen

>  <s_i_glide_gridfile>  (1) 
gpcr_drd2_6luq_protein_autoprepared_prepared

>  <s_lp_Force_Field>  (1) 
S-OPLS

>  <s_lp_Variant>  (1) 
Pocket2Mol_60_num_sample_100-1

>  <s_m_source_file>  (1) 
generated__ligand_Pocket2Mol_2026-05-06_prepared.sdf

>  <GenAI_Model>  (1) 
Pocket2Mol

>  <Protein>  (1) 
generic_title2

$$$$
Pocket2Mol_61_num_sample_100
     RDKit          3D

  0  0  0  0  0  0  0  0  0  0999 V3000
M  V30 BEGIN CTAB
M  V30 COUNTS 18 19 0 0 1
M  V30 BEGIN ATOM
M  V30 1 C 12.516429 8.308919 -1.937656 0
M  V30 2 O 12.247165 9.369301 -2.779395 0
M  V30 3 C 11.834839 8.842126 -3.976045 0
M  V30 4 C 11.834839 7.441292 -3.891667 0
M  V30 5 C 11.423019 6.729612 -5.047625 0
M  V30 6 C 11.034839 7.421238 -6.226138 0
M  V30 7 C 12.275092 7.103969 -2.572943 0
M  V30 8 N 10.634869 6.694085 -7.355740 0
M  V30 9 C 11.050168 8.839671 -6.254296 0
M  V30 10 C 11.454611 9.551366 -5.116493 0
M  V30 11 O 10.859625 7.356240 -8.575412 0
M  V30 12 H 12.859212 8.569380 -0.947113 0
M  V30 13 H 11.405022 5.653353 -5.029268 0
M  V30 14 H 12.390885 6.108742 -2.167257 0
M  V30 15 H 10.897689 5.719582 -7.415696 0
M  V30 16 H 10.749728 9.369301 -7.144098 0
M  V30 17 H 11.468735 10.630732 -5.120933 0
M  V30 18 H 11.795317 7.469563 -8.644354 0
M  V30 END ATOM
M  V30 BEGIN BOND
M  V30 1 1 2 1
M  V30 2 1 3 2
M  V30 3 1 4 3
M  V30 4 2 5 4
M  V30 5 1 6 5
M  V30 6 2 7 1
M  V30 7 1 7 4
M  V30 8 1 8 6
M  V30 9 2 9 6
M  V30 10 2 10 3
M  V30 11 1 10 9
M  V30 12 1 11 8
M  V30 13 1 12 1
M  V30 14 1 13 5
M  V30 15 1 14 7
M  V30 16 1 15 8
M  V30 17 1 16 9
M  V30 18 1 17 10
M  V30 19 1 18 11
M  V30 END BOND
M  V30 END CTAB
M  END
>  <i_epik_Tot_Q>  (1) 
0

>  <i_epik_Tot_abs_Q>  (1) 
0

>  <i_i_glide_confnum>  (1) 
1

>  <i_i_glide_lignum>  (1) 
68

>  <i_i_glide_posenum>  (1) 
248

>  <i_i_glide_rotatable_bonds>  (1) 
2

>  <i_lp_mmshare_version>  (1) 
72125

>  <i_m_source_file_index>  (1) 
62

>  <i_f3d_flags>  (1) 
0

>  <num_sample>  (1) 
100

>  <b_lp_Chiralities_Consistent>  (1) 
1

>  <r_epik_Charging_Adjusted_Penalty>  (1) 
0

>  <r_epik_Ionization_Penalty>  (1) 
0.00016546089717554426

>  <r_epik_Ionization_Penalty_Charging>  (1) 
0

>  <r_epik_Ionization_Penalty_Neutral>  (1) 
0.00016546089717554426

>  <r_epik_State_Penalty>  (1) 
-0

>  <r_glide_ring_energy>  (1) 
0

>  <r_i_docking_score>  (1) 
-5.9506105422598798

>  <r_i_glide_ecoul>  (1) 
0.57466580749280105

>  <r_i_glide_eff_state_penalty>  (1) 
-0

>  <r_i_glide_einternal>  (1) 
0.88038860400137775

>  <r_i_glide_emodel>  (1) 
-32.937360440878585

>  <r_i_glide_emodel_strain>  (1) 
0

>  <r_i_glide_energy>  (1) 
-23.53068466607229

>  <r_i_glide_erotb>  (1) 
0

>  <r_i_glide_esite>  (1) 
0

>  <r_i_glide_evdw>  (1) 
-24.105350473565089

>  <r_i_glide_gscore>  (1) 
-5.9506105422598798

>  <r_i_glide_gscore_strain>  (1) 
0

>  <r_i_glide_hbond>  (1) 
0

>  <r_i_glide_ligand_efficiency>  (1) 
-0.5409645947508982

>  <r_i_glide_ligand_efficiency_ln>  (1) 
-1.7512636689827097

>  <r_i_glide_ligand_efficiency_sa>  (1) 
-1.2030944884288957

>  <r_i_glide_lipo>  (1) 
-2.3025384747684221

>  <r_i_glide_metal>  (1) 
-0

>  <r_i_glide_rewards>  (1) 
-2.5290044149371229

>  <r_lp_Energy>  (1) 
13.798807999999999

>  <r_lp_tautomer_probability>  (1) 
1

>  <s_epik_Chemistry_Notes>  (1) 
This compound has a N-S or N-O group and may undergo hydrolysis at high or low pH.

>  <s_epik_cmdline>  (1) 
J2VwaWtfcHl0aG9uJywgJy1waHQnLCAnMS4wJywgJy1waCcsICc3LjQnLCAnLXRuJywgJzgnLCAnLW1hJywgJzUwMCcsICctaW1hZScsICc8aW5maWxlLm1hZT4nLCAnLW9tYWUnLCAnPG91dGZpbGUubWFlPic=

>  <s_epik_input>  (1) 
bzFbY0hdW2NIXWMoYzEyKVtjSF1jKFtOSF1bT0hdKVtjSF1bY0hdMg==

>  <s_glide_docking_method>  (1) 
confgen

>  <s_i_glide_gridfile>  (1) 
gpcr_drd2_6luq_protein_autoprepared_prepared

>  <s_lp_Force_Field>  (1) 
S-OPLS

>  <s_lp_Variant>  (1) 
Pocket2Mol_61_num_sample_100-1

>  <s_m_source_file>  (1) 
generated__ligand_Pocket2Mol_2026-05-06_prepared.sdf

>  <GenAI_Model>  (1) 
Pocket2Mol

>  <Protein>  (1) 
generic_title2

$$$$
Pocket2Mol_71_num_sample_100
     RDKit          3D

  0  0  0  0  0  0  0  0  0  0999 V3000
M  V30 BEGIN CTAB
M  V30 COUNTS 16 17 0 0 1
M  V30 BEGIN ATOM
M  V30 1 C 11.664317 9.265182 -6.838548 0
M  V30 2 O 12.039312 9.737249 -5.617895 0
M  V30 3 C 11.998837 8.798164 -4.585774 0
M  V30 4 C 11.434759 7.475908 -4.803621 0
M  V30 5 C 11.446671 6.569443 -3.722108 0
M  V30 6 C 12.530106 9.140373 -3.336690 0
M  V30 7 C 12.523477 8.220450 -2.287798 0
M  V30 8 N 10.916620 7.106919 -6.003754 0 CHG=-1
M  V30 9 C 11.135585 8.019013 -6.952905 0
M  V30 10 F 13.038946 8.568733 -1.091595 0
M  V30 11 C 11.985688 6.938261 -2.475119 0
M  V30 12 H 11.834839 9.960676 -7.641633 0
M  V30 13 H 11.037274 5.582136 -3.854078 0
M  V30 14 H 12.951769 10.118906 -3.185147 0
M  V30 15 H 10.854590 7.699598 -7.978421 0
M  V30 16 H 11.986605 6.228413 -1.660359 0
M  V30 END ATOM
M  V30 BEGIN BOND
M  V30 1 1 2 1
M  V30 2 1 3 2
M  V30 3 2 4 3
M  V30 4 1 5 4
M  V30 5 1 6 3
M  V30 6 2 7 6
M  V30 7 1 8 4
M  V30 8 2 9 1
M  V30 9 1 9 8
M  V30 10 1 10 7
M  V30 11 2 11 5
M  V30 12 1 11 7
M  V30 13 1 12 1
M  V30 14 1 13 5
M  V30 15 1 14 6
M  V30 16 1 15 9
M  V30 17 1 16 11
M  V30 END BOND
M  V30 END CTAB
M  END
>  <i_epik_Tot_Q>  (1) 
-1

>  <i_epik_Tot_abs_Q>  (1) 
1

>  <i_i_glide_confnum>  (1) 
1

>  <i_i_glide_lignum>  (1) 
78

>  <i_i_glide_posenum>  (1) 
37

>  <i_i_glide_rotatable_bonds>  (1) 
0

>  <i_lp_mmshare_version>  (1) 
72125

>  <i_m_source_file_index>  (1) 
72

>  <i_f3d_flags>  (1) 
0

>  <num_sample>  (1) 
100

>  <b_lp_Chiralities_Consistent>  (1) 
1

>  <r_epik_Charging_Adjusted_Penalty>  (1) 
0.017639978051431922

>  <r_epik_Ionization_Penalty>  (1) 
0.017639978051431908

>  <r_epik_Ionization_Penalty_Charging>  (1) 
0

>  <r_epik_Ionization_Penalty_Neutral>  (1) 
0.017639978051431908

>  <r_epik_State_Penalty>  (1) 
0.017639978051431922

>  <r_glide_ring_energy>  (1) 
0

>  <r_i_docking_score>  (1) 
-5.9503703110262141

>  <r_i_glide_ecoul>  (1) 
-2.0191401120837762

>  <r_i_glide_eff_state_penalty>  (1) 
0.017639978051431922

>  <r_i_glide_einternal>  (1) 
0

>  <r_i_glide_emodel>  (1) 
-27.325529117521913

>  <r_i_glide_emodel_strain>  (1) 
0

>  <r_i_glide_energy>  (1) 
-18.898278168208929

>  <r_i_glide_erotb>  (1) 
0

>  <r_i_glide_esite>  (1) 
-0.019305689148820707

>  <r_i_glide_evdw>  (1) 
-16.879138056125154

>  <r_i_glide_gscore>  (1) 
-5.9680102890776459

>  <r_i_glide_gscore_strain>  (1) 
0

>  <r_i_glide_hbond>  (1) 
0

>  <r_i_glide_ligand_efficiency>  (1) 
-0.54094275554783766

>  <r_i_glide_ligand_efficiency_ln>  (1) 
-1.751192968971562

>  <r_i_glide_ligand_efficiency_sa>  (1) 
-1.2030459184760951

>  <r_i_glide_lipo>  (1) 
-1.9911924170168249

>  <r_i_glide_metal>  (1) 
-0

>  <r_i_glide_rewards>  (1) 
-2.8106842632931759

>  <r_lp_Energy>  (1) 
25.3598

>  <s_epik_Chemistry_Notes>  (1) 
This compound has an imine and may undergo hydrolysis.

>  <s_epik_cmdline>  (1) 
J2VwaWtfcHl0aG9uJywgJy1waHQnLCAnMS4wJywgJy1waCcsICc3LjQnLCAnLXRuJywgJzgnLCAnLW1hJywgJzUwMCcsICctaW1hZScsICc8aW5maWxlLm1hZT4nLCAnLW9tYWUnLCAnPG91dGZpbGUubWFlPic=

>  <s_epik_input>  (1) 
TzFbQ0gyXVtDSF09TmMoYzEyKVtjSF1bY0hdYyhGKVtjSF0y

>  <s_glide_docking_method>  (1) 
confgen

>  <s_i_glide_gridfile>  (1) 
gpcr_drd2_6luq_protein_autoprepared_prepared

>  <s_lp_Force_Field>  (1) 
S-OPLS

>  <s_lp_Variant>  (1) 
Pocket2Mol_71_num_sample_100-1

>  <s_m_source_file>  (1) 
generated__ligand_Pocket2Mol_2026-05-06_prepared.sdf

>  <GenAI_Model>  (1) 
Pocket2Mol

>  <Protein>  (1) 
generic_title2

$$$$
Pocket2Mol_49_num_sample_100
     RDKit          3D

  0  0  0  0  0  0  0  0  0  0999 V3000
M  V30 BEGIN CTAB
M  V30 COUNTS 20 21 0 0 1
M  V30 BEGIN ATOM
M  V30 1 C 9.634731 8.569298 -7.419745 0
M  V30 2 O 10.625362 9.296301 -6.691641 0
M  V30 3 C 11.145680 8.709446 -5.563964 0
M  V30 4 C 11.034839 7.314519 -5.359926 0
M  V30 5 C 11.576132 6.730182 -4.196621 0
M  V30 6 C 11.801531 9.506094 -4.608412 0
M  V30 7 C 12.345676 8.920212 -3.448480 0
M  V30 8 C 10.344047 6.446626 -6.390498 0
M  V30 9 C 12.234718 7.532705 -3.242446 0
M  V30 10 C 10.118162 7.159523 -7.714108 0
M  V30 11 H 8.699375 8.554367 -6.857228 0
M  V30 12 H 9.425879 9.071549 -8.363528 0
M  V30 13 H 11.490715 5.668038 -4.038595 0
M  V30 14 H 11.884852 10.569300 -4.765683 0
M  V30 15 H 12.847833 9.536106 -2.716642 0
M  V30 16 H 10.937038 5.551497 -6.569183 0
M  V30 17 H 9.383952 6.142173 -5.974247 0
M  V30 18 H 12.651054 7.083099 -2.353192 0
M  V30 19 H 9.395674 6.616272 -8.325528 0
M  V30 20 H 11.049166 7.207411 -8.280629 0
M  V30 END ATOM
M  V30 BEGIN BOND
M  V30 1 1 2 1
M  V30 2 1 3 2
M  V30 3 1 4 3
M  V30 4 2 5 4
M  V30 5 2 6 3
M  V30 6 1 7 6
M  V30 7 1 8 4
M  V30 8 1 9 5
M  V30 9 2 9 7
M  V30 10 1 10 1
M  V30 11 1 10 8
M  V30 12 1 11 1
M  V30 13 1 12 1
M  V30 14 1 13 5
M  V30 15 1 14 6
M  V30 16 1 15 7
M  V30 17 1 16 8
M  V30 18 1 17 8
M  V30 19 1 18 9
M  V30 20 1 19 10
M  V30 21 1 20 10
M  V30 END BOND
M  V30 END CTAB
M  END
>  <i_epik_Tot_Q>  (1) 
0

>  <i_epik_Tot_abs_Q>  (1) 
0

>  <i_i_glide_confnum>  (1) 
2

>  <i_i_glide_lignum>  (1) 
56

>  <i_i_glide_posenum>  (1) 
50

>  <i_i_glide_rotatable_bonds>  (1) 
0

>  <i_lp_mmshare_version>  (1) 
72125

>  <i_m_source_file_index>  (1) 
50

>  <i_f3d_flags>  (1) 
0

>  <num_sample>  (1) 
100

>  <b_lp_Chiralities_Consistent>  (1) 
1

>  <r_epik_Charging_Adjusted_Penalty>  (1) 
0

>  <r_epik_Ionization_Penalty>  (1) 
0

>  <r_epik_Ionization_Penalty_Charging>  (1) 
0

>  <r_epik_Ionization_Penalty_Neutral>  (1) 
0

>  <r_epik_State_Penalty>  (1) 
-0

>  <r_glide_ring_energy>  (1) 
0.00062646134177747853

>  <r_i_docking_score>  (1) 
-5.9484338005608803

>  <r_i_glide_ecoul>  (1) 
-1.808300288165239

>  <r_i_glide_eff_state_penalty>  (1) 
-0

>  <r_i_glide_einternal>  (1) 
0

>  <r_i_glide_emodel>  (1) 
-27.600517633922479

>  <r_i_glide_emodel_strain>  (1) 
0

>  <r_i_glide_energy>  (1) 
-20.064930824570702

>  <r_i_glide_erotb>  (1) 
0

>  <r_i_glide_esite>  (1) 
0

>  <r_i_glide_evdw>  (1) 
-18.256630536405464

>  <r_i_glide_gscore>  (1) 
-5.9484338005608803

>  <r_i_glide_gscore_strain>  (1) 
0

>  <r_i_glide_hbond>  (1) 
0

>  <r_i_glide_ligand_efficiency>  (1) 
-0.59484338005608806

>  <r_i_glide_ligand_efficiency_ln>  (1) 
-1.8011447496628075

>  <r_i_glide_ligand_efficiency_sa>  (1) 
-1.2815512131286562

>  <r_i_glide_lipo>  (1) 
-2.0239103249619124

>  <r_i_glide_metal>  (1) 
-0

>  <r_i_glide_rewards>  (1) 
-2.7404469055539091

>  <r_lp_Energy>  (1) 
14.978437

>  <r_lp_tautomer_probability>  (1) 
1

>  <s_epik_cmdline>  (1) 
J2VwaWtfcHl0aG9uJywgJy1waHQnLCAnMS4wJywgJy1waCcsICc3LjQnLCAnLXRuJywgJzgnLCAnLW1hJywgJzUwMCcsICctaW1hZScsICc8aW5maWxlLm1hZT4nLCAnLW9tYWUnLCAnPG91dGZpbGUubWFlPic=

>  <s_epik_input>  (1) 
TzFbQ0gyXVtDSDJdW0NIMl1jKGMxMilbY0hdW2NIXVtjSF1bY0hdMg==

>  <s_glide_docking_method>  (1) 
confgen

>  <s_i_glide_gridfile>  (1) 
gpcr_drd2_6luq_protein_autoprepared_prepared

>  <s_lp_Force_Field>  (1) 
S-OPLS

>  <s_lp_Variant>  (1) 
Pocket2Mol_49_num_sample_100-1

>  <s_m_source_file>  (1) 
generated__ligand_Pocket2Mol_2026-05-06_prepared.sdf

>  <GenAI_Model>  (1) 
Pocket2Mol

>  <Protein>  (1) 
generic_title2

$$$$
Pocket2Mol_37_num_sample_100
     RDKit          3D

  0  0  0  0  0  0  0  0  0  0999 V3000
M  V30 BEGIN CTAB
M  V30 COUNTS 17 18 0 0 1
M  V30 BEGIN ATOM
M  V30 1 C 9.828347 7.830523 -7.381514 0
M  V30 2 O 10.409918 8.969301 -6.910391 0
M  V30 3 C 11.034839 8.601850 -5.755697 0
M  V30 4 C 10.874536 7.293011 -5.491667 0
M  V30 5 C 11.434839 6.595752 -4.302878 0
M  V30 6 C 11.754707 9.640212 -5.004952 0
M  V30 7 C 10.085511 6.779010 -6.553159 0
M  V30 8 C 12.371768 8.951736 -3.764607 0
M  V30 9 C 12.234839 7.622038 -3.457821 0
M  V30 10 H 9.272673 7.941556 -8.302877 0
M  V30 11 H 12.077154 5.779824 -4.628887 0
M  V30 12 H 10.627736 6.169302 -3.706877 0
M  V30 13 H 11.074718 10.433742 -4.693285 0
M  V30 14 H 12.541370 10.082612 -5.616281 0
M  V30 15 H 9.742215 5.766383 -6.691668 0
M  V30 16 H 12.949987 9.585469 -3.107680 0
M  V30 17 H 12.707158 7.237014 -2.565998 0
M  V30 END ATOM
M  V30 BEGIN BOND
M  V30 1 1 2 1
M  V30 2 1 3 2
M  V30 3 2 4 3
M  V30 4 1 5 4
M  V30 5 1 6 3
M  V30 6 2 7 1
M  V30 7 1 7 4
M  V30 8 1 8 6
M  V30 9 1 9 5
M  V30 10 2 9 8
M  V30 11 1 10 1
M  V30 12 1 11 5
M  V30 13 1 12 5
M  V30 14 1 13 6
M  V30 15 1 14 6
M  V30 16 1 15 7
M  V30 17 1 16 8
M  V30 18 1 17 9
M  V30 END BOND
M  V30 END CTAB
M  END
>  <i_epik_Tot_Q>  (1) 
0

>  <i_epik_Tot_abs_Q>  (1) 
0

>  <i_i_glide_confnum>  (1) 
1

>  <i_i_glide_lignum>  (1) 
42

>  <i_i_glide_posenum>  (1) 
331

>  <i_i_glide_rotatable_bonds>  (1) 
0

>  <i_lp_mmshare_version>  (1) 
72125

>  <i_m_source_file_index>  (1) 
38

>  <i_f3d_flags>  (1) 
0

>  <num_sample>  (1) 
100

>  <b_lp_Chiralities_Consistent>  (1) 
1

>  <r_epik_Charging_Adjusted_Penalty>  (1) 
0

>  <r_epik_Ionization_Penalty>  (1) 
0

>  <r_epik_Ionization_Penalty_Charging>  (1) 
0

>  <r_epik_Ionization_Penalty_Neutral>  (1) 
0

>  <r_epik_State_Penalty>  (1) 
-0

>  <r_glide_ring_energy>  (1) 
0

>  <r_i_docking_score>  (1) 
-5.9421897537203368

>  <r_i_glide_ecoul>  (1) 
-0.91847594963560986

>  <r_i_glide_eff_state_penalty>  (1) 
-0

>  <r_i_glide_einternal>  (1) 
0

>  <r_i_glide_emodel>  (1) 
-29.207467110352965

>  <r_i_glide_emodel_strain>  (1) 
0

>  <r_i_glide_energy>  (1) 
-21.388352885310795

>  <r_i_glide_erotb>  (1) 
0

>  <r_i_glide_esite>  (1) 
0

>  <r_i_glide_evdw>  (1) 
-20.469876935675185

>  <r_i_glide_gscore>  (1) 
-5.9421897537203368

>  <r_i_glide_gscore_strain>  (1) 
0

>  <r_i_glide_hbond>  (1) 
0

>  <r_i_glide_ligand_efficiency>  (1) 
-0.66024330596892633

>  <r_i_glide_ligand_efficiency_ln>  (1) 
-1.8585462515964692

>  <r_i_glide_ligand_efficiency_sa>  (1) 
-1.3733614200242725

>  <r_i_glide_lipo>  (1) 
-1.9661671369668214

>  <r_i_glide_metal>  (1) 
-0

>  <r_i_glide_rewards>  (1) 
-2.814757377524415

>  <r_lp_Energy>  (1) 
4.5932930000000001

>  <r_lp_tautomer_probability>  (1) 
1

>  <s_epik_cmdline>  (1) 
J2VwaWtfcHl0aG9uJywgJy1waHQnLCAnMS4wJywgJy1waCcsICc3LjQnLCAnLXRuJywgJzgnLCAnLW1hJywgJzUwMCcsICctaW1hZScsICc8aW5maWxlLm1hZT4nLCAnLW9tYWUnLCAnPG91dGZpbGUubWFlPic=

>  <s_epik_input>  (1) 
bzFbY0hdW2NIXWMoYzEyKVtDSDJdW0NIXT1bQ0hdW0NIMl0y

>  <s_glide_docking_method>  (1) 
confgen

>  <s_i_glide_gridfile>  (1) 
gpcr_drd2_6luq_protein_autoprepared_prepared

>  <s_lp_Force_Field>  (1) 
S-OPLS

>  <s_lp_Variant>  (1) 
Pocket2Mol_37_num_sample_100-1

>  <s_m_source_file>  (1) 
generated__ligand_Pocket2Mol_2026-05-06_prepared.sdf

>  <GenAI_Model>  (1) 
Pocket2Mol

>  <Protein>  (1) 
generic_title2

$$$$
Pocket2Mol_60_num_sample_100
     RDKit          3D

  0  0  0  0  0  0  0  0  0  0999 V3000
M  V30 BEGIN CTAB
M  V30 COUNTS 19 20 0 0 1
M  V30 BEGIN ATOM
M  V30 1 C 12.601974 7.202182 -2.660711 0
M  V30 2 O 11.626189 6.667808 -3.535905 0
M  V30 3 C 11.434831 7.391074 -4.691597 0
M  V30 4 C 12.312732 8.686226 -2.443807 0
M  V30 5 O 12.418741 9.369272 -3.686260 0
M  V30 6 C 11.834862 8.749541 -4.768900 0
M  V30 7 C 10.830965 6.777731 -5.801338 0
M  V30 8 C 10.644616 7.491543 -6.994471 0
M  V30 9 C 11.650736 9.463516 -5.969703 0
M  V30 10 O 10.060670 6.881532 -8.067486 0
M  V30 11 C 11.061690 8.829549 -7.084007 0
M  V30 12 H 12.573445 6.659469 -1.716396 0
M  V30 13 H 13.593079 7.062170 -3.091659 0
M  V30 14 H 11.328623 8.841453 -2.006120 0
M  V30 15 H 13.034752 9.102539 -1.744617 0
M  V30 16 H 10.512940 5.760851 -5.737349 0
M  V30 17 H 11.964630 10.494715 -6.038475 0
M  V30 18 H 9.561522 7.459165 -8.628684 0
M  V30 19 H 10.929363 9.369273 -8.006480 0
M  V30 END ATOM
M  V30 BEGIN BOND
M  V30 1 1 2 1
M  V30 2 1 3 2
M  V30 3 1 4 1
M  V30 4 1 5 4
M  V30 5 2 6 3
M  V30 6 1 6 5
M  V30 7 1 7 3
M  V30 8 2 8 7
M  V30 9 1 9 6
M  V30 10 1 10 8
M  V30 11 1 11 8
M  V30 12 2 11 9
M  V30 13 1 12 1
M  V30 14 1 13 1
M  V30 15 1 14 4
M  V30 16 1 15 4
M  V30 17 1 16 7
M  V30 18 1 17 9
M  V30 19 1 18 10
M  V30 20 1 19 11
M  V30 END BOND
M  V30 END CTAB
M  END
>  <i_epik_Tot_Q>  (1) 
0

>  <i_epik_Tot_abs_Q>  (1) 
0

>  <i_i_glide_confnum>  (1) 
2

>  <i_i_glide_lignum>  (1) 
67

>  <i_i_glide_posenum>  (1) 
351

>  <i_i_glide_rotatable_bonds>  (1) 
1

>  <i_lp_mmshare_version>  (1) 
72125

>  <i_m_source_file_index>  (1) 
61

>  <i_f3d_flags>  (1) 
0

>  <num_sample>  (1) 
100

>  <b_lp_Chiralities_Consistent>  (1) 
1

>  <r_epik_Charging_Adjusted_Penalty>  (1) 
0

>  <r_epik_Ionization_Penalty>  (1) 
0.0014130578134093086

>  <r_epik_Ionization_Penalty_Charging>  (1) 
0

>  <r_epik_Ionization_Penalty_Neutral>  (1) 
0.0014130578134093086

>  <r_epik_State_Penalty>  (1) 
-0

>  <r_glide_ring_energy>  (1) 
0.0030884842251178704

>  <r_i_docking_score>  (1) 
-5.9415176975779662

>  <r_i_glide_ecoul>  (1) 
-0.60993219905880947

>  <r_i_glide_eff_state_penalty>  (1) 
-0

>  <r_i_glide_einternal>  (1) 
0.65937281454580721

>  <r_i_glide_emodel>  (1) 
-31.254711239460551

>  <r_i_glide_emodel_strain>  (1) 
0.25666065733886967

>  <r_i_glide_energy>  (1) 
-22.857327777947809

>  <r_i_glide_erotb>  (1) 
0

>  <r_i_glide_esite>  (1) 
0

>  <r_i_glide_evdw>  (1) 
-22.247395578888998

>  <r_i_glide_gscore>  (1) 
-5.9415176975779662

>  <r_i_glide_gscore_strain>  (1) 
0

>  <r_i_glide_hbond>  (1) 
0

>  <r_i_glide_ligand_efficiency>  (1) 
-0.54013797250708784

>  <r_i_glide_ligand_efficiency_ln>  (1) 
-1.7485876463416632

>  <r_i_glide_ligand_efficiency_sa>  (1) 
-1.2012560970162398

>  <r_i_glide_lipo>  (1) 
-2.0451109153611791

>  <r_i_glide_metal>  (1) 
-0

>  <r_i_glide_rewards>  (1) 
-2.6925471734135158

>  <r_lp_Energy>  (1) 
13.915925999999999

>  <r_lp_tautomer_probability>  (1) 
1

>  <s_epik_cmdline>  (1) 
J2VwaWtfcHl0aG9uJywgJy1waHQnLCAnMS4wJywgJy1waCcsICc3LjQnLCAnLXRuJywgJzgnLCAnLW1hJywgJzUwMCcsICctaW1hZScsICc8aW5maWxlLm1hZT4nLCAnLW9tYWUnLCAnPG91dGZpbGUubWFlPic=

>  <s_epik_input>  (1) 
TzFbQ0gyXVtDSDJdT2MoYzEyKVtjSF1bY0hdYyhbY0hdMilbT0hd

>  <s_glide_docking_method>  (1) 
confgen

>  <s_i_glide_gridfile>  (1) 
gpcr_drd2_6luq_protein_autoprepared_prepared

>  <s_lp_Force_Field>  (1) 
S-OPLS

>  <s_lp_Variant>  (1) 
Pocket2Mol_60_num_sample_100-1

>  <s_m_source_file>  (1) 
generated__ligand_Pocket2Mol_2026-05-06_prepared.sdf

>  <GenAI_Model>  (1) 
Pocket2Mol

>  <Protein>  (1) 
generic_title2

$$$$
Pocket2Mol_53_num_sample_100
     RDKit          3D

  0  0  0  0  0  0  0  0  0  0999 V3000
M  V30 BEGIN CTAB
M  V30 COUNTS 16 17 0 0 1
M  V30 BEGIN ATOM
M  V30 1 C 12.347533 8.485258 -2.381174 0
M  V30 2 O 12.246372 9.341303 -3.440247 0
M  V30 3 C 11.834840 8.755554 -4.643861 0
M  V30 4 C 11.434839 7.356969 -4.691669 0
M  V30 5 C 11.034838 6.828497 -5.940735 0
M  V30 6 C 11.825565 9.534026 -5.815761 0
M  V30 7 C 11.432403 8.969301 -7.038316 0
M  V30 8 N 11.453722 6.569301 -3.584912 0 CHG=-1
M  V30 9 C 11.034729 7.625958 -7.099789 0
M  V30 10 C 11.958079 7.190986 -2.515989 0
M  V30 11 H 12.750401 8.942613 -1.490202 0
M  V30 12 H 10.731324 5.793926 -6.008599 0
M  V30 13 H 12.128411 10.569300 -5.774798 0
M  V30 14 H 11.434876 9.569447 -7.934566 0
M  V30 15 H 10.729442 7.199123 -8.043737 0
M  V30 16 H 12.068933 6.549944 -1.615587 0
M  V30 END ATOM
M  V30 BEGIN BOND
M  V30 1 1 2 1
M  V30 2 1 3 2
M  V30 3 1 4 3
M  V30 4 2 5 4
M  V30 5 2 6 3
M  V30 6 1 7 6
M  V30 7 1 8 4
M  V30 8 1 9 5
M  V30 9 2 9 7
M  V30 10 2 10 1
M  V30 11 1 10 8
M  V30 12 1 11 1
M  V30 13 1 12 5
M  V30 14 1 13 6
M  V30 15 1 14 7
M  V30 16 1 15 9
M  V30 17 1 16 10
M  V30 END BOND
M  V30 END CTAB
M  END
>  <i_epik_Tot_Q>  (1) 
-1

>  <i_epik_Tot_abs_Q>  (1) 
1

>  <i_i_glide_confnum>  (1) 
1

>  <i_i_glide_lignum>  (1) 
60

>  <i_i_glide_posenum>  (1) 
132

>  <i_i_glide_rotatable_bonds>  (1) 
0

>  <i_lp_mmshare_version>  (1) 
72125

>  <i_m_source_file_index>  (1) 
54

>  <i_f3d_flags>  (1) 
0

>  <num_sample>  (1) 
100

>  <b_lp_Chiralities_Consistent>  (1) 
1

>  <r_epik_Charging_Adjusted_Penalty>  (1) 
0.016215214782958735

>  <r_epik_Ionization_Penalty>  (1) 
0.016215214782958842

>  <r_epik_Ionization_Penalty_Charging>  (1) 
0

>  <r_epik_Ionization_Penalty_Neutral>  (1) 
0.016215214782958842

>  <r_epik_State_Penalty>  (1) 
0.016215214782958735

>  <r_glide_ring_energy>  (1) 
0

>  <r_i_docking_score>  (1) 
-5.9362874471449034

>  <r_i_glide_ecoul>  (1) 
-0.88202809161505136

>  <r_i_glide_eff_state_penalty>  (1) 
0.016215214782958735

>  <r_i_glide_einternal>  (1) 
0

>  <r_i_glide_emodel>  (1) 
-28.994438070031023

>  <r_i_glide_emodel_strain>  (1) 
0

>  <r_i_glide_energy>  (1) 
-20.511292313772046

>  <r_i_glide_erotb>  (1) 
0

>  <r_i_glide_esite>  (1) 
0

>  <r_i_glide_evdw>  (1) 
-19.629264222156994

>  <r_i_glide_gscore>  (1) 
-5.9525026619278618

>  <r_i_glide_gscore_strain>  (1) 
0

>  <r_i_glide_hbond>  (1) 
0

>  <r_i_glide_ligand_efficiency>  (1) 
-0.59362874471449034

>  <r_i_glide_ligand_efficiency_ln>  (1) 
-1.797466917578558

>  <r_i_glide_ligand_efficiency_sa>  (1) 
-1.2789343606129793

>  <r_i_glide_lipo>  (1) 
-2.1148708563152927

>  <r_i_glide_metal>  (1) 
-0

>  <r_i_glide_rewards>  (1) 
-2.7238643807624618

>  <r_lp_Energy>  (1) 
26.292493999999998

>  <s_epik_Chemistry_Notes>  (1) 
This compound has an imine and may undergo hydrolysis.

>  <s_epik_cmdline>  (1) 
J2VwaWtfcHl0aG9uJywgJy1waHQnLCAnMS4wJywgJy1waCcsICc3LjQnLCAnLXRuJywgJzgnLCAnLW1hJywgJzUwMCcsICctaW1hZScsICc8aW5maWxlLm1hZT4nLCAnLW9tYWUnLCAnPG91dGZpbGUubWFlPic=

>  <s_epik_input>  (1) 
TzFbQ0gyXVtDSF09TmMoYzEyKVtjSF1bY0hdW2NIXVtjSF0y

>  <s_glide_docking_method>  (1) 
confgen

>  <s_i_glide_gridfile>  (1) 
gpcr_drd2_6luq_protein_autoprepared_prepared

>  <s_lp_Force_Field>  (1) 
S-OPLS

>  <s_lp_Variant>  (1) 
Pocket2Mol_53_num_sample_100-1

>  <s_m_source_file>  (1) 
generated__ligand_Pocket2Mol_2026-05-06_prepared.sdf

>  <GenAI_Model>  (1) 
Pocket2Mol

>  <Protein>  (1) 
generic_title2

$$$$
Pocket2Mol_80_num_sample_100
     RDKit          3D

  0  0  0  0  0  0  0  0  0  0999 V3000
M  V30 BEGIN CTAB
M  V30 COUNTS 19 20 0 0 1
M  V30 BEGIN ATOM
M  V30 1 C 12.283151 8.228744 -2.239552 0
M  V30 2 O 12.441256 9.369300 -3.164158 0
M  V30 3 C 11.996805 8.847487 -4.326872 0
M  V30 4 C 11.652240 7.541352 -4.291667 0
M  V30 5 C 11.154179 6.879318 -5.430309 0
M  V30 6 C 11.834839 6.889431 -2.988281 0
M  V30 7 C 11.034839 7.602465 -6.646427 0
M  V30 8 N 10.524455 6.942425 -7.865601 0 CHG=1
M  V30 9 O 10.186098 5.769301 -7.776289 0 CHG=-1
M  V30 10 O 10.474844 7.610252 -8.893887 0
M  V30 11 C 11.418105 8.969318 -6.681681 0
M  V30 12 C 11.894216 9.596095 -5.509714 0
M  V30 13 H 13.209807 8.082552 -1.687329 0
M  V30 14 H 11.527681 8.503392 -1.502379 0
M  V30 15 H 10.876197 5.836352 -5.378918 0
M  V30 16 H 10.916341 6.454507 -2.593884 0
M  V30 17 H 12.628093 6.143982 -3.023124 0
M  V30 18 H 11.344850 9.529434 -7.599336 0
M  V30 19 H 12.179568 10.635616 -5.524878 0
M  V30 END ATOM
M  V30 BEGIN BOND
M  V30 1 1 2 1
M  V30 2 1 3 2
M  V30 3 2 4 3
M  V30 4 1 5 4
M  V30 5 1 6 1
M  V30 6 1 6 4
M  V30 7 2 7 5
M  V30 8 1 8 7
M  V30 9 1 9 8
M  V30 10 2 10 8
M  V30 11 1 11 7
M  V30 12 1 12 3
M  V30 13 2 12 11
M  V30 14 1 13 1
M  V30 15 1 14 1
M  V30 16 1 15 5
M  V30 17 1 16 6
M  V30 18 1 17 6
M  V30 19 1 18 11
M  V30 20 1 19 12
M  V30 END BOND
M  V30 END CTAB
M  END
>  <i_epik_Tot_Q>  (1) 
0

>  <i_epik_Tot_abs_Q>  (1) 
2

>  <i_i_glide_confnum>  (1) 
1

>  <i_i_glide_lignum>  (1) 
87

>  <i_i_glide_posenum>  (1) 
144

>  <i_i_glide_rotatable_bonds>  (1) 
1

>  <i_lp_mmshare_version>  (1) 
72125

>  <i_m_source_file_index>  (1) 
81

>  <i_f3d_flags>  (1) 
0

>  <num_sample>  (1) 
100

>  <b_lp_Chiralities_Consistent>  (1) 
1

>  <r_epik_Charging_Adjusted_Penalty>  (1) 
0

>  <r_epik_Ionization_Penalty>  (1) 
0

>  <r_epik_Ionization_Penalty_Charging>  (1) 
0

>  <r_epik_Ionization_Penalty_Neutral>  (1) 
0

>  <r_epik_State_Penalty>  (1) 
-0

>  <r_glide_ring_energy>  (1) 
0

>  <r_i_docking_score>  (1) 
-5.935873588240951

>  <r_i_glide_ecoul>  (1) 
0.082213308032974886

>  <r_i_glide_eff_state_penalty>  (1) 
-0

>  <r_i_glide_einternal>  (1) 
0.028827762603760299

>  <r_i_glide_emodel>  (1) 
-33.47401385897814

>  <r_i_glide_emodel_strain>  (1) 
0

>  <r_i_glide_energy>  (1) 
-23.735595446459961

>  <r_i_glide_erotb>  (1) 
0

>  <r_i_glide_esite>  (1) 
-0.037756885592876738

>  <r_i_glide_evdw>  (1) 
-23.817808754492937

>  <r_i_glide_gscore>  (1) 
-5.935873588240951

>  <r_i_glide_gscore_strain>  (1) 
0

>  <r_i_glide_hbond>  (1) 
0

>  <r_i_glide_ligand_efficiency>  (1) 
-0.4946561323534126

>  <r_i_glide_ligand_efficiency_ln>  (1) 
-1.7033092087565824

>  <r_i_glide_ligand_efficiency_sa>  (1) 
-1.1324798397425948

>  <r_i_glide_lipo>  (1) 
-2.1481928038707236

>  <r_i_glide_metal>  (1) 
-0

>  <r_i_glide_rewards>  (1) 
-2.5713654572576496

>  <r_lp_Energy>  (1) 
14.797289999999998

>  <r_lp_tautomer_probability>  (1) 
1

>  <s_epik_cmdline>  (1) 
J2VwaWtfcHl0aG9uJywgJy1waHQnLCAnMS4wJywgJy1waCcsICc3LjQnLCAnLXRuJywgJzgnLCAnLW1hJywgJzUwMCcsICctaW1hZScsICc8aW5maWxlLm1hZT4nLCAnLW9tYWUnLCAnPG91dGZpbGUubWFlPic=

>  <s_epik_input>  (1) 
TzFbQ0gyXVtDSDJdYyhjMTIpW2NIXWMoW04rXShbTy1dKT1PKVtjSF1bY0hdMg==

>  <s_glide_docking_method>  (1) 
confgen

>  <s_i_glide_gridfile>  (1) 
gpcr_drd2_6luq_protein_autoprepared_prepared

>  <s_lp_Force_Field>  (1) 
S-OPLS

>  <s_lp_Variant>  (1) 
Pocket2Mol_80_num_sample_100-1

>  <s_m_source_file>  (1) 
generated__ligand_Pocket2Mol_2026-05-06_prepared.sdf

>  <GenAI_Model>  (1) 
Pocket2Mol

>  <Protein>  (1) 
generic_title2

$$$$
Pocket2Mol_71_num_sample_100
     RDKit          3D

  0  0  0  0  0  0  0  0  0  0999 V3000
M  V30 BEGIN CTAB
M  V30 COUNTS 16 17 0 0 1
M  V30 BEGIN ATOM
M  V30 1 C 10.800944 8.570363 -7.843774 0
M  V30 2 O 11.266184 9.273944 -6.764916 0
M  V30 3 C 11.434839 8.525283 -5.596203 0
M  V30 4 C 11.026171 7.135109 -5.544376 0
M  V30 5 C 11.247364 6.428145 -4.345049 0
M  V30 6 C 12.028998 9.129496 -4.470754 0
M  V30 7 C 12.234821 8.388091 -3.295283 0
M  V30 8 N 10.454232 6.517055 -6.608635 0 CHG=-1
M  V30 9 C 10.429754 7.278200 -7.699717 0
M  V30 10 F 12.808299 8.969253 -2.219951 0
M  V30 11 C 11.844352 7.044471 -3.234351 0
M  V30 12 H 10.766926 9.145248 -8.756185 0
M  V30 13 H 10.954846 5.393226 -4.281957 0
M  V30 14 H 12.333916 10.163007 -4.515379 0
M  V30 15 H 10.060984 6.768432 -8.615362 0
M  V30 16 H 12.003798 6.478873 -2.328429 0
M  V30 END ATOM
M  V30 BEGIN BOND
M  V30 1 1 2 1
M  V30 2 1 3 2
M  V30 3 2 4 3
M  V30 4 1 5 4
M  V30 5 1 6 3
M  V30 6 2 7 6
M  V30 7 1 8 4
M  V30 8 2 9 1
M  V30 9 1 9 8
M  V30 10 1 10 7
M  V30 11 2 11 5
M  V30 12 1 11 7
M  V30 13 1 12 1
M  V30 14 1 13 5
M  V30 15 1 14 6
M  V30 16 1 15 9
M  V30 17 1 16 11
M  V30 END BOND
M  V30 END CTAB
M  END
>  <i_epik_Tot_Q>  (1) 
-1

>  <i_epik_Tot_abs_Q>  (1) 
1

>  <i_i_glide_confnum>  (1) 
1

>  <i_i_glide_lignum>  (1) 
78

>  <i_i_glide_posenum>  (1) 
80

>  <i_i_glide_rotatable_bonds>  (1) 
0

>  <i_lp_mmshare_version>  (1) 
72125

>  <i_m_source_file_index>  (1) 
72

>  <i_f3d_flags>  (1) 
0

>  <num_sample>  (1) 
100

>  <b_lp_Chiralities_Consistent>  (1) 
1

>  <r_epik_Charging_Adjusted_Penalty>  (1) 
0.017639978051431922

>  <r_epik_Ionization_Penalty>  (1) 
0.017639978051431908

>  <r_epik_Ionization_Penalty_Charging>  (1) 
0

>  <r_epik_Ionization_Penalty_Neutral>  (1) 
0.017639978051431908

>  <r_epik_State_Penalty>  (1) 
0.017639978051431922

>  <r_glide_ring_energy>  (1) 
0

>  <r_i_docking_score>  (1) 
-5.9323017396226794

>  <r_i_glide_ecoul>  (1) 
-1.1234616525786754

>  <r_i_glide_eff_state_penalty>  (1) 
0.017639978051431922

>  <r_i_glide_einternal>  (1) 
0

>  <r_i_glide_emodel>  (1) 
-26.274170291372194

>  <r_i_glide_emodel_strain>  (1) 
0

>  <r_i_glide_energy>  (1) 
-17.872433437735591

>  <r_i_glide_erotb>  (1) 
0

>  <r_i_glide_esite>  (1) 
0

>  <r_i_glide_evdw>  (1) 
-16.748971785156915

>  <r_i_glide_gscore>  (1) 
-5.9499417176741112

>  <r_i_glide_gscore_strain>  (1) 
0

>  <r_i_glide_hbond>  (1) 
0

>  <r_i_glide_ligand_efficiency>  (1) 
-0.53930015814751631

>  <r_i_glide_ligand_efficiency_ln>  (1) 
-1.7458753914852334

>  <r_i_glide_ligand_efficiency_sa>  (1) 
-1.1993928145609596

>  <r_i_glide_lipo>  (1) 
-1.8496168298038544

>  <r_i_glide_metal>  (1) 
-0

>  <r_i_glide_rewards>  (1) 
-3.0943570507256091

>  <r_lp_Energy>  (1) 
25.3598

>  <s_epik_Chemistry_Notes>  (1) 
This compound has an imine and may undergo hydrolysis.

>  <s_epik_cmdline>  (1) 
J2VwaWtfcHl0aG9uJywgJy1waHQnLCAnMS4wJywgJy1waCcsICc3LjQnLCAnLXRuJywgJzgnLCAnLW1hJywgJzUwMCcsICctaW1hZScsICc8aW5maWxlLm1hZT4nLCAnLW9tYWUnLCAnPG91dGZpbGUubWFlPic=

>  <s_epik_input>  (1) 
TzFbQ0gyXVtDSF09TmMoYzEyKVtjSF1bY0hdYyhGKVtjSF0y

>  <s_glide_docking_method>  (1) 
confgen

>  <s_i_glide_gridfile>  (1) 
gpcr_drd2_6luq_protein_autoprepared_prepared

>  <s_lp_Force_Field>  (1) 
S-OPLS

>  <s_lp_Variant>  (1) 
Pocket2Mol_71_num_sample_100-1

>  <s_m_source_file>  (1) 
generated__ligand_Pocket2Mol_2026-05-06_prepared.sdf

>  <GenAI_Model>  (1) 
Pocket2Mol

>  <Protein>  (1) 
generic_title2

$$$$
Pocket2Mol_32_num_sample_100
     RDKit          3D

  0  0  0  0  0  0  0  0  0  0999 V3000
M  V30 BEGIN CTAB
M  V30 COUNTS 17 18 0 0 1
M  V30 BEGIN ATOM
M  V30 1 C 11.143006 8.964899 -6.523469 0
M  V30 2 O 11.741246 9.771276 -5.434654 0
M  V30 3 C 11.834839 8.858959 -4.442385 0
M  V30 4 C 11.434839 7.608170 -4.756052 0
M  V30 5 C 11.473682 6.569301 -3.816835 0
M  V30 6 C 10.963246 7.431399 -6.130656 0
M  V30 7 C 12.308642 9.168692 -3.155819 0
M  V30 8 C 12.366826 8.149080 -2.180772 0
M  V30 9 C 11.946427 6.838687 -2.513603 0
M  V30 10 H 10.157919 9.369301 -6.750387 0
M  V30 11 H 11.742684 9.064390 -7.428768 0
M  V30 12 H 11.146913 5.578643 -4.086963 0
M  V30 13 H 11.614334 6.764038 -6.696241 0
M  V30 14 H 9.926367 7.094275 -6.170263 0
M  V30 15 H 12.623860 10.169286 -2.914452 0
M  V30 16 H 12.728952 8.368808 -1.187191 0
M  V30 17 H 11.984802 6.049893 -1.776067 0
M  V30 END ATOM
M  V30 BEGIN BOND
M  V30 1 1 2 1
M  V30 2 1 3 2
M  V30 3 1 4 3
M  V30 4 2 5 4
M  V30 5 1 6 1
M  V30 6 1 6 4
M  V30 7 2 7 3
M  V30 8 1 8 7
M  V30 9 1 9 5
M  V30 10 2 9 8
M  V30 11 1 10 1
M  V30 12 1 11 1
M  V30 13 1 12 5
M  V30 14 1 13 6
M  V30 15 1 14 6
M  V30 16 1 15 7
M  V30 17 1 16 8
M  V30 18 1 17 9
M  V30 END BOND
M  V30 END CTAB
M  END
>  <i_epik_Tot_Q>  (1) 
0

>  <i_epik_Tot_abs_Q>  (1) 
0

>  <i_i_glide_confnum>  (1) 
1

>  <i_i_glide_lignum>  (1) 
36

>  <i_i_glide_posenum>  (1) 
33

>  <i_i_glide_rotatable_bonds>  (1) 
0

>  <i_lp_mmshare_version>  (1) 
72125

>  <i_m_source_file_index>  (1) 
33

>  <i_f3d_flags>  (1) 
0

>  <num_sample>  (1) 
100

>  <b_lp_Chiralities_Consistent>  (1) 
1

>  <r_epik_Charging_Adjusted_Penalty>  (1) 
0

>  <r_epik_Ionization_Penalty>  (1) 
0

>  <r_epik_Ionization_Penalty_Charging>  (1) 
0

>  <r_epik_Ionization_Penalty_Neutral>  (1) 
0

>  <r_epik_State_Penalty>  (1) 
-0

>  <r_glide_ring_energy>  (1) 
0

>  <r_i_docking_score>  (1) 
-5.9301379584101728

>  <r_i_glide_ecoul>  (1) 
-1.534870230681481

>  <r_i_glide_eff_state_penalty>  (1) 
-0

>  <r_i_glide_einternal>  (1) 
0

>  <r_i_glide_emodel>  (1) 
-28.129615716916675

>  <r_i_glide_emodel_strain>  (1) 
0

>  <r_i_glide_energy>  (1) 
-20.376405452009916

>  <r_i_glide_erotb>  (1) 
0

>  <r_i_glide_esite>  (1) 
0

>  <r_i_glide_evdw>  (1) 
-18.841535221328435

>  <r_i_glide_gscore>  (1) 
-5.9301379584101728

>  <r_i_glide_gscore_strain>  (1) 
0

>  <r_i_glide_hbond>  (1) 
0

>  <r_i_glide_ligand_efficiency>  (1) 
-0.65890421760113027

>  <r_i_glide_ligand_efficiency_ln>  (1) 
-1.8547767962395969

>  <r_i_glide_ligand_efficiency_sa>  (1) 
-1.370576003972783

>  <r_i_glide_lipo>  (1) 
-2.1059237509179352

>  <r_i_glide_metal>  (1) 
-0

>  <r_i_glide_rewards>  (1) 
-2.6519069118235938

>  <r_lp_Energy>  (1) 
11.954839999999999

>  <r_lp_tautomer_probability>  (1) 
1

>  <s_epik_cmdline>  (1) 
J2VwaWtfcHl0aG9uJywgJy1waHQnLCAnMS4wJywgJy1waCcsICc3LjQnLCAnLXRuJywgJzgnLCAnLW1hJywgJzUwMCcsICctaW1hZScsICc8aW5maWxlLm1hZT4nLCAnLW9tYWUnLCAnPG91dGZpbGUubWFlPic=

>  <s_epik_input>  (1) 
TzFbQ0gyXVtDSDJdYyhjMTIpW2NIXVtjSF1bY0hdW2NIXTI=

>  <s_glide_docking_method>  (1) 
confgen

>  <s_i_glide_gridfile>  (1) 
gpcr_drd2_6luq_protein_autoprepared_prepared

>  <s_lp_Force_Field>  (1) 
S-OPLS

>  <s_lp_Variant>  (1) 
Pocket2Mol_32_num_sample_100-1

>  <s_m_source_file>  (1) 
generated__ligand_Pocket2Mol_2026-05-06_prepared.sdf

>  <GenAI_Model>  (1) 
Pocket2Mol

>  <Protein>  (1) 
generic_title2

$$$$
Pocket2Mol_41_num_sample_100
     RDKit          3D

  0  0  0  0  0  0  0  0  0  0999 V3000
M  V30 BEGIN CTAB
M  V30 COUNTS 15 16 0 0 1
M  V30 BEGIN ATOM
M  V30 1 C 11.925869 6.858345 -2.412504 0
M  V30 2 O 11.449311 6.169302 -3.600804 0
M  V30 3 C 11.434839 7.092110 -4.601398 0
M  V30 4 C 11.834839 8.367279 -4.291667 0
M  V30 5 C 11.849562 9.382575 -5.261134 0
M  V30 6 C 11.024629 6.768957 -5.906234 0
M  V30 7 C 11.031076 7.767343 -6.902196 0
M  V30 8 S 12.310602 8.655057 -2.673500 0
M  V30 9 C 11.446728 9.078596 -6.578972 0
M  V30 10 H 11.169105 6.769126 -1.632689 0
M  V30 11 H 12.819922 6.351926 -2.048115 0
M  V30 12 H 12.166472 10.380835 -5.004238 0
M  V30 13 H 10.707242 5.769301 -6.144338 0
M  V30 14 H 10.718616 7.530033 -7.909006 0
M  V30 15 H 11.455731 9.841980 -7.337246 0
M  V30 END ATOM
M  V30 BEGIN BOND
M  V30 1 1 2 1
M  V30 2 1 3 2
M  V30 3 1 4 3
M  V30 4 2 5 4
M  V30 5 2 6 3
M  V30 6 1 7 6
M  V30 7 1 8 1
M  V30 8 1 8 4
M  V30 9 1 9 5
M  V30 10 2 9 7
M  V30 11 1 10 1
M  V30 12 1 11 1
M  V30 13 1 12 5
M  V30 14 1 13 6
M  V30 15 1 14 7
M  V30 16 1 15 9
M  V30 END BOND
M  V30 END CTAB
M  END
>  <i_epik_Tot_Q>  (1) 
0

>  <i_epik_Tot_abs_Q>  (1) 
0

>  <i_i_glide_confnum>  (1) 
1

>  <i_i_glide_lignum>  (1) 
46

>  <i_i_glide_posenum>  (1) 
37

>  <i_i_glide_rotatable_bonds>  (1) 
0

>  <i_lp_mmshare_version>  (1) 
72125

>  <i_m_source_file_index>  (1) 
42

>  <i_f3d_flags>  (1) 
0

>  <num_sample>  (1) 
100

>  <b_lp_Chiralities_Consistent>  (1) 
1

>  <r_epik_Charging_Adjusted_Penalty>  (1) 
0

>  <r_epik_Ionization_Penalty>  (1) 
0

>  <r_epik_Ionization_Penalty_Charging>  (1) 
0

>  <r_epik_Ionization_Penalty_Neutral>  (1) 
0

>  <r_epik_State_Penalty>  (1) 
-0

>  <r_glide_ring_energy>  (1) 
0

>  <r_i_docking_score>  (1) 
-5.9275059423591774

>  <r_i_glide_ecoul>  (1) 
0.58105986606490889

>  <r_i_glide_eff_state_penalty>  (1) 
-0

>  <r_i_glide_einternal>  (1) 
0

>  <r_i_glide_emodel>  (1) 
-28.548585812008959

>  <r_i_glide_emodel_strain>  (1) 
0

>  <r_i_glide_energy>  (1) 
-20.760679618537459

>  <r_i_glide_erotb>  (1) 
0

>  <r_i_glide_esite>  (1) 
0

>  <r_i_glide_evdw>  (1) 
-21.341739484602368

>  <r_i_glide_gscore>  (1) 
-5.9275059423591774

>  <r_i_glide_gscore_strain>  (1) 
0

>  <r_i_glide_hbond>  (1) 
0

>  <r_i_glide_ligand_efficiency>  (1) 
-0.65861177137324189

>  <r_i_glide_ligand_efficiency_ln>  (1) 
-1.8539535772296929

>  <r_i_glide_ligand_efficiency_sa>  (1) 
-1.3699676913050398

>  <r_i_glide_lipo>  (1) 
-2.1449708397502372

>  <r_i_glide_metal>  (1) 
-0

>  <r_i_glide_rewards>  (1) 
-2.8026071082885582

>  <r_lp_Energy>  (1) 
5.8399909999999995

>  <r_lp_tautomer_probability>  (1) 
1

>  <s_epik_Chemistry_Notes>  (1) 
This compound contains an acetal/aminal-like group ( X-CH(R)-Y where X, Y are N, S, or O) that may be acid/base labile, releasing an aldehyde.

>  <s_epik_cmdline>  (1) 
J2VwaWtfcHl0aG9uJywgJy1waHQnLCAnMS4wJywgJy1waCcsICc3LjQnLCAnLXRuJywgJzgnLCAnLW1hJywgJzUwMCcsICctaW1hZScsICc8aW5maWxlLm1hZT4nLCAnLW9tYWUnLCAnPG91dGZpbGUubWFlPic=

>  <s_epik_input>  (1) 
TzFbQ0gyXVNjKGMxMilbY0hdW2NIXVtjSF1bY0hdMg==

>  <s_glide_docking_method>  (1) 
confgen

>  <s_i_glide_gridfile>  (1) 
gpcr_drd2_6luq_protein_autoprepared_prepared

>  <s_lp_Force_Field>  (1) 
S-OPLS

>  <s_lp_Variant>  (1) 
Pocket2Mol_41_num_sample_100-1

>  <s_m_source_file>  (1) 
generated__ligand_Pocket2Mol_2026-05-06_prepared.sdf

>  <GenAI_Model>  (1) 
Pocket2Mol

>  <Protein>  (1) 
generic_title2

$$$$
Pocket2Mol_38_num_sample_100
     RDKit          3D

  0  0  0  0  0  0  0  0  0  0999 V3000
M  V30 BEGIN CTAB
M  V30 COUNTS 15 16 0 0 1
M  V30 BEGIN ATOM
M  V30 1 C 11.210976 8.930136 -6.630200 0
M  V30 2 O 11.052411 7.644513 -6.152994 0
M  V30 3 C 11.434841 7.653817 -4.833714 0
M  V30 4 C 11.834839 8.950056 -4.472369 0
M  V30 5 C 12.258778 9.137414 -3.129850 0
M  V30 6 C 11.434840 6.569302 -3.956398 0
M  V30 7 C 11.685915 9.769315 -5.636746 0
M  V30 8 C 11.859510 6.764279 -2.634074 0
M  V30 9 C 12.272180 8.050383 -2.218402 0
M  V30 10 H 10.947972 9.082644 -7.667201 0
M  V30 11 H 12.573698 10.114319 -2.797535 0
M  V30 12 H 11.111971 5.596883 -4.291772 0
M  V30 13 H 11.900369 10.823993 -5.714202 0
M  V30 14 H 11.868013 5.937049 -1.938020 0
M  V30 15 H 12.598342 8.208358 -1.200406 0
M  V30 END ATOM
M  V30 BEGIN BOND
M  V30 1 1 2 1
M  V30 2 1 3 2
M  V30 3 1 4 3
M  V30 4 2 5 4
M  V30 5 2 6 3
M  V30 6 2 7 1
M  V30 7 1 7 4
M  V30 8 1 8 6
M  V30 9 1 9 5
M  V30 10 2 9 8
M  V30 11 1 10 1
M  V30 12 1 11 5
M  V30 13 1 12 6
M  V30 14 1 13 7
M  V30 15 1 14 8
M  V30 16 1 15 9
M  V30 END BOND
M  V30 END CTAB
M  END
>  <i_epik_Tot_Q>  (1) 
0

>  <i_epik_Tot_abs_Q>  (1) 
0

>  <i_i_glide_confnum>  (1) 
1

>  <i_i_glide_lignum>  (1) 
43

>  <i_i_glide_posenum>  (1) 
27

>  <i_i_glide_rotatable_bonds>  (1) 
0

>  <i_lp_mmshare_version>  (1) 
72125

>  <i_m_source_file_index>  (1) 
39

>  <i_f3d_flags>  (1) 
0

>  <num_sample>  (1) 
100

>  <b_lp_Chiralities_Consistent>  (1) 
1

>  <r_epik_Charging_Adjusted_Penalty>  (1) 
0

>  <r_epik_Ionization_Penalty>  (1) 
0

>  <r_epik_Ionization_Penalty_Charging>  (1) 
0

>  <r_epik_Ionization_Penalty_Neutral>  (1) 
0

>  <r_epik_State_Penalty>  (1) 
-0

>  <r_glide_ring_energy>  (1) 
0

>  <r_i_docking_score>  (1) 
-5.9251086377690303

>  <r_i_glide_ecoul>  (1) 
-0.883574707445417

>  <r_i_glide_eff_state_penalty>  (1) 
-0

>  <r_i_glide_einternal>  (1) 
0

>  <r_i_glide_emodel>  (1) 
-27.481559203921606

>  <r_i_glide_emodel_strain>  (1) 
1.9912960169676808e-12

>  <r_i_glide_energy>  (1) 
-19.908237735908667

>  <r_i_glide_erotb>  (1) 
0

>  <r_i_glide_esite>  (1) 
0

>  <r_i_glide_evdw>  (1) 
-19.024663028463252

>  <r_i_glide_gscore>  (1) 
-5.9251086377690303

>  <r_i_glide_gscore_strain>  (1) 
0

>  <r_i_glide_hbond>  (1) 
0

>  <r_i_glide_ligand_efficiency>  (1) 
-0.65834540419655896

>  <r_i_glide_ligand_efficiency_ln>  (1) 
-1.8532037692221039

>  <r_i_glide_ligand_efficiency_sa>  (1) 
-1.3694136252498297

>  <r_i_glide_lipo>  (1) 
-2.2222901302474658

>  <r_i_glide_metal>  (1) 
-0

>  <r_i_glide_rewards>  (1) 
-2.6190491499815893

>  <r_lp_Energy>  (1) 
12.927653999999999

>  <r_lp_tautomer_probability>  (1) 
1

>  <s_epik_cmdline>  (1) 
J2VwaWtfcHl0aG9uJywgJy1waHQnLCAnMS4wJywgJy1waCcsICc3LjQnLCAnLXRuJywgJzgnLCAnLW1hJywgJzUwMCcsICctaW1hZScsICc8aW5maWxlLm1hZT4nLCAnLW9tYWUnLCAnPG91dGZpbGUubWFlPic=

>  <s_epik_input>  (1) 
bzFbY0hdW2NIXWMoYzEyKVtjSF1bY0hdW2NIXVtjSF0y

>  <s_glide_docking_method>  (1) 
confgen

>  <s_i_glide_gridfile>  (1) 
gpcr_drd2_6luq_protein_autoprepared_prepared

>  <s_lp_Force_Field>  (1) 
S-OPLS

>  <s_lp_Variant>  (1) 
Pocket2Mol_38_num_sample_100-1

>  <s_m_source_file>  (1) 
generated__ligand_Pocket2Mol_2026-05-06_prepared.sdf

>  <GenAI_Model>  (1) 
Pocket2Mol

>  <Protein>  (1) 
generic_title2

$$$$
Pocket2Mol_38_num_sample_100
     RDKit          3D

  0  0  0  0  0  0  0  0  0  0999 V3000
M  V30 BEGIN CTAB
M  V30 COUNTS 15 16 0 0 1
M  V30 BEGIN ATOM
M  V30 1 C 10.725733 6.989315 -6.818221 0
M  V30 2 O 11.005437 6.191520 -5.740802 0
M  V30 3 C 11.434666 7.029290 -4.732242 0
M  V30 4 C 11.420164 8.370403 -5.194554 0
M  V30 5 C 11.833871 9.369089 -4.282263 0
M  V30 6 C 11.834839 6.668597 -3.434920 0
M  V30 7 C 10.956170 8.317947 -6.551599 0
M  V30 8 C 12.241616 7.683962 -2.548354 0
M  V30 9 C 12.240282 9.029487 -2.973069 0
M  V30 10 H 10.373791 6.469070 -7.697301 0
M  V30 11 H 11.838512 10.403480 -4.591996 0
M  V30 12 H 11.829248 5.633570 -3.127800 0
M  V30 13 H 10.819826 9.156792 -7.217500 0
M  V30 14 H 12.554120 7.433234 -1.544928 0
M  V30 15 H 12.552974 9.806519 -2.290476 0
M  V30 END ATOM
M  V30 BEGIN BOND
M  V30 1 1 2 1
M  V30 2 1 3 2
M  V30 3 1 4 3
M  V30 4 2 5 4
M  V30 5 2 6 3
M  V30 6 2 7 1
M  V30 7 1 7 4
M  V30 8 1 8 6
M  V30 9 1 9 5
M  V30 10 2 9 8
M  V30 11 1 10 1
M  V30 12 1 11 5
M  V30 13 1 12 6
M  V30 14 1 13 7
M  V30 15 1 14 8
M  V30 16 1 15 9
M  V30 END BOND
M  V30 END CTAB
M  END
>  <i_epik_Tot_Q>  (1) 
0

>  <i_epik_Tot_abs_Q>  (1) 
0

>  <i_i_glide_confnum>  (1) 
1

>  <i_i_glide_lignum>  (1) 
43

>  <i_i_glide_posenum>  (1) 
54

>  <i_i_glide_rotatable_bonds>  (1) 
0

>  <i_lp_mmshare_version>  (1) 
72125

>  <i_m_source_file_index>  (1) 
39

>  <i_f3d_flags>  (1) 
0

>  <num_sample>  (1) 
100

>  <b_lp_Chiralities_Consistent>  (1) 
1

>  <r_epik_Charging_Adjusted_Penalty>  (1) 
0

>  <r_epik_Ionization_Penalty>  (1) 
0

>  <r_epik_Ionization_Penalty_Charging>  (1) 
0

>  <r_epik_Ionization_Penalty_Neutral>  (1) 
0

>  <r_epik_State_Penalty>  (1) 
-0

>  <r_glide_ring_energy>  (1) 
0

>  <r_i_docking_score>  (1) 
-5.9198719819388401

>  <r_i_glide_ecoul>  (1) 
-0.47758814843076747

>  <r_i_glide_eff_state_penalty>  (1) 
-0

>  <r_i_glide_einternal>  (1) 
0

>  <r_i_glide_emodel>  (1) 
-26.087445868634273

>  <r_i_glide_emodel_strain>  (1) 
0

>  <r_i_glide_energy>  (1) 
-18.520817759415603

>  <r_i_glide_erotb>  (1) 
0

>  <r_i_glide_esite>  (1) 
0

>  <r_i_glide_evdw>  (1) 
-18.043229610984834

>  <r_i_glide_gscore>  (1) 
-5.9198719819388401

>  <r_i_glide_gscore_strain>  (1) 
0

>  <r_i_glide_hbond>  (1) 
0

>  <r_i_glide_ligand_efficiency>  (1) 
-0.65776355354876004

>  <r_i_glide_ligand_efficiency_ln>  (1) 
-1.8515658937136674

>  <r_i_glide_ligand_efficiency_sa>  (1) 
-1.3682033271299108

>  <r_i_glide_lipo>  (1) 
-2.1901852022531458

>  <r_i_glide_metal>  (1) 
-0

>  <r_i_glide_rewards>  (1) 
-2.7558870768718373

>  <r_lp_Energy>  (1) 
12.927653999999999

>  <r_lp_tautomer_probability>  (1) 
1

>  <s_epik_cmdline>  (1) 
J2VwaWtfcHl0aG9uJywgJy1waHQnLCAnMS4wJywgJy1waCcsICc3LjQnLCAnLXRuJywgJzgnLCAnLW1hJywgJzUwMCcsICctaW1hZScsICc8aW5maWxlLm1hZT4nLCAnLW9tYWUnLCAnPG91dGZpbGUubWFlPic=

>  <s_epik_input>  (1) 
bzFbY0hdW2NIXWMoYzEyKVtjSF1bY0hdW2NIXVtjSF0y

>  <s_glide_docking_method>  (1) 
confgen

>  <s_i_glide_gridfile>  (1) 
gpcr_drd2_6luq_protein_autoprepared_prepared

>  <s_lp_Force_Field>  (1) 
S-OPLS

>  <s_lp_Variant>  (1) 
Pocket2Mol_38_num_sample_100-1

>  <s_m_source_file>  (1) 
generated__ligand_Pocket2Mol_2026-05-06_prepared.sdf

>  <GenAI_Model>  (1) 
Pocket2Mol

>  <Protein>  (1) 
generic_title2

$$$$
Pocket2Mol_51_num_sample_100
     RDKit          3D

  0  0  0  0  0  0  0  0  0  0999 V3000
M  V30 BEGIN CTAB
M  V30 COUNTS 15 16 0 0 1
M  V30 BEGIN ATOM
M  V30 1 C 11.921417 6.748968 -2.466197 0
M  V30 2 O 11.448045 6.169301 -3.713130 0
M  V30 3 C 11.434839 7.175796 -4.627073 0
M  V30 4 C 11.834839 8.418790 -4.203194 0
M  V30 5 C 11.846344 9.516903 -5.073699 0
M  V30 6 C 11.028378 6.969445 -5.957325 0
M  V30 7 C 11.034834 8.057494 -6.857196 0
M  V30 8 S 12.309718 8.561243 -2.564312 0
M  V30 9 F 10.651127 7.878274 -8.142267 0
M  V30 10 C 11.445222 9.336214 -6.411366 0
M  V30 11 H 11.162515 6.591538 -1.699382 0
M  V30 12 H 12.814042 6.211259 -2.145399 0
M  V30 13 H 12.158569 10.486830 -4.725689 0
M  V30 14 H 10.714931 5.989961 -6.287169 0
M  V30 15 H 11.452205 10.169299 -7.091668 0
M  V30 END ATOM
M  V30 BEGIN BOND
M  V30 1 1 2 1
M  V30 2 1 3 2
M  V30 3 2 4 3
M  V30 4 1 5 4
M  V30 5 1 6 3
M  V30 6 2 7 6
M  V30 7 1 8 1
M  V30 8 1 8 4
M  V30 9 1 9 7
M  V30 10 2 10 5
M  V30 11 1 10 7
M  V30 12 1 11 1
M  V30 13 1 12 1
M  V30 14 1 13 5
M  V30 15 1 14 6
M  V30 16 1 15 10
M  V30 END BOND
M  V30 END CTAB
M  END
>  <i_epik_Tot_Q>  (1) 
0

>  <i_epik_Tot_abs_Q>  (1) 
0

>  <i_i_glide_confnum>  (1) 
1

>  <i_i_glide_lignum>  (1) 
58

>  <i_i_glide_posenum>  (1) 
26

>  <i_i_glide_rotatable_bonds>  (1) 
0

>  <i_lp_mmshare_version>  (1) 
72125

>  <i_m_source_file_index>  (1) 
52

>  <i_f3d_flags>  (1) 
0

>  <num_sample>  (1) 
100

>  <b_lp_Chiralities_Consistent>  (1) 
1

>  <r_epik_Charging_Adjusted_Penalty>  (1) 
0

>  <r_epik_Ionization_Penalty>  (1) 
0

>  <r_epik_Ionization_Penalty_Charging>  (1) 
0

>  <r_epik_Ionization_Penalty_Neutral>  (1) 
0

>  <r_epik_State_Penalty>  (1) 
-0

>  <r_glide_ring_energy>  (1) 
0

>  <r_i_docking_score>  (1) 
-5.917787807937203

>  <r_i_glide_ecoul>  (1) 
1.1161438904165277

>  <r_i_glide_eff_state_penalty>  (1) 
-0

>  <r_i_glide_einternal>  (1) 
0

>  <r_i_glide_emodel>  (1) 
-28.47869276574837

>  <r_i_glide_emodel_strain>  (1) 
0

>  <r_i_glide_energy>  (1) 
-20.951466930742413

>  <r_i_glide_erotb>  (1) 
0

>  <r_i_glide_esite>  (1) 
-0.0072369579296168995

>  <r_i_glide_evdw>  (1) 
-22.06761082115894

>  <r_i_glide_gscore>  (1) 
-5.917787807937203

>  <r_i_glide_gscore_strain>  (1) 
0

>  <r_i_glide_hbond>  (1) 
0

>  <r_i_glide_ligand_efficiency>  (1) 
-0.59177878079372026

>  <r_i_glide_ligand_efficiency_ln>  (1) 
-1.7918653543525433

>  <r_i_glide_ligand_efficiency_sa>  (1) 
-1.2749487341667649

>  <r_i_glide_lipo>  (1) 
-2.2120435914527419

>  <r_i_glide_metal>  (1) 
-0

>  <r_i_glide_rewards>  (1) 
-2.7625483010593763

>  <r_lp_Energy>  (1) 
4.072584

>  <r_lp_tautomer_probability>  (1) 
1

>  <s_epik_Chemistry_Notes>  (1) 
This compound contains an acetal/aminal-like group ( X-CH(R)-Y where X, Y are N, S, or O) that may be acid/base labile, releasing an aldehyde.

>  <s_epik_cmdline>  (1) 
J2VwaWtfcHl0aG9uJywgJy1waHQnLCAnMS4wJywgJy1waCcsICc3LjQnLCAnLXRuJywgJzgnLCAnLW1hJywgJzUwMCcsICctaW1hZScsICc8aW5maWxlLm1hZT4nLCAnLW9tYWUnLCAnPG91dGZpbGUubWFlPic=

>  <s_epik_input>  (1) 
TzFbQ0gyXVNjKGMxMilbY0hdW2NIXWMoRilbY0hdMg==

>  <s_glide_docking_method>  (1) 
confgen

>  <s_i_glide_gridfile>  (1) 
gpcr_drd2_6luq_protein_autoprepared_prepared

>  <s_lp_Force_Field>  (1) 
S-OPLS

>  <s_lp_Variant>  (1) 
Pocket2Mol_51_num_sample_100-1

>  <s_m_source_file>  (1) 
generated__ligand_Pocket2Mol_2026-05-06_prepared.sdf

>  <GenAI_Model>  (1) 
Pocket2Mol

>  <Protein>  (1) 
generic_title2

$$$$
Pocket2Mol_50_num_sample_100
     RDKit          3D

  0  0  0  0  0  0  0  0  0  0999 V3000
M  V30 BEGIN CTAB
M  V30 COUNTS 16 17 0 0 1
M  V30 BEGIN ATOM
M  V30 1 C 12.483074 8.569301 -2.104786 0
M  V30 2 O 12.234844 7.244282 -2.665197 0
M  V30 3 C 11.834839 7.596014 -3.891666 0
M  V30 4 C 11.834840 8.911981 -4.110985 0
M  V30 5 C 11.440087 9.457255 -5.344025 0
M  V30 6 C 11.434839 6.683473 -4.878839 0
M  V30 7 C 11.027934 7.180356 -6.139541 0
M  V30 8 O 10.634839 6.322085 -7.122342 0
M  V30 9 C 11.031550 8.578981 -6.374852 0
M  V30 10 O 12.231155 9.638742 -3.065126 0
M  V30 11 H 11.834839 8.717055 -1.239665 0
M  V30 12 H 13.519102 8.631286 -1.772896 0
M  V30 13 H 11.446583 10.525825 -5.501066 0
M  V30 14 H 11.438402 5.625391 -4.678703 0
M  V30 15 H 10.554679 5.426812 -6.831159 0
M  V30 16 H 10.722072 8.969301 -7.333120 0
M  V30 END ATOM
M  V30 BEGIN BOND
M  V30 1 1 2 1
M  V30 2 1 3 2
M  V30 3 2 4 3
M  V30 4 1 5 4
M  V30 5 1 6 3
M  V30 6 2 7 6
M  V30 7 1 8 7
M  V30 8 2 9 5
M  V30 9 1 9 7
M  V30 10 1 10 1
M  V30 11 1 10 4
M  V30 12 1 11 1
M  V30 13 1 12 1
M  V30 14 1 13 5
M  V30 15 1 14 6
M  V30 16 1 15 8
M  V30 17 1 16 9
M  V30 END BOND
M  V30 END CTAB
M  END
>  <i_epik_Tot_Q>  (1) 
0

>  <i_epik_Tot_abs_Q>  (1) 
0

>  <i_i_glide_confnum>  (1) 
1

>  <i_i_glide_lignum>  (1) 
57

>  <i_i_glide_posenum>  (1) 
75

>  <i_i_glide_rotatable_bonds>  (1) 
1

>  <i_lp_mmshare_version>  (1) 
72125

>  <i_m_source_file_index>  (1) 
51

>  <i_f3d_flags>  (1) 
0

>  <num_sample>  (1) 
100

>  <b_lp_Chiralities_Consistent>  (1) 
1

>  <r_epik_Charging_Adjusted_Penalty>  (1) 
0

>  <r_epik_Ionization_Penalty>  (1) 
0.0018243540331301816

>  <r_epik_Ionization_Penalty_Charging>  (1) 
0

>  <r_epik_Ionization_Penalty_Neutral>  (1) 
0.0018243540331301816

>  <r_epik_State_Penalty>  (1) 
-0

>  <r_glide_ring_energy>  (1) 
0

>  <r_i_docking_score>  (1) 
-5.9125672988614166

>  <r_i_glide_ecoul>  (1) 
-0.90539215231502246

>  <r_i_glide_eff_state_penalty>  (1) 
-0

>  <r_i_glide_einternal>  (1) 
0.076098826999784763

>  <r_i_glide_emodel>  (1) 
-31.267549669515635

>  <r_i_glide_emodel_strain>  (1) 
0

>  <r_i_glide_energy>  (1) 
-21.833161119098563

>  <r_i_glide_erotb>  (1) 
0

>  <r_i_glide_esite>  (1) 
0

>  <r_i_glide_evdw>  (1) 
-20.927768966783539

>  <r_i_glide_gscore>  (1) 
-5.9125672988614166

>  <r_i_glide_gscore_strain>  (1) 
0

>  <r_i_glide_hbond>  (1) 
0

>  <r_i_glide_ligand_efficiency>  (1) 
-0.59125672988614164

>  <r_i_glide_ligand_efficiency_ln>  (1) 
-1.7902846201916398

>  <r_i_glide_ligand_efficiency_sa>  (1) 
-1.273824009581515

>  <r_i_glide_lipo>  (1) 
-1.6217299848265119

>  <r_i_glide_metal>  (1) 
-0

>  <r_i_glide_rewards>  (1) 
-3.1086400428484744

>  <r_lp_Energy>  (1) 
16.555202999999999

>  <r_lp_tautomer_probability>  (1) 
1

>  <s_epik_Chemistry_Notes>  (1) 
This compound contains an acetal/aminal-like group ( X-CH(R)-Y where X, Y are N, S, or O) that may be acid/base labile, releasing an aldehyde.

>  <s_epik_cmdline>  (1) 
J2VwaWtfcHl0aG9uJywgJy1waHQnLCAnMS4wJywgJy1waCcsICc3LjQnLCAnLXRuJywgJzgnLCAnLW1hJywgJzUwMCcsICctaW1hZScsICc8aW5maWxlLm1hZT4nLCAnLW9tYWUnLCAnPG91dGZpbGUubWFlPic=

>  <s_epik_input>  (1) 
TzFbQ0gyXU9jKGMxMilbY0hdW2NIXWMoW2NIXTIpW09IXQ==

>  <s_glide_docking_method>  (1) 
confgen

>  <s_i_glide_gridfile>  (1) 
gpcr_drd2_6luq_protein_autoprepared_prepared

>  <s_lp_Force_Field>  (1) 
S-OPLS

>  <s_lp_Variant>  (1) 
Pocket2Mol_50_num_sample_100-1

>  <s_m_source_file>  (1) 
generated__ligand_Pocket2Mol_2026-05-06_prepared.sdf

>  <GenAI_Model>  (1) 
Pocket2Mol

>  <Protein>  (1) 
generic_title2

$$$$
Pocket2Mol_48_num_sample_100
     RDKit          3D

  0  0  0  0  0  0  0  0  0  0999 V3000
M  V30 BEGIN CTAB
M  V30 COUNTS 19 20 0 0 1
M  V30 BEGIN ATOM
M  V30 1 C 12.234801 6.663134 -2.364118 0
M  V30 2 O 11.436708 6.313650 -3.455689 0
M  V30 3 C 11.434865 7.207588 -4.502890 0
M  V30 4 C 11.834839 8.548302 -4.292505 0
M  V30 5 C 11.833788 9.459401 -5.366909 0
M  V30 6 C 11.028747 6.789216 -5.783754 0
M  V30 7 C 11.029355 7.700459 -6.856320 0
M  V30 8 C 12.270673 8.996661 -2.907311 0
M  V30 9 C 11.434028 9.033614 -6.648852 0
M  V30 10 N 11.972161 7.997732 -1.892139 0
M  V30 11 H 12.047701 5.942289 -1.567073 0
M  V30 12 H 13.280307 6.569855 -2.661377 0
M  V30 13 H 12.139613 10.482513 -5.209755 0
M  V30 14 H 10.719036 5.769416 -5.944439 0
M  V30 15 H 10.718763 7.376821 -7.839252 0
M  V30 16 H 13.345847 9.176546 -2.923713 0
M  V30 17 H 11.790575 9.938887 -2.640930 0
M  V30 18 H 11.434960 9.730017 -7.472919 0
M  V30 19 H 11.035515 8.115554 -1.530823 0
M  V30 END ATOM
M  V30 BEGIN BOND
M  V30 1 1 2 1
M  V30 2 1 3 2
M  V30 3 1 4 3
M  V30 4 2 5 4
M  V30 5 2 6 3
M  V30 6 1 7 6
M  V30 7 1 8 4
M  V30 8 1 9 5
M  V30 9 2 9 7
M  V30 10 1 10 1
M  V30 11 1 10 8
M  V30 12 1 11 1
M  V30 13 1 12 1
M  V30 14 1 13 5
M  V30 15 1 14 6
M  V30 16 1 15 7
M  V30 17 1 16 8
M  V30 18 1 17 8
M  V30 19 1 18 9
M  V30 20 1 19 10
M  V30 END BOND
M  V30 END CTAB
M  END
>  <i_epik_Tot_Q>  (1) 
0

>  <i_epik_Tot_abs_Q>  (1) 
0

>  <i_i_glide_confnum>  (1) 
3

>  <i_i_glide_lignum>  (1) 
54

>  <i_i_glide_posenum>  (1) 
248

>  <i_i_glide_rotatable_bonds>  (1) 
0

>  <i_lp_mmshare_version>  (1) 
72125

>  <i_m_source_file_index>  (1) 
49

>  <i_f3d_flags>  (1) 
0

>  <num_sample>  (1) 
100

>  <b_lp_Chiralities_Consistent>  (1) 
1

>  <r_epik_Charging_Adjusted_Penalty>  (1) 
0.1493798173009977

>  <r_epik_Ionization_Penalty>  (1) 
0.14937981730099775

>  <r_epik_Ionization_Penalty_Charging>  (1) 
0

>  <r_epik_Ionization_Penalty_Neutral>  (1) 
0.14937981730099775

>  <r_epik_State_Penalty>  (1) 
0.1493798173009977

>  <r_glide_ring_energy>  (1) 
2.0903531269635209

>  <r_i_docking_score>  (1) 
-5.8968871093183814

>  <r_i_glide_ecoul>  (1) 
-0.27705332440372943

>  <r_i_glide_eff_state_penalty>  (1) 
0.1493798173009977

>  <r_i_glide_einternal>  (1) 
0

>  <r_i_glide_emodel>  (1) 
-30.043191813670326

>  <r_i_glide_emodel_strain>  (1) 
0

>  <r_i_glide_energy>  (1) 
-21.726869608271333

>  <r_i_glide_erotb>  (1) 
0

>  <r_i_glide_esite>  (1) 
0

>  <r_i_glide_evdw>  (1) 
-21.449816283867602

>  <r_i_glide_gscore>  (1) 
-6.0462669266193796

>  <r_i_glide_gscore_strain>  (1) 
0

>  <r_i_glide_hbond>  (1) 
-0.02860685357294307

>  <r_i_glide_ligand_efficiency>  (1) 
-0.58968871093183817

>  <r_i_glide_ligand_efficiency_ln>  (1) 
-1.7855367668883899

>  <r_i_glide_ligand_efficiency_sa>  (1) 
-1.2704458151517359

>  <r_i_glide_lipo>  (1) 
-1.8368847510371322

>  <r_i_glide_metal>  (1) 
-0

>  <r_i_glide_rewards>  (1) 
-3.0667265091553646

>  <r_lp_Energy>  (1) 
22.191175999999999

>  <r_lp_tautomer_probability>  (1) 
1

>  <s_epik_Chemistry_Notes>  (1) 
This compound contains an acetal/aminal-like group ( X-CH(R)-Y where X, Y are N, S, or O) that may be acid/base labile, releasing an aldehyde.

>  <s_epik_cmdline>  (1) 
J2VwaWtfcHl0aG9uJywgJy1waHQnLCAnMS4wJywgJy1waCcsICc3LjQnLCAnLXRuJywgJzgnLCAnLW1hJywgJzUwMCcsICctaW1hZScsICc8aW5maWxlLm1hZT4nLCAnLW9tYWUnLCAnPG91dGZpbGUubWFlPic=

>  <s_epik_input>  (1) 
TzFbQ0gyXVtOSF1bQ0gyXWMoYzEyKVtjSF1bY0hdW2NIXVtjSF0y

>  <s_glide_docking_method>  (1) 
confgen

>  <s_i_glide_gridfile>  (1) 
gpcr_drd2_6luq_protein_autoprepared_prepared

>  <s_lp_Force_Field>  (1) 
S-OPLS

>  <s_lp_Variant>  (1) 
Pocket2Mol_48_num_sample_100-1

>  <s_m_source_file>  (1) 
generated__ligand_Pocket2Mol_2026-05-06_prepared.sdf

>  <GenAI_Model>  (1) 
Pocket2Mol

>  <Protein>  (1) 
generic_title2

$$$$
Pocket2Mol_71_num_sample_100
     RDKit          3D

  0  0  0  0  0  0  0  0  0  0999 V3000
M  V30 BEGIN CTAB
M  V30 COUNTS 16 17 0 0 1
M  V30 BEGIN ATOM
M  V30 1 C 10.367537 6.569301 -7.070544 0
M  V30 2 O 10.920760 6.211235 -5.876097 0
M  V30 3 C 11.302111 7.272583 -5.049748 0
M  V30 4 C 11.152347 8.649850 -5.491668 0
M  V30 5 C 11.561877 9.673189 -4.610540 0
M  V30 6 C 11.834879 6.991894 -3.778348 0
M  V30 7 C 12.234839 8.037330 -2.931746 0
M  V30 8 N 10.634838 8.958073 -6.705176 0 CHG=-1
M  V30 9 C 10.259074 7.879785 -7.400444 0
M  V30 10 F 12.742003 7.761203 -1.710310 0
M  V30 11 C 12.099408 9.369301 -3.345768 0
M  V30 12 H 10.047772 5.731067 -7.670327 0
M  V30 13 H 11.458839 10.705599 -4.911255 0
M  V30 14 H 11.938317 5.967340 -3.454027 0
M  V30 15 H 9.797157 8.100109 -8.386574 0
M  V30 16 H 12.404232 10.167482 -2.687309 0
M  V30 END ATOM
M  V30 BEGIN BOND
M  V30 1 1 2 1
M  V30 2 1 3 2
M  V30 3 2 4 3
M  V30 4 1 5 4
M  V30 5 1 6 3
M  V30 6 2 7 6
M  V30 7 1 8 4
M  V30 8 2 9 1
M  V30 9 1 9 8
M  V30 10 1 10 7
M  V30 11 2 11 5
M  V30 12 1 11 7
M  V30 13 1 12 1
M  V30 14 1 13 5
M  V30 15 1 14 6
M  V30 16 1 15 9
M  V30 17 1 16 11
M  V30 END BOND
M  V30 END CTAB
M  END
>  <i_epik_Tot_Q>  (1) 
-1

>  <i_epik_Tot_abs_Q>  (1) 
1

>  <i_i_glide_confnum>  (1) 
1

>  <i_i_glide_lignum>  (1) 
78

>  <i_i_glide_posenum>  (1) 
298

>  <i_i_glide_rotatable_bonds>  (1) 
0

>  <i_lp_mmshare_version>  (1) 
72125

>  <i_m_source_file_index>  (1) 
72

>  <i_f3d_flags>  (1) 
0

>  <num_sample>  (1) 
100

>  <b_lp_Chiralities_Consistent>  (1) 
1

>  <r_epik_Charging_Adjusted_Penalty>  (1) 
0.017639978051431922

>  <r_epik_Ionization_Penalty>  (1) 
0.017639978051431908

>  <r_epik_Ionization_Penalty_Charging>  (1) 
0

>  <r_epik_Ionization_Penalty_Neutral>  (1) 
0.017639978051431908

>  <r_epik_State_Penalty>  (1) 
0.017639978051431922

>  <r_glide_ring_energy>  (1) 
0

>  <r_i_docking_score>  (1) 
-5.893623847221245

>  <r_i_glide_ecoul>  (1) 
-0.7363397181563951

>  <r_i_glide_eff_state_penalty>  (1) 
0.017639978051431922

>  <r_i_glide_einternal>  (1) 
0

>  <r_i_glide_emodel>  (1) 
-27.781605892193188

>  <r_i_glide_emodel_strain>  (1) 
0

>  <r_i_glide_energy>  (1) 
-19.434484947321682

>  <r_i_glide_erotb>  (1) 
0

>  <r_i_glide_esite>  (1) 
0

>  <r_i_glide_evdw>  (1) 
-18.698145229165288

>  <r_i_glide_gscore>  (1) 
-5.9112638252726768

>  <r_i_glide_gscore_strain>  (1) 
0

>  <r_i_glide_hbond>  (1) 
0

>  <r_i_glide_ligand_efficiency>  (1) 
-0.53578398611102229

>  <r_i_glide_ligand_efficiency_ln>  (1) 
-1.7344924943397364

>  <r_i_glide_ligand_efficiency_sa>  (1) 
-1.1915729179567804

>  <r_i_glide_lipo>  (1) 
-1.9797147890956737

>  <r_i_glide_metal>  (1) 
-0

>  <r_i_glide_rewards>  (1) 
-2.886190816995279

>  <r_lp_Energy>  (1) 
25.3598

>  <s_epik_Chemistry_Notes>  (1) 
This compound has an imine and may undergo hydrolysis.

>  <s_epik_cmdline>  (1) 
J2VwaWtfcHl0aG9uJywgJy1waHQnLCAnMS4wJywgJy1waCcsICc3LjQnLCAnLXRuJywgJzgnLCAnLW1hJywgJzUwMCcsICctaW1hZScsICc8aW5maWxlLm1hZT4nLCAnLW9tYWUnLCAnPG91dGZpbGUubWFlPic=

>  <s_epik_input>  (1) 
TzFbQ0gyXVtDSF09TmMoYzEyKVtjSF1bY0hdYyhGKVtjSF0y

>  <s_glide_docking_method>  (1) 
confgen

>  <s_i_glide_gridfile>  (1) 
gpcr_drd2_6luq_protein_autoprepared_prepared

>  <s_lp_Force_Field>  (1) 
S-OPLS

>  <s_lp_Variant>  (1) 
Pocket2Mol_71_num_sample_100-1

>  <s_m_source_file>  (1) 
generated__ligand_Pocket2Mol_2026-05-06_prepared.sdf

>  <GenAI_Model>  (1) 
Pocket2Mol

>  <Protein>  (1) 
generic_title2

$$$$
Pocket2Mol_51_num_sample_100
     RDKit          3D

  0  0  0  0  0  0  0  0  0  0999 V3000
M  V30 BEGIN CTAB
M  V30 COUNTS 15 16 0 0 1
M  V30 BEGIN ATOM
M  V30 1 C 11.034846 8.943523 -6.648234 0
M  V30 2 O 11.682165 9.680676 -5.570147 0
M  V30 3 C 11.834839 8.789658 -4.549811 0
M  V30 4 C 11.434838 7.497909 -4.771956 0
M  V30 5 C 11.548922 6.519217 -3.777826 0
M  V30 6 C 12.381095 9.160951 -3.309155 0
M  V30 7 C 12.511446 8.195235 -2.290162 0
M  V30 8 S 10.789502 7.140390 -6.313488 0
M  V30 9 F 13.034838 8.541267 -1.091667 0
M  V30 10 C 12.093058 6.867177 -2.524363 0
M  V30 11 H 10.048547 9.369301 -6.824289 0
M  V30 12 H 11.609681 9.065047 -7.566553 0
M  V30 13 H 11.225029 5.510296 -3.970626 0
M  V30 14 H 12.698800 10.169301 -3.135697 0
M  V30 15 H 12.188669 6.121692 -1.748223 0
M  V30 END ATOM
M  V30 BEGIN BOND
M  V30 1 1 2 1
M  V30 2 1 3 2
M  V30 3 2 4 3
M  V30 4 1 5 4
M  V30 5 1 6 3
M  V30 6 2 7 6
M  V30 7 1 8 1
M  V30 8 1 8 4
M  V30 9 1 9 7
M  V30 10 2 10 5
M  V30 11 1 10 7
M  V30 12 1 11 1
M  V30 13 1 12 1
M  V30 14 1 13 5
M  V30 15 1 14 6
M  V30 16 1 15 10
M  V30 END BOND
M  V30 END CTAB
M  END
>  <i_epik_Tot_Q>  (1) 
0

>  <i_epik_Tot_abs_Q>  (1) 
0

>  <i_i_glide_confnum>  (1) 
1

>  <i_i_glide_lignum>  (1) 
58

>  <i_i_glide_posenum>  (1) 
150

>  <i_i_glide_rotatable_bonds>  (1) 
0

>  <i_lp_mmshare_version>  (1) 
72125

>  <i_m_source_file_index>  (1) 
52

>  <i_f3d_flags>  (1) 
0

>  <num_sample>  (1) 
100

>  <b_lp_Chiralities_Consistent>  (1) 
1

>  <r_epik_Charging_Adjusted_Penalty>  (1) 
0

>  <r_epik_Ionization_Penalty>  (1) 
0

>  <r_epik_Ionization_Penalty_Charging>  (1) 
0

>  <r_epik_Ionization_Penalty_Neutral>  (1) 
0

>  <r_epik_State_Penalty>  (1) 
-0

>  <r_glide_ring_energy>  (1) 
0

>  <r_i_docking_score>  (1) 
-5.8934038631963963

>  <r_i_glide_ecoul>  (1) 
0.011763511261989511

>  <r_i_glide_eff_state_penalty>  (1) 
-0

>  <r_i_glide_einternal>  (1) 
0

>  <r_i_glide_emodel>  (1) 
-27.996436680414305

>  <r_i_glide_emodel_strain>  (1) 
0

>  <r_i_glide_energy>  (1) 
-20.500226397971108

>  <r_i_glide_erotb>  (1) 
0

>  <r_i_glide_esite>  (1) 
-0.018033651357442781

>  <r_i_glide_evdw>  (1) 
-20.511989909233098

>  <r_i_glide_gscore>  (1) 
-5.8934038631963963

>  <r_i_glide_gscore_strain>  (1) 
0

>  <r_i_glide_hbond>  (1) 
0

>  <r_i_glide_ligand_efficiency>  (1) 
-0.58934038631963959

>  <r_i_glide_ligand_efficiency_ln>  (1) 
-1.7844820639741867

>  <r_i_glide_ligand_efficiency_sa>  (1) 
-1.2696953725238236

>  <r_i_glide_lipo>  (1) 
-2.0879471853193361

>  <r_i_glide_metal>  (1) 
-0

>  <r_i_glide_rewards>  (1) 
-2.7635880577472607

>  <r_lp_Energy>  (1) 
4.072584

>  <r_lp_tautomer_probability>  (1) 
1

>  <s_epik_Chemistry_Notes>  (1) 
This compound contains an acetal/aminal-like group ( X-CH(R)-Y where X, Y are N, S, or O) that may be acid/base labile, releasing an aldehyde.

>  <s_epik_cmdline>  (1) 
J2VwaWtfcHl0aG9uJywgJy1waHQnLCAnMS4wJywgJy1waCcsICc3LjQnLCAnLXRuJywgJzgnLCAnLW1hJywgJzUwMCcsICctaW1hZScsICc8aW5maWxlLm1hZT4nLCAnLW9tYWUnLCAnPG91dGZpbGUubWFlPic=

>  <s_epik_input>  (1) 
TzFbQ0gyXVNjKGMxMilbY0hdW2NIXWMoRilbY0hdMg==

>  <s_glide_docking_method>  (1) 
confgen

>  <s_i_glide_gridfile>  (1) 
gpcr_drd2_6luq_protein_autoprepared_prepared

>  <s_lp_Force_Field>  (1) 
S-OPLS

>  <s_lp_Variant>  (1) 
Pocket2Mol_51_num_sample_100-1

>  <s_m_source_file>  (1) 
generated__ligand_Pocket2Mol_2026-05-06_prepared.sdf

>  <GenAI_Model>  (1) 
Pocket2Mol

>  <Protein>  (1) 
generic_title2

$$$$
Pocket2Mol_82_num_sample_100
     RDKit          3D

  0  0  0  0  0  0  0  0  0  0999 V3000
M  V30 BEGIN CTAB
M  V30 COUNTS 22 23 0 0 1
M  V30 BEGIN ATOM
M  V30 1 C 10.659105 7.937002 -5.421223 0
M  V30 2 O 11.834117 8.549908 -6.045360 0
M  V30 3 C 11.629559 8.267877 -7.343363 0
M  V30 4 C 10.457912 7.671595 -7.639148 0
M  V30 5 C 10.115264 7.340720 -8.960603 0
M  V30 6 C 9.591811 7.405138 -6.484943 0
M  V30 7 C 11.033934 7.647645 -10.003377 0
M  V30 8 O 10.744929 7.357548 -11.321783 0
M  V30 9 C 12.269661 8.263777 -9.677430 0
M  V30 10 O 13.170093 8.569607 -10.654668 0
M  V30 11 C 12.564799 8.567157 -8.336809 0
M  V30 12 C 9.498786 6.764018 -11.660085 0
M  V30 13 H 10.234839 8.700823 -4.782601 0
M  V30 14 H 11.023764 7.116417 -4.798576 0
M  V30 15 H 9.167808 6.870914 -9.175092 0
M  V30 16 H 8.673989 7.995997 -6.503832 0
M  V30 17 H 9.360723 6.347424 -6.365436 0
M  V30 18 H 13.769706 9.256083 -10.381313 0
M  V30 19 H 13.500415 9.032527 -8.076864 0
M  V30 20 H 9.474374 6.621640 -12.739074 0
M  V30 21 H 9.378375 5.782575 -11.204034 0
M  V30 22 H 8.653960 7.399399 -11.395621 0
M  V30 END ATOM
M  V30 BEGIN BOND
M  V30 1 1 2 1
M  V30 2 1 3 2
M  V30 3 1 4 3
M  V30 4 2 5 4
M  V30 5 1 6 1
M  V30 6 1 6 4
M  V30 7 1 7 5
M  V30 8 1 8 7
M  V30 9 2 9 7
M  V30 10 1 10 9
M  V30 11 2 11 3
M  V30 12 1 11 9
M  V30 13 1 12 8
M  V30 14 1 13 1
M  V30 15 1 14 1
M  V30 16 1 15 5
M  V30 17 1 16 6
M  V30 18 1 17 6
M  V30 19 1 18 10
M  V30 20 1 19 11
M  V30 21 1 20 12
M  V30 22 1 21 12
M  V30 23 1 22 12
M  V30 END BOND
M  V30 END CTAB
M  END
>  <i_epik_Tot_Q>  (1) 
0

>  <i_epik_Tot_abs_Q>  (1) 
0

>  <i_i_glide_confnum>  (1) 
1

>  <i_i_glide_lignum>  (1) 
89

>  <i_i_glide_posenum>  (1) 
382

>  <i_i_glide_rotatable_bonds>  (1) 
2

>  <i_lp_mmshare_version>  (1) 
72125

>  <i_m_source_file_index>  (1) 
83

>  <i_f3d_flags>  (1) 
0

>  <num_sample>  (1) 
100

>  <b_lp_Chiralities_Consistent>  (1) 
1

>  <r_epik_Charging_Adjusted_Penalty>  (1) 
0

>  <r_epik_Ionization_Penalty>  (1) 
0.0019697177408658601

>  <r_epik_Ionization_Penalty_Charging>  (1) 
0

>  <r_epik_Ionization_Penalty_Neutral>  (1) 
0.0019697177408658601

>  <r_epik_State_Penalty>  (1) 
-0

>  <r_glide_ring_energy>  (1) 
0

>  <r_i_docking_score>  (1) 
-5.8921803778510764

>  <r_i_glide_ecoul>  (1) 
-6.5727799936119364

>  <r_i_glide_eff_state_penalty>  (1) 
-0

>  <r_i_glide_einternal>  (1) 
0.44702601375476725

>  <r_i_glide_emodel>  (1) 
-30.230371525474052

>  <r_i_glide_emodel_strain>  (1) 
0.055859456174687239

>  <r_i_glide_energy>  (1) 
-22.23270042808722

>  <r_i_glide_erotb>  (1) 
0

>  <r_i_glide_esite>  (1) 
0

>  <r_i_glide_evdw>  (1) 
-15.659920434475284

>  <r_i_glide_gscore>  (1) 
-5.8921803778510764

>  <r_i_glide_gscore_strain>  (1) 
0

>  <r_i_glide_hbond>  (1) 
-0.32000000000000001

>  <r_i_glide_ligand_efficiency>  (1) 
-0.49101503148758968

>  <r_i_glide_ligand_efficiency_ln>  (1) 
-1.6907713663462174

>  <r_i_glide_ligand_efficiency_sa>  (1) 
-1.1241437997032333

>  <r_i_glide_lipo>  (1) 
-0.97176149764016306

>  <r_i_glide_metal>  (1) 
-0

>  <r_i_glide_rewards>  (1) 
-2.8315058594453593

>  <r_lp_Energy>  (1) 
16.449425999999999

>  <r_lp_tautomer_probability>  (1) 
1

>  <s_epik_cmdline>  (1) 
J2VwaWtfcHl0aG9uJywgJy1waHQnLCAnMS4wJywgJy1waCcsICc3LjQnLCAnLXRuJywgJzgnLCAnLW1hJywgJzUwMCcsICctaW1hZScsICc8aW5maWxlLm1hZT4nLCAnLW9tYWUnLCAnPG91dGZpbGUubWFlPic=

>  <s_epik_input>  (1) 
TzFbQ0gyXVtDSDJdYyhjMTIpW2NIXWMoT1tDSDNdKWMoW09IXSlbY0hdMg==

>  <s_glide_docking_method>  (1) 
confgen

>  <s_i_glide_gridfile>  (1) 
gpcr_drd2_6luq_protein_autoprepared_prepared

>  <s_lp_Force_Field>  (1) 
S-OPLS

>  <s_lp_Variant>  (1) 
Pocket2Mol_82_num_sample_100-1

>  <s_m_source_file>  (1) 
generated__ligand_Pocket2Mol_2026-05-06_prepared.sdf

>  <GenAI_Model>  (1) 
Pocket2Mol

>  <Protein>  (1) 
generic_title2

$$$$
Pocket2Mol_38_num_sample_100
     RDKit          3D

  0  0  0  0  0  0  0  0  0  0999 V3000
M  V30 BEGIN CTAB
M  V30 COUNTS 15 16 0 0 1
M  V30 BEGIN ATOM
M  V30 1 C 12.634845 8.328501 -2.451254 0
M  V30 2 O 12.494538 9.369300 -3.348409 0
M  V30 3 C 11.896683 8.858088 -4.473624 0
M  V30 4 C 11.658649 7.487640 -4.291524 0
M  V30 5 C 11.034868 6.799290 -5.361755 0
M  V30 6 C 11.565801 9.554086 -5.637963 0
M  V30 7 C 12.140650 7.151288 -2.984172 0
M  V30 8 C 10.956866 8.857916 -6.692092 0
M  V30 9 C 10.686823 7.480498 -6.554044 0
M  V30 10 H 13.092402 8.580378 -1.504593 0
M  V30 11 H 10.822688 5.750669 -5.267347 0
M  V30 12 H 11.776794 10.609182 -5.725771 0
M  V30 13 H 12.112728 6.176182 -2.518932 0
M  V30 14 H 10.694529 9.369300 -7.602581 0
M  V30 15 H 10.211922 6.941848 -7.362232 0
M  V30 END ATOM
M  V30 BEGIN BOND
M  V30 1 1 2 1
M  V30 2 1 3 2
M  V30 3 1 4 3
M  V30 4 2 5 4
M  V30 5 2 6 3
M  V30 6 2 7 1
M  V30 7 1 7 4
M  V30 8 1 8 6
M  V30 9 1 9 5
M  V30 10 2 9 8
M  V30 11 1 10 1
M  V30 12 1 11 5
M  V30 13 1 12 6
M  V30 14 1 13 7
M  V30 15 1 14 8
M  V30 16 1 15 9
M  V30 END BOND
M  V30 END CTAB
M  END
>  <i_epik_Tot_Q>  (1) 
0

>  <i_epik_Tot_abs_Q>  (1) 
0

>  <i_i_glide_confnum>  (1) 
1

>  <i_i_glide_lignum>  (1) 
43

>  <i_i_glide_posenum>  (1) 
331

>  <i_i_glide_rotatable_bonds>  (1) 
0

>  <i_lp_mmshare_version>  (1) 
72125

>  <i_m_source_file_index>  (1) 
39

>  <i_f3d_flags>  (1) 
0

>  <num_sample>  (1) 
100

>  <b_lp_Chiralities_Consistent>  (1) 
1

>  <r_epik_Charging_Adjusted_Penalty>  (1) 
0

>  <r_epik_Ionization_Penalty>  (1) 
0

>  <r_epik_Ionization_Penalty_Charging>  (1) 
0

>  <r_epik_Ionization_Penalty_Neutral>  (1) 
0

>  <r_epik_State_Penalty>  (1) 
-0

>  <r_glide_ring_energy>  (1) 
0

>  <r_i_docking_score>  (1) 
-5.8893691881253929

>  <r_i_glide_ecoul>  (1) 
-0.95720399553437208

>  <r_i_glide_eff_state_penalty>  (1) 
-0

>  <r_i_glide_einternal>  (1) 
0

>  <r_i_glide_emodel>  (1) 
-26.884470662171712

>  <r_i_glide_emodel_strain>  (1) 
4.2632564145606011e-14

>  <r_i_glide_energy>  (1) 
-19.356830439478788

>  <r_i_glide_erotb>  (1) 
0

>  <r_i_glide_esite>  (1) 
0

>  <r_i_glide_evdw>  (1) 
-18.399626443944417

>  <r_i_glide_gscore>  (1) 
-5.8893691881253929

>  <r_i_glide_gscore_strain>  (1) 
0

>  <r_i_glide_hbond>  (1) 
0

>  <r_i_glide_ligand_efficiency>  (1) 
-0.65437435423615475

>  <r_i_glide_ligand_efficiency_ln>  (1) 
-1.8420254960732676

>  <r_i_glide_ligand_efficiency_sa>  (1) 
-1.3611535084666619

>  <r_i_glide_lipo>  (1) 
-2.1471971318192784

>  <r_i_glide_metal>  (1) 
-0

>  <r_i_glide_rewards>  (1) 
-2.6786101347787388

>  <r_lp_Energy>  (1) 
12.927653999999999

>  <r_lp_tautomer_probability>  (1) 
1

>  <s_epik_cmdline>  (1) 
J2VwaWtfcHl0aG9uJywgJy1waHQnLCAnMS4wJywgJy1waCcsICc3LjQnLCAnLXRuJywgJzgnLCAnLW1hJywgJzUwMCcsICctaW1hZScsICc8aW5maWxlLm1hZT4nLCAnLW9tYWUnLCAnPG91dGZpbGUubWFlPic=

>  <s_epik_input>  (1) 
bzFbY0hdW2NIXWMoYzEyKVtjSF1bY0hdW2NIXVtjSF0y

>  <s_glide_docking_method>  (1) 
confgen

>  <s_i_glide_gridfile>  (1) 
gpcr_drd2_6luq_protein_autoprepared_prepared

>  <s_lp_Force_Field>  (1) 
S-OPLS

>  <s_lp_Variant>  (1) 
Pocket2Mol_38_num_sample_100-1

>  <s_m_source_file>  (1) 
generated__ligand_Pocket2Mol_2026-05-06_prepared.sdf

>  <GenAI_Model>  (1) 
Pocket2Mol

>  <Protein>  (1) 
generic_title2

$$$$
Pocket2Mol_32_num_sample_100
     RDKit          3D

  0  0  0  0  0  0  0  0  0  0999 V3000
M  V30 BEGIN CTAB
M  V30 COUNTS 17 18 0 0 1
M  V30 BEGIN ATOM
M  V30 1 C 10.692741 7.050443 -6.853688 0
M  V30 2 O 11.032935 6.169302 -5.717239 0
M  V30 3 C 11.434838 7.054074 -4.782749 0
M  V30 4 C 11.434837 8.347544 -5.164823 0
M  V30 5 C 11.834837 9.369302 -4.291667 0
M  V30 6 C 10.991342 8.587416 -6.541206 0
M  V30 7 C 11.834839 6.675428 -3.489077 0
M  V30 8 C 12.241456 7.673333 -2.577737 0
M  V30 9 C 12.241202 9.029496 -2.981234 0
M  V30 10 H 11.248263 6.726861 -7.734427 0
M  V30 11 H 9.634792 6.917782 -7.084963 0
M  V30 12 H 11.828357 10.398725 -4.616414 0
M  V30 13 H 10.098617 9.211269 -6.583981 0
M  V30 14 H 11.789878 9.001662 -7.157254 0
M  V30 15 H 11.830688 5.638702 -3.196697 0
M  V30 16 H 12.551708 7.403675 -1.579363 0
M  V30 17 H 12.550759 9.798424 -2.291670 0
M  V30 END ATOM
M  V30 BEGIN BOND
M  V30 1 1 2 1
M  V30 2 1 3 2
M  V30 3 1 4 3
M  V30 4 2 5 4
M  V30 5 1 6 1
M  V30 6 1 6 4
M  V30 7 2 7 3
M  V30 8 1 8 7
M  V30 9 1 9 5
M  V30 10 2 9 8
M  V30 11 1 10 1
M  V30 12 1 11 1
M  V30 13 1 12 5
M  V30 14 1 13 6
M  V30 15 1 14 6
M  V30 16 1 15 7
M  V30 17 1 16 8
M  V30 18 1 17 9
M  V30 END BOND
M  V30 END CTAB
M  END
>  <i_epik_Tot_Q>  (1) 
0

>  <i_epik_Tot_abs_Q>  (1) 
0

>  <i_i_glide_confnum>  (1) 
1

>  <i_i_glide_lignum>  (1) 
36

>  <i_i_glide_posenum>  (1) 
50

>  <i_i_glide_rotatable_bonds>  (1) 
0

>  <i_lp_mmshare_version>  (1) 
72125

>  <i_m_source_file_index>  (1) 
33

>  <i_f3d_flags>  (1) 
0

>  <num_sample>  (1) 
100

>  <b_lp_Chiralities_Consistent>  (1) 
1

>  <r_epik_Charging_Adjusted_Penalty>  (1) 
0

>  <r_epik_Ionization_Penalty>  (1) 
0

>  <r_epik_Ionization_Penalty_Charging>  (1) 
0

>  <r_epik_Ionization_Penalty_Neutral>  (1) 
0

>  <r_epik_State_Penalty>  (1) 
-0

>  <r_glide_ring_energy>  (1) 
0

>  <r_i_docking_score>  (1) 
-5.8852467033589679

>  <r_i_glide_ecoul>  (1) 
-0.26411864724455913

>  <r_i_glide_eff_state_penalty>  (1) 
-0

>  <r_i_glide_einternal>  (1) 
0

>  <r_i_glide_emodel>  (1) 
-26.70736900007882

>  <r_i_glide_emodel_strain>  (1) 
0

>  <r_i_glide_energy>  (1) 
-19.012850681617245

>  <r_i_glide_erotb>  (1) 
0

>  <r_i_glide_esite>  (1) 
0

>  <r_i_glide_evdw>  (1) 
-18.748732034372686

>  <r_i_glide_gscore>  (1) 
-5.8852467033589679

>  <r_i_glide_gscore_strain>  (1) 
0

>  <r_i_glide_hbond>  (1) 
0

>  <r_i_glide_ligand_efficiency>  (1) 
-0.65391630037321868

>  <r_i_glide_ligand_efficiency_ln>  (1) 
-1.8407361012663943

>  <r_i_glide_ligand_efficiency_sa>  (1) 
-1.3602007180362821

>  <r_i_glide_lipo>  (1) 
-2.181180832142867

>  <r_i_glide_metal>  (1) 
-0

>  <r_i_glide_rewards>  (1) 
-2.727011472410783

>  <r_lp_Energy>  (1) 
11.954839999999999

>  <r_lp_tautomer_probability>  (1) 
1

>  <s_epik_cmdline>  (1) 
J2VwaWtfcHl0aG9uJywgJy1waHQnLCAnMS4wJywgJy1waCcsICc3LjQnLCAnLXRuJywgJzgnLCAnLW1hJywgJzUwMCcsICctaW1hZScsICc8aW5maWxlLm1hZT4nLCAnLW9tYWUnLCAnPG91dGZpbGUubWFlPic=

>  <s_epik_input>  (1) 
TzFbQ0gyXVtDSDJdYyhjMTIpW2NIXVtjSF1bY0hdW2NIXTI=

>  <s_glide_docking_method>  (1) 
confgen

>  <s_i_glide_gridfile>  (1) 
gpcr_drd2_6luq_protein_autoprepared_prepared

>  <s_lp_Force_Field>  (1) 
S-OPLS

>  <s_lp_Variant>  (1) 
Pocket2Mol_32_num_sample_100-1

>  <s_m_source_file>  (1) 
generated__ligand_Pocket2Mol_2026-05-06_prepared.sdf

>  <GenAI_Model>  (1) 
Pocket2Mol

>  <Protein>  (1) 
generic_title2

$$$$
Pocket2Mol_60_num_sample_100
     RDKit          3D

  0  0  0  0  0  0  0  0  0  0999 V3000
M  V30 BEGIN CTAB
M  V30 COUNTS 19 20 0 0 1
M  V30 BEGIN ATOM
M  V30 1 C 12.361258 6.853006 -2.363668 0
M  V30 2 O 11.438491 6.528731 -3.389757 0
M  V30 3 C 11.434839 7.383038 -4.467205 0
M  V30 4 C 12.234857 8.339048 -2.020962 0
M  V30 5 O 12.532716 9.122406 -3.167420 0
M  V30 6 C 11.985401 8.689661 -4.354994 0
M  V30 7 C 10.874144 6.961795 -5.688446 0
M  V30 8 C 10.873473 7.825722 -6.799707 0
M  V30 9 C 11.980477 9.545838 -5.472290 0
M  V30 10 O 10.332497 7.417900 -7.983535 0
M  V30 11 C 11.431880 9.111902 -6.691674 0
M  V30 12 H 12.151140 6.233371 -1.491667 0
M  V30 13 H 13.373450 6.615733 -2.691668 0
M  V30 14 H 11.232606 8.569291 -1.665238 0
M  V30 15 H 12.927817 8.606100 -1.222730 0
M  V30 16 H 10.448845 5.973030 -5.772191 0
M  V30 17 H 12.399234 10.535561 -5.395983 0
M  V30 18 H 9.718177 6.702524 -7.903317 0
M  V30 19 H 11.434846 9.769301 -7.546382 0
M  V30 END ATOM
M  V30 BEGIN BOND
M  V30 1 1 2 1
M  V30 2 1 3 2
M  V30 3 1 4 1
M  V30 4 1 5 4
M  V30 5 2 6 3
M  V30 6 1 6 5
M  V30 7 1 7 3
M  V30 8 2 8 7
M  V30 9 1 9 6
M  V30 10 1 10 8
M  V30 11 1 11 8
M  V30 12 2 11 9
M  V30 13 1 12 1
M  V30 14 1 13 1
M  V30 15 1 14 4
M  V30 16 1 15 4
M  V30 17 1 16 7
M  V30 18 1 17 9
M  V30 19 1 18 10
M  V30 20 1 19 11
M  V30 END BOND
M  V30 END CTAB
M  END
>  <i_epik_Tot_Q>  (1) 
0

>  <i_epik_Tot_abs_Q>  (1) 
0

>  <i_i_glide_confnum>  (1) 
2

>  <i_i_glide_lignum>  (1) 
67

>  <i_i_glide_posenum>  (1) 
145

>  <i_i_glide_rotatable_bonds>  (1) 
1

>  <i_lp_mmshare_version>  (1) 
72125

>  <i_m_source_file_index>  (1) 
61

>  <i_f3d_flags>  (1) 
0

>  <num_sample>  (1) 
100

>  <b_lp_Chiralities_Consistent>  (1) 
1

>  <r_epik_Charging_Adjusted_Penalty>  (1) 
0

>  <r_epik_Ionization_Penalty>  (1) 
0.0014130578134093086

>  <r_epik_Ionization_Penalty_Charging>  (1) 
0

>  <r_epik_Ionization_Penalty_Neutral>  (1) 
0.0014130578134093086

>  <r_epik_State_Penalty>  (1) 
-0

>  <r_glide_ring_energy>  (1) 
0.0030884842251178704

>  <r_i_docking_score>  (1) 
-5.8823358796676777

>  <r_i_glide_ecoul>  (1) 
-0.24944152200803427

>  <r_i_glide_eff_state_penalty>  (1) 
-0

>  <r_i_glide_einternal>  (1) 
0.33498484790269356

>  <r_i_glide_emodel>  (1) 
-31.135228934782141

>  <r_i_glide_emodel_strain>  (1) 
0.037079316191393374

>  <r_i_glide_energy>  (1) 
-22.44555460903667

>  <r_i_glide_erotb>  (1) 
0

>  <r_i_glide_esite>  (1) 
0

>  <r_i_glide_evdw>  (1) 
-22.196113087028635

>  <r_i_glide_gscore>  (1) 
-5.8823358796676777

>  <r_i_glide_gscore_strain>  (1) 
0

>  <r_i_glide_hbond>  (1) 
0

>  <r_i_glide_ligand_efficiency>  (1) 
-0.5347578072425162

>  <r_i_glide_ligand_efficiency_ln>  (1) 
-1.7311704474114711

>  <r_i_glide_ligand_efficiency_sa>  (1) 
-1.1892907165838598

>  <r_i_glide_lipo>  (1) 
-2.1453926643623347

>  <r_i_glide_metal>  (1) 
-0

>  <r_i_glide_rewards>  (1) 
-2.5897213326527067

>  <r_lp_Energy>  (1) 
13.915925999999999

>  <r_lp_tautomer_probability>  (1) 
1

>  <s_epik_cmdline>  (1) 
J2VwaWtfcHl0aG9uJywgJy1waHQnLCAnMS4wJywgJy1waCcsICc3LjQnLCAnLXRuJywgJzgnLCAnLW1hJywgJzUwMCcsICctaW1hZScsICc8aW5maWxlLm1hZT4nLCAnLW9tYWUnLCAnPG91dGZpbGUubWFlPic=

>  <s_epik_input>  (1) 
TzFbQ0gyXVtDSDJdT2MoYzEyKVtjSF1bY0hdYyhbY0hdMilbT0hd

>  <s_glide_docking_method>  (1) 
confgen

>  <s_i_glide_gridfile>  (1) 
gpcr_drd2_6luq_protein_autoprepared_prepared

>  <s_lp_Force_Field>  (1) 
S-OPLS

>  <s_lp_Variant>  (1) 
Pocket2Mol_60_num_sample_100-1

>  <s_m_source_file>  (1) 
generated__ligand_Pocket2Mol_2026-05-06_prepared.sdf

>  <GenAI_Model>  (1) 
Pocket2Mol

>  <Protein>  (1) 
generic_title2

$$$$
Pocket2Mol_76_num_sample_100
     RDKit          3D

  0  0  0  0  0  0  0  0  0  0999 V3000
M  V30 BEGIN CTAB
M  V30 COUNTS 20 21 0 0 1
M  V30 BEGIN ATOM
M  V30 1 C 9.429503 6.633636 -7.370934 0
M  V30 2 O 10.248664 6.169301 -6.313445 0
M  V30 3 C 10.902452 7.130250 -5.595652 0
M  V30 4 C 10.220845 7.641731 -8.198355 0
M  V30 5 O 10.543266 8.744387 -7.365140 0
M  V30 6 C 11.046805 8.431655 -6.122368 0
M  V30 7 C 11.434840 6.819980 -4.326859 0
M  V30 8 C 12.106039 7.812748 -3.583302 0
M  V30 9 C 11.707464 9.414764 -5.378864 0
M  V30 10 O 11.834839 10.660212 -5.891667 0
M  V30 11 O 12.619790 7.518111 -2.354460 0
M  V30 12 C 12.238771 9.111013 -4.109114 0
M  V30 13 H 9.113816 5.788747 -7.983086 0
M  V30 14 H 8.534355 7.093301 -6.954691 0
M  V30 15 H 11.130344 7.193182 -8.600438 0
M  V30 16 H 9.625224 7.993335 -9.041229 0
M  V30 17 H 11.326267 5.822775 -3.924835 0
M  V30 18 H 11.414312 10.717741 -6.736993 0
M  V30 19 H 12.987639 8.272668 -1.918960 0
M  V30 20 H 12.750297 9.872152 -3.541848 0
M  V30 END ATOM
M  V30 BEGIN BOND
M  V30 1 1 2 1
M  V30 2 1 3 2
M  V30 3 1 4 1
M  V30 4 1 5 4
M  V30 5 1 6 3
M  V30 6 1 6 5
M  V30 7 2 7 3
M  V30 8 1 8 7
M  V30 9 2 9 6
M  V30 10 1 10 9
M  V30 11 1 11 8
M  V30 12 2 12 8
M  V30 13 1 12 9
M  V30 14 1 13 1
M  V30 15 1 14 1
M  V30 16 1 15 4
M  V30 17 1 16 4
M  V30 18 1 17 7
M  V30 19 1 18 10
M  V30 20 1 19 11
M  V30 21 1 20 12
M  V30 END BOND
M  V30 END CTAB
M  END
>  <i_epik_Tot_Q>  (1) 
0

>  <i_epik_Tot_abs_Q>  (1) 
0

>  <i_i_glide_confnum>  (1) 
2

>  <i_i_glide_lignum>  (1) 
83

>  <i_i_glide_posenum>  (1) 
24

>  <i_i_glide_rotatable_bonds>  (1) 
2

>  <i_lp_mmshare_version>  (1) 
72125

>  <i_m_source_file_index>  (1) 
77

>  <i_f3d_flags>  (1) 
0

>  <num_sample>  (1) 
100

>  <b_lp_Chiralities_Consistent>  (1) 
1

>  <r_epik_Charging_Adjusted_Penalty>  (1) 
0

>  <r_epik_Ionization_Penalty>  (1) 
0.012400157081266662

>  <r_epik_Ionization_Penalty_Charging>  (1) 
0

>  <r_epik_Ionization_Penalty_Neutral>  (1) 
0.012400157081266662

>  <r_epik_State_Penalty>  (1) 
-0

>  <r_glide_ring_energy>  (1) 
0.0030882677572799519

>  <r_i_docking_score>  (1) 
-5.8790315479231792

>  <r_i_glide_ecoul>  (1) 
-0.9820310239384733

>  <r_i_glide_eff_state_penalty>  (1) 
-0

>  <r_i_glide_einternal>  (1) 
0.021170091506905034

>  <r_i_glide_emodel>  (1) 
-33.322971950856953

>  <r_i_glide_emodel_strain>  (1) 
0

>  <r_i_glide_energy>  (1) 
-23.221389943638123

>  <r_i_glide_erotb>  (1) 
0

>  <r_i_glide_esite>  (1) 
0

>  <r_i_glide_evdw>  (1) 
-22.239358919699651

>  <r_i_glide_gscore>  (1) 
-5.8790315479231792

>  <r_i_glide_gscore_strain>  (1) 
0

>  <r_i_glide_hbond>  (1) 
0

>  <r_i_glide_ligand_efficiency>  (1) 
-0.48991929566026493

>  <r_i_glide_ligand_efficiency_ln>  (1) 
-1.6869982868209172

>  <r_i_glide_ligand_efficiency_sa>  (1) 
-1.1216351908880042

>  <r_i_glide_lipo>  (1) 
-1.8311470347764016

>  <r_i_glide_metal>  (1) 
-0

>  <r_i_glide_rewards>  (1) 
-2.7886119135710237

>  <r_lp_Energy>  (1) 
12.367407

>  <r_lp_tautomer_probability>  (1) 
1

>  <s_epik_cmdline>  (1) 
J2VwaWtfcHl0aG9uJywgJy1waHQnLCAnMS4wJywgJy1waCcsICc3LjQnLCAnLXRuJywgJzgnLCAnLW1hJywgJzUwMCcsICctaW1hZScsICc8aW5maWxlLm1hZT4nLCAnLW9tYWUnLCAnPG91dGZpbGUubWFlPic=

>  <s_epik_input>  (1) 
TzFbQ0gyXVtDSDJdT2MoYzEyKWMoW09IXSlbY0hdYyhbY0hdMilbT0hd

>  <s_glide_docking_method>  (1) 
confgen

>  <s_i_glide_gridfile>  (1) 
gpcr_drd2_6luq_protein_autoprepared_prepared

>  <s_lp_Force_Field>  (1) 
S-OPLS

>  <s_lp_Variant>  (1) 
Pocket2Mol_76_num_sample_100-1

>  <s_m_source_file>  (1) 
generated__ligand_Pocket2Mol_2026-05-06_prepared.sdf

>  <GenAI_Model>  (1) 
Pocket2Mol

>  <Protein>  (1) 
generic_title2

$$$$
Pocket2Mol_50_num_sample_100
     RDKit          3D

  0  0  0  0  0  0  0  0  0  0999 V3000
M  V30 BEGIN CTAB
M  V30 COUNTS 16 17 0 0 1
M  V30 BEGIN ATOM
M  V30 1 C 9.913363 7.713539 -7.328501 0
M  V30 2 O 10.235243 6.579842 -6.466804 0
M  V30 3 C 10.906458 7.216788 -5.502740 0
M  V30 4 C 11.034833 8.529200 -5.700677 0
M  V30 5 C 11.709316 9.354093 -4.783866 0
M  V30 6 C 11.434832 6.585873 -4.366679 0
M  V30 7 C 12.119798 7.369298 -3.409537 0
M  V30 8 O 12.634839 6.786745 -2.291538 0
M  V30 9 C 12.260204 8.766830 -3.619097 0
M  V30 10 O 10.468224 8.969298 -6.826100 0
M  V30 11 H 10.303732 7.523102 -8.328805 0
M  V30 12 H 8.827401 7.805136 -7.396208 0
M  V30 13 H 11.801370 10.414764 -4.963318 0
M  V30 14 H 11.314608 5.524929 -4.226069 0
M  V30 15 H 12.390595 5.876788 -2.202705 0
M  V30 16 H 12.780922 9.376764 -2.894714 0
M  V30 END ATOM
M  V30 BEGIN BOND
M  V30 1 1 2 1
M  V30 2 1 3 2
M  V30 3 2 4 3
M  V30 4 1 5 4
M  V30 5 1 6 3
M  V30 6 2 7 6
M  V30 7 1 8 7
M  V30 8 2 9 5
M  V30 9 1 9 7
M  V30 10 1 10 1
M  V30 11 1 10 4
M  V30 12 1 11 1
M  V30 13 1 12 1
M  V30 14 1 13 5
M  V30 15 1 14 6
M  V30 16 1 15 8
M  V30 17 1 16 9
M  V30 END BOND
M  V30 END CTAB
M  END
>  <i_epik_Tot_Q>  (1) 
0

>  <i_epik_Tot_abs_Q>  (1) 
0

>  <i_i_glide_confnum>  (1) 
1

>  <i_i_glide_lignum>  (1) 
57

>  <i_i_glide_posenum>  (1) 
277

>  <i_i_glide_rotatable_bonds>  (1) 
1

>  <i_lp_mmshare_version>  (1) 
72125

>  <i_m_source_file_index>  (1) 
51

>  <i_f3d_flags>  (1) 
0

>  <num_sample>  (1) 
100

>  <b_lp_Chiralities_Consistent>  (1) 
1

>  <r_epik_Charging_Adjusted_Penalty>  (1) 
0

>  <r_epik_Ionization_Penalty>  (1) 
0.0018243540331301816

>  <r_epik_Ionization_Penalty_Charging>  (1) 
0

>  <r_epik_Ionization_Penalty_Neutral>  (1) 
0.0018243540331301816

>  <r_epik_State_Penalty>  (1) 
-0

>  <r_glide_ring_energy>  (1) 
0

>  <r_i_docking_score>  (1) 
-5.8771592761632716

>  <r_i_glide_ecoul>  (1) 
-2.2470384601429139

>  <r_i_glide_eff_state_penalty>  (1) 
-0

>  <r_i_glide_einternal>  (1) 
0.045282484010034152

>  <r_i_glide_emodel>  (1) 
-32.442171275739028

>  <r_i_glide_emodel_strain>  (1) 
0

>  <r_i_glide_energy>  (1) 
-23.049101231339527

>  <r_i_glide_erotb>  (1) 
0

>  <r_i_glide_esite>  (1) 
-0.05689421232401283

>  <r_i_glide_evdw>  (1) 
-20.802062771196614

>  <r_i_glide_gscore>  (1) 
-5.8771592761632716

>  <r_i_glide_gscore_strain>  (1) 
0

>  <r_i_glide_hbond>  (1) 
0

>  <r_i_glide_ligand_efficiency>  (1) 
-0.58771592761632718

>  <r_i_glide_ligand_efficiency_ln>  (1) 
-1.7795633150015757

>  <r_i_glide_ligand_efficiency_sa>  (1) 
-1.266195582340883

>  <r_i_glide_lipo>  (1) 
-1.7835922018518351

>  <r_i_glide_metal>  (1) 
-0

>  <r_i_glide_rewards>  (1) 
-2.6595139544061563

>  <r_lp_Energy>  (1) 
16.555202999999999

>  <r_lp_tautomer_probability>  (1) 
1

>  <s_epik_Chemistry_Notes>  (1) 
This compound contains an acetal/aminal-like group ( X-CH(R)-Y where X, Y are N, S, or O) that may be acid/base labile, releasing an aldehyde.

>  <s_epik_cmdline>  (1) 
J2VwaWtfcHl0aG9uJywgJy1waHQnLCAnMS4wJywgJy1waCcsICc3LjQnLCAnLXRuJywgJzgnLCAnLW1hJywgJzUwMCcsICctaW1hZScsICc8aW5maWxlLm1hZT4nLCAnLW9tYWUnLCAnPG91dGZpbGUubWFlPic=

>  <s_epik_input>  (1) 
TzFbQ0gyXU9jKGMxMilbY0hdW2NIXWMoW2NIXTIpW09IXQ==

>  <s_glide_docking_method>  (1) 
confgen

>  <s_i_glide_gridfile>  (1) 
gpcr_drd2_6luq_protein_autoprepared_prepared

>  <s_lp_Force_Field>  (1) 
S-OPLS

>  <s_lp_Variant>  (1) 
Pocket2Mol_50_num_sample_100-1

>  <s_m_source_file>  (1) 
generated__ligand_Pocket2Mol_2026-05-06_prepared.sdf

>  <GenAI_Model>  (1) 
Pocket2Mol

>  <Protein>  (1) 
generic_title2

$$$$
Pocket2Mol_53_num_sample_100
     RDKit          3D

  0  0  0  0  0  0  0  0  0  0999 V3000
M  V30 BEGIN CTAB
M  V30 COUNTS 16 17 0 0 1
M  V30 BEGIN ATOM
M  V30 1 C 11.668165 9.420777 -6.625495 0
M  V30 2 O 11.921741 9.855738 -5.357823 0
M  V30 3 C 11.879269 8.864711 -4.375007 0
M  V30 4 C 11.434845 7.519915 -4.696408 0
M  V30 5 C 11.445606 6.565892 -3.661967 0
M  V30 6 C 12.286537 9.179543 -3.068256 0
M  V30 7 C 12.271530 8.206821 -2.067566 0
M  V30 8 N 11.034603 7.174179 -5.949189 0 CHG=-1
M  V30 9 C 11.854167 6.905204 -2.360070 0
M  V30 10 C 11.248854 8.148019 -6.836290 0
M  V30 11 H 11.834838 10.169500 -7.382646 0
M  V30 12 H 11.127113 5.558528 -3.871685 0
M  V30 13 H 12.617862 10.169325 -2.834639 0
M  V30 14 H 12.586684 8.461745 -1.069556 0
M  V30 15 H 11.845745 6.156091 -1.582558 0
M  V30 16 H 11.065653 7.861948 -7.893801 0
M  V30 END ATOM
M  V30 BEGIN BOND
M  V30 1 1 2 1
M  V30 2 1 3 2
M  V30 3 1 4 3
M  V30 4 2 5 4
M  V30 5 2 6 3
M  V30 6 1 7 6
M  V30 7 1 8 4
M  V30 8 1 9 5
M  V30 9 2 9 7
M  V30 10 2 10 1
M  V30 11 1 10 8
M  V30 12 1 11 1
M  V30 13 1 12 5
M  V30 14 1 13 6
M  V30 15 1 14 7
M  V30 16 1 15 9
M  V30 17 1 16 10
M  V30 END BOND
M  V30 END CTAB
M  END
>  <i_epik_Tot_Q>  (1) 
-1

>  <i_epik_Tot_abs_Q>  (1) 
1

>  <i_i_glide_confnum>  (1) 
1

>  <i_i_glide_lignum>  (1) 
60

>  <i_i_glide_posenum>  (1) 
197

>  <i_i_glide_rotatable_bonds>  (1) 
0

>  <i_lp_mmshare_version>  (1) 
72125

>  <i_m_source_file_index>  (1) 
54

>  <i_f3d_flags>  (1) 
0

>  <num_sample>  (1) 
100

>  <b_lp_Chiralities_Consistent>  (1) 
1

>  <r_epik_Charging_Adjusted_Penalty>  (1) 
0.016215214782958735

>  <r_epik_Ionization_Penalty>  (1) 
0.016215214782958842

>  <r_epik_Ionization_Penalty_Charging>  (1) 
0

>  <r_epik_Ionization_Penalty_Neutral>  (1) 
0.016215214782958842

>  <r_epik_State_Penalty>  (1) 
0.016215214782958735

>  <r_glide_ring_energy>  (1) 
0

>  <r_i_docking_score>  (1) 
-5.8760613392875589

>  <r_i_glide_ecoul>  (1) 
-2.3874037306624101

>  <r_i_glide_eff_state_penalty>  (1) 
0.016215214782958735

>  <r_i_glide_einternal>  (1) 
0

>  <r_i_glide_emodel>  (1) 
-28.030739694677187

>  <r_i_glide_emodel_strain>  (1) 
1.6547971881664125e-09

>  <r_i_glide_energy>  (1) 
-19.633424536093361

>  <r_i_glide_erotb>  (1) 
0

>  <r_i_glide_esite>  (1) 
0

>  <r_i_glide_evdw>  (1) 
-17.246020805430952

>  <r_i_glide_gscore>  (1) 
-5.8922765540705173

>  <r_i_glide_gscore_strain>  (1) 
0

>  <r_i_glide_hbond>  (1) 
0

>  <r_i_glide_ligand_efficiency>  (1) 
-0.58760613392875594

>  <r_i_glide_ligand_efficiency_ln>  (1) 
-1.7792308672841675

>  <r_i_glide_ligand_efficiency_sa>  (1) 
-1.2659590390116329

>  <r_i_glide_lipo>  (1) 
-2.0486762225732353

>  <r_i_glide_metal>  (1) 
-0

>  <r_i_glide_rewards>  (1) 
-2.6231887316263727

>  <r_lp_Energy>  (1) 
26.292493999999998

>  <s_epik_Chemistry_Notes>  (1) 
This compound has an imine and may undergo hydrolysis.

>  <s_epik_cmdline>  (1) 
J2VwaWtfcHl0aG9uJywgJy1waHQnLCAnMS4wJywgJy1waCcsICc3LjQnLCAnLXRuJywgJzgnLCAnLW1hJywgJzUwMCcsICctaW1hZScsICc8aW5maWxlLm1hZT4nLCAnLW9tYWUnLCAnPG91dGZpbGUubWFlPic=

>  <s_epik_input>  (1) 
TzFbQ0gyXVtDSF09TmMoYzEyKVtjSF1bY0hdW2NIXVtjSF0y

>  <s_glide_docking_method>  (1) 
confgen

>  <s_i_glide_gridfile>  (1) 
gpcr_drd2_6luq_protein_autoprepared_prepared

>  <s_lp_Force_Field>  (1) 
S-OPLS

>  <s_lp_Variant>  (1) 
Pocket2Mol_53_num_sample_100-1

>  <s_m_source_file>  (1) 
generated__ligand_Pocket2Mol_2026-05-06_prepared.sdf

>  <GenAI_Model>  (1) 
Pocket2Mol

>  <Protein>  (1) 
generic_title2

$$$$
Pocket2Mol_54_num_sample_100
     RDKit          3D

  0  0  0  0  0  0  0  0  0  0999 V3000
M  V30 BEGIN CTAB
M  V30 COUNTS 18 19 0 0 1
M  V30 BEGIN ATOM
M  V30 1 C 12.051550 7.286883 -2.423554 0
M  V30 2 O 11.479015 6.401408 -3.460311 0
M  V30 3 C 11.434839 7.220122 -4.533417 0
M  V30 4 C 11.834839 8.493114 -4.316005 0
M  V30 5 C 11.845849 9.445155 -5.349049 0
M  V30 6 C 11.009195 6.796372 -5.803854 0
M  V30 7 C 11.007955 7.723807 -6.870628 0
M  V30 8 O 10.602038 7.340274 -8.115015 0
M  V30 9 C 11.432182 9.055343 -6.641682 0
M  V30 10 C 12.248758 8.786558 -2.940835 0
M  V30 11 H 11.409381 7.270198 -1.542398 0
M  V30 12 H 13.012554 6.869720 -2.121534 0
M  V30 13 H 12.168523 10.457318 -5.160220 0
M  V30 14 H 10.691761 5.776262 -5.961755 0
M  V30 15 H 10.072045 6.556955 -8.118942 0
M  V30 16 H 11.436536 9.769301 -7.450404 0
M  V30 17 H 13.280061 9.134080 -2.879419 0
M  V30 18 H 11.569961 9.494507 -2.463949 0
M  V30 END ATOM
M  V30 BEGIN BOND
M  V30 1 1 2 1
M  V30 2 1 3 2
M  V30 3 2 4 3
M  V30 4 1 5 4
M  V30 5 1 6 3
M  V30 6 2 7 6
M  V30 7 1 8 7
M  V30 8 2 9 5
M  V30 9 1 9 7
M  V30 10 1 10 1
M  V30 11 1 10 4
M  V30 12 1 11 1
M  V30 13 1 12 1
M  V30 14 1 13 5
M  V30 15 1 14 6
M  V30 16 1 15 8
M  V30 17 1 16 9
M  V30 18 1 17 10
M  V30 19 1 18 10
M  V30 END BOND
M  V30 END CTAB
M  END
>  <i_epik_Tot_Q>  (1) 
0

>  <i_epik_Tot_abs_Q>  (1) 
0

>  <i_i_glide_confnum>  (1) 
1

>  <i_i_glide_lignum>  (1) 
61

>  <i_i_glide_posenum>  (1) 
337

>  <i_i_glide_rotatable_bonds>  (1) 
1

>  <i_lp_mmshare_version>  (1) 
72125

>  <i_m_source_file_index>  (1) 
55

>  <i_f3d_flags>  (1) 
0

>  <num_sample>  (1) 
100

>  <b_lp_Chiralities_Consistent>  (1) 
1

>  <r_epik_Charging_Adjusted_Penalty>  (1) 
0

>  <r_epik_Ionization_Penalty>  (1) 
0.0019697177408658601

>  <r_epik_Ionization_Penalty_Charging>  (1) 
0

>  <r_epik_Ionization_Penalty_Neutral>  (1) 
0.0019697177408658601

>  <r_epik_State_Penalty>  (1) 
-0

>  <r_glide_ring_energy>  (1) 
0

>  <r_i_docking_score>  (1) 
-5.8737201581562868

>  <r_i_glide_ecoul>  (1) 
-0.19939687673291639

>  <r_i_glide_eff_state_penalty>  (1) 
-0

>  <r_i_glide_einternal>  (1) 
0.37444176056611661

>  <r_i_glide_emodel>  (1) 
-29.508846341604244

>  <r_i_glide_emodel_strain>  (1) 
0.023816516637950258

>  <r_i_glide_energy>  (1) 
-20.999723118208763

>  <r_i_glide_erotb>  (1) 
0

>  <r_i_glide_esite>  (1) 
0

>  <r_i_glide_evdw>  (1) 
-20.800326241475847

>  <r_i_glide_gscore>  (1) 
-5.8737201581562868

>  <r_i_glide_gscore_strain>  (1) 
0

>  <r_i_glide_hbond>  (1) 
0

>  <r_i_glide_ligand_efficiency>  (1) 
-0.5873720158156287

>  <r_i_glide_ligand_efficiency_ln>  (1) 
-1.7785219737764002

>  <r_i_glide_ligand_efficiency_sa>  (1) 
-1.2654546468271468

>  <r_i_glide_lipo>  (1) 
-2.1400639402733219

>  <r_i_glide_metal>  (1) 
-0

>  <r_i_glide_rewards>  (1) 
-2.6637303742992353

>  <r_lp_Energy>  (1) 
8.5284040000000001

>  <r_lp_tautomer_probability>  (1) 
1

>  <s_epik_cmdline>  (1) 
J2VwaWtfcHl0aG9uJywgJy1waHQnLCAnMS4wJywgJy1waCcsICc3LjQnLCAnLXRuJywgJzgnLCAnLW1hJywgJzUwMCcsICctaW1hZScsICc8aW5maWxlLm1hZT4nLCAnLW9tYWUnLCAnPG91dGZpbGUubWFlPic=

>  <s_epik_input>  (1) 
TzFbQ0gyXVtDSDJdYyhjMTIpW2NIXVtjSF1jKFtjSF0yKVtPSF0=

>  <s_glide_docking_method>  (1) 
confgen

>  <s_i_glide_gridfile>  (1) 
gpcr_drd2_6luq_protein_autoprepared_prepared

>  <s_lp_Force_Field>  (1) 
S-OPLS

>  <s_lp_Variant>  (1) 
Pocket2Mol_54_num_sample_100-1

>  <s_m_source_file>  (1) 
generated__ligand_Pocket2Mol_2026-05-06_prepared.sdf

>  <GenAI_Model>  (1) 
Pocket2Mol

>  <Protein>  (1) 
generic_title2

$$$$
Pocket2Mol_60_num_sample_100
     RDKit          3D

  0  0  0  0  0  0  0  0  0  0999 V3000
M  V30 BEGIN CTAB
M  V30 COUNTS 19 20 0 0 1
M  V30 BEGIN ATOM
M  V30 1 C 9.510895 6.883993 -7.340253 0
M  V30 2 O 10.342657 6.303714 -6.348362 0
M  V30 3 C 10.995423 7.205969 -5.541642 0
M  V30 4 C 10.320864 7.941891 -8.090034 0
M  V30 5 O 10.696806 8.969301 -7.181600 0
M  V30 6 C 11.170826 8.551098 -5.960918 0
M  V30 7 C 11.492046 6.792055 -4.291678 0
M  V30 8 C 12.160237 7.711707 -3.457300 0
M  V30 9 C 11.833660 9.465809 -5.121460 0
M  V30 10 O 12.634841 7.310765 -2.246007 0
M  V30 11 C 12.328170 9.047184 -3.871440 0
M  V30 12 H 9.160761 6.107445 -8.020539 0
M  V30 13 H 8.634853 7.329785 -6.870377 0
M  V30 14 H 11.208913 7.503206 -8.547307 0
M  V30 15 H 9.723258 8.379161 -8.890443 0
M  V30 16 H 11.359442 5.769301 -3.971022 0
M  V30 17 H 11.964327 10.490003 -5.438434 0
M  V30 18 H 13.009912 8.020728 -1.747705 0
M  V30 19 H 12.836904 9.752587 -3.230230 0
M  V30 END ATOM
M  V30 BEGIN BOND
M  V30 1 1 2 1
M  V30 2 1 3 2
M  V30 3 1 4 1
M  V30 4 1 5 4
M  V30 5 2 6 3
M  V30 6 1 6 5
M  V30 7 1 7 3
M  V30 8 2 8 7
M  V30 9 1 9 6
M  V30 10 1 10 8
M  V30 11 1 11 8
M  V30 12 2 11 9
M  V30 13 1 12 1
M  V30 14 1 13 1
M  V30 15 1 14 4
M  V30 16 1 15 4
M  V30 17 1 16 7
M  V30 18 1 17 9
M  V30 19 1 18 10
M  V30 20 1 19 11
M  V30 END BOND
M  V30 END CTAB
M  END
>  <i_epik_Tot_Q>  (1) 
0

>  <i_epik_Tot_abs_Q>  (1) 
0

>  <i_i_glide_confnum>  (1) 
2

>  <i_i_glide_lignum>  (1) 
67

>  <i_i_glide_posenum>  (1) 
157

>  <i_i_glide_rotatable_bonds>  (1) 
1

>  <i_lp_mmshare_version>  (1) 
72125

>  <i_m_source_file_index>  (1) 
61

>  <i_f3d_flags>  (1) 
0

>  <num_sample>  (1) 
100

>  <b_lp_Chiralities_Consistent>  (1) 
1

>  <r_epik_Charging_Adjusted_Penalty>  (1) 
0

>  <r_epik_Ionization_Penalty>  (1) 
0.0014130578134093086

>  <r_epik_Ionization_Penalty_Charging>  (1) 
0

>  <r_epik_Ionization_Penalty_Neutral>  (1) 
0.0014130578134093086

>  <r_epik_State_Penalty>  (1) 
-0

>  <r_glide_ring_energy>  (1) 
0.0030884842251178704

>  <r_i_docking_score>  (1) 
-5.8724766864660607

>  <r_i_glide_ecoul>  (1) 
-0.95450296568397741

>  <r_i_glide_eff_state_penalty>  (1) 
-0

>  <r_i_glide_einternal>  (1) 
0.0096099244386642635

>  <r_i_glide_emodel>  (1) 
-32.285886367777302

>  <r_i_glide_emodel_strain>  (1) 
0

>  <r_i_glide_energy>  (1) 
-23.41135262270544

>  <r_i_glide_erotb>  (1) 
0

>  <r_i_glide_esite>  (1) 
0

>  <r_i_glide_evdw>  (1) 
-22.456849657021461

>  <r_i_glide_gscore>  (1) 
-5.8724766864660607

>  <r_i_glide_gscore_strain>  (1) 
0

>  <r_i_glide_hbond>  (1) 
0

>  <r_i_glide_ligand_efficiency>  (1) 
-0.53386151695146011

>  <r_i_glide_ligand_efficiency_ln>  (1) 
-1.7282688885316126

>  <r_i_glide_ligand_efficiency_sa>  (1) 
-1.1872973848211805

>  <r_i_glide_lipo>  (1) 
-1.8541370778472552

>  <r_i_glide_metal>  (1) 
-0

>  <r_i_glide_rewards>  (1) 
-2.7523216809151361

>  <r_lp_Energy>  (1) 
13.915925999999999

>  <r_lp_tautomer_probability>  (1) 
1

>  <s_epik_cmdline>  (1) 
J2VwaWtfcHl0aG9uJywgJy1waHQnLCAnMS4wJywgJy1waCcsICc3LjQnLCAnLXRuJywgJzgnLCAnLW1hJywgJzUwMCcsICctaW1hZScsICc8aW5maWxlLm1hZT4nLCAnLW9tYWUnLCAnPG91dGZpbGUubWFlPic=

>  <s_epik_input>  (1) 
TzFbQ0gyXVtDSDJdT2MoYzEyKVtjSF1bY0hdYyhbY0hdMilbT0hd

>  <s_glide_docking_method>  (1) 
confgen

>  <s_i_glide_gridfile>  (1) 
gpcr_drd2_6luq_protein_autoprepared_prepared

>  <s_lp_Force_Field>  (1) 
S-OPLS

>  <s_lp_Variant>  (1) 
Pocket2Mol_60_num_sample_100-1

>  <s_m_source_file>  (1) 
generated__ligand_Pocket2Mol_2026-05-06_prepared.sdf

>  <GenAI_Model>  (1) 
Pocket2Mol

>  <Protein>  (1) 
generic_title2

$$$$
Pocket2Mol_76_num_sample_100
     RDKit          3D

  0  0  0  0  0  0  0  0  0  0999 V3000
M  V30 BEGIN CTAB
M  V30 COUNTS 20 21 0 0 1
M  V30 BEGIN ATOM
M  V30 1 C 9.554615 6.678060 -7.925363 0
M  V30 2 O 10.293870 6.110889 -6.857725 0
M  V30 3 C 10.865143 7.015187 -5.997080 0
M  V30 4 C 10.424778 7.736701 -8.601501 0
M  V30 5 O 10.707573 8.766968 -7.665553 0
M  V30 6 C 11.068929 8.357143 -6.401493 0
M  V30 7 C 11.251800 6.604377 -4.706895 0
M  V30 8 C 11.834845 7.526214 -3.816748 0
M  V30 9 C 11.644927 9.278785 -5.505876 0
M  V30 10 O 11.834839 10.569301 -5.891871 0
M  V30 11 O 12.210473 7.124294 -2.566890 0
M  V30 12 C 12.028227 8.864821 -4.214053 0
M  V30 13 H 9.276275 5.895047 -8.630823 0
M  V30 14 H 8.634843 7.117878 -7.541660 0
M  V30 15 H 11.354596 7.301855 -8.970819 0
M  V30 16 H 9.902795 8.168592 -9.455814 0
M  V30 17 H 11.097875 5.582834 -4.400525 0
M  V30 18 H 12.102734 11.144722 -5.194217 0
M  V30 19 H 11.987403 6.223281 -2.383453 0
M  V30 20 H 12.473324 9.571336 -3.528496 0
M  V30 END ATOM
M  V30 BEGIN BOND
M  V30 1 1 2 1
M  V30 2 1 3 2
M  V30 3 1 4 1
M  V30 4 1 5 4
M  V30 5 1 6 3
M  V30 6 1 6 5
M  V30 7 2 7 3
M  V30 8 1 8 7
M  V30 9 2 9 6
M  V30 10 1 10 9
M  V30 11 1 11 8
M  V30 12 2 12 8
M  V30 13 1 12 9
M  V30 14 1 13 1
M  V30 15 1 14 1
M  V30 16 1 15 4
M  V30 17 1 16 4
M  V30 18 1 17 7
M  V30 19 1 18 10
M  V30 20 1 19 11
M  V30 21 1 20 12
M  V30 END BOND
M  V30 END CTAB
M  END
>  <i_epik_Tot_Q>  (1) 
0

>  <i_epik_Tot_abs_Q>  (1) 
0

>  <i_i_glide_confnum>  (1) 
2

>  <i_i_glide_lignum>  (1) 
83

>  <i_i_glide_posenum>  (1) 
143

>  <i_i_glide_rotatable_bonds>  (1) 
2

>  <i_lp_mmshare_version>  (1) 
72125

>  <i_m_source_file_index>  (1) 
77

>  <i_f3d_flags>  (1) 
0

>  <num_sample>  (1) 
100

>  <b_lp_Chiralities_Consistent>  (1) 
1

>  <r_epik_Charging_Adjusted_Penalty>  (1) 
0

>  <r_epik_Ionization_Penalty>  (1) 
0.012400157081266662

>  <r_epik_Ionization_Penalty_Charging>  (1) 
0

>  <r_epik_Ionization_Penalty_Neutral>  (1) 
0.012400157081266662

>  <r_epik_State_Penalty>  (1) 
-0

>  <r_glide_ring_energy>  (1) 
0.0030882677572799519

>  <r_i_docking_score>  (1) 
-5.8677412400316014

>  <r_i_glide_ecoul>  (1) 
-1.5304495246550989

>  <r_i_glide_eff_state_penalty>  (1) 
-0

>  <r_i_glide_einternal>  (1) 
0.049179466777901998

>  <r_i_glide_emodel>  (1) 
-33.816048650308886

>  <r_i_glide_emodel_strain>  (1) 
0

>  <r_i_glide_energy>  (1) 
-23.747891107358569

>  <r_i_glide_erotb>  (1) 
0

>  <r_i_glide_esite>  (1) 
0

>  <r_i_glide_evdw>  (1) 
-22.217441582703469

>  <r_i_glide_gscore>  (1) 
-5.8677412400316014

>  <r_i_glide_gscore_strain>  (1) 
0

>  <r_i_glide_hbond>  (1) 
0

>  <r_i_glide_ligand_efficiency>  (1) 
-0.48897843666930013

>  <r_i_glide_ligand_efficiency_ln>  (1) 
-1.6837585134134245

>  <r_i_glide_ligand_efficiency_sa>  (1) 
-1.1194811615136206

>  <r_i_glide_lipo>  (1) 
-1.6808692138172305

>  <r_i_glide_metal>  (1) 
-0

>  <r_i_glide_rewards>  (1) 
-2.8464325183809334

>  <r_lp_Energy>  (1) 
12.367407

>  <r_lp_tautomer_probability>  (1) 
1

>  <s_epik_cmdline>  (1) 
J2VwaWtfcHl0aG9uJywgJy1waHQnLCAnMS4wJywgJy1waCcsICc3LjQnLCAnLXRuJywgJzgnLCAnLW1hJywgJzUwMCcsICctaW1hZScsICc8aW5maWxlLm1hZT4nLCAnLW9tYWUnLCAnPG91dGZpbGUubWFlPic=

>  <s_epik_input>  (1) 
TzFbQ0gyXVtDSDJdT2MoYzEyKWMoW09IXSlbY0hdYyhbY0hdMilbT0hd

>  <s_glide_docking_method>  (1) 
confgen

>  <s_i_glide_gridfile>  (1) 
gpcr_drd2_6luq_protein_autoprepared_prepared

>  <s_lp_Force_Field>  (1) 
S-OPLS

>  <s_lp_Variant>  (1) 
Pocket2Mol_76_num_sample_100-1

>  <s_m_source_file>  (1) 
generated__ligand_Pocket2Mol_2026-05-06_prepared.sdf

>  <GenAI_Model>  (1) 
Pocket2Mol

>  <Protein>  (1) 
generic_title2

$$$$
Pocket2Mol_46_num_sample_100
     RDKit          3D

  0  0  0  0  0  0  0  0  0  0999 V3000
M  V30 BEGIN CTAB
M  V30 COUNTS 18 19 0 0 1
M  V30 BEGIN ATOM
M  V30 1 C 9.700641 6.874649 -7.587655 0
M  V30 2 O 10.402750 6.305102 -6.491749 0
M  V30 3 C 11.010664 7.209254 -5.649844 0
M  V30 4 C 11.436701 6.794466 -4.375413 0
M  V30 5 C 10.598180 7.923341 -8.245089 0
M  V30 6 C 11.212040 8.554956 -6.060078 0
M  V30 7 O 10.817200 8.969301 -7.309612 0
M  V30 8 C 12.069697 7.710722 -3.507332 0
M  V30 9 C 11.828646 9.468883 -5.185311 0
M  V30 10 C 12.261633 9.047569 -3.912742 0
M  V30 11 H 9.462828 6.083108 -8.298054 0
M  V30 12 H 8.756330 7.313485 -7.256076 0
M  V30 13 H 11.284933 5.774212 -4.064341 0
M  V30 14 H 11.555338 7.494656 -8.547482 0
M  V30 15 H 10.124774 8.324462 -9.141679 0
M  V30 16 H 12.401808 7.389500 -2.533069 0
M  V30 17 H 11.979944 10.494363 -5.497384 0
M  V30 18 H 12.746494 9.748416 -3.249086 0
M  V30 END ATOM
M  V30 BEGIN BOND
M  V30 1 1 2 1
M  V30 2 1 3 2
M  V30 3 2 4 3
M  V30 4 1 5 1
M  V30 5 1 6 3
M  V30 6 1 7 5
M  V30 7 1 7 6
M  V30 8 1 8 4
M  V30 9 2 9 6
M  V30 10 2 10 8
M  V30 11 1 10 9
M  V30 12 1 11 1
M  V30 13 1 12 1
M  V30 14 1 13 4
M  V30 15 1 14 5
M  V30 16 1 15 5
M  V30 17 1 16 8
M  V30 18 1 17 9
M  V30 19 1 18 10
M  V30 END BOND
M  V30 END CTAB
M  END
>  <i_epik_Tot_Q>  (1) 
0

>  <i_epik_Tot_abs_Q>  (1) 
0

>  <i_i_glide_confnum>  (1) 
2

>  <i_i_glide_lignum>  (1) 
52

>  <i_i_glide_posenum>  (1) 
174

>  <i_i_glide_rotatable_bonds>  (1) 
0

>  <i_lp_mmshare_version>  (1) 
72125

>  <i_m_source_file_index>  (1) 
47

>  <i_f3d_flags>  (1) 
0

>  <num_sample>  (1) 
100

>  <b_lp_Chiralities_Consistent>  (1) 
1

>  <r_epik_Charging_Adjusted_Penalty>  (1) 
0

>  <r_epik_Ionization_Penalty>  (1) 
0

>  <r_epik_Ionization_Penalty_Charging>  (1) 
0

>  <r_epik_Ionization_Penalty_Neutral>  (1) 
0

>  <r_epik_State_Penalty>  (1) 
-0

>  <r_glide_ring_energy>  (1) 
0.0030885007139812575

>  <r_i_docking_score>  (1) 
-5.8602462942647957

>  <r_i_glide_ecoul>  (1) 
-0.97218606802119956

>  <r_i_glide_eff_state_penalty>  (1) 
-0

>  <r_i_glide_einternal>  (1) 
0

>  <r_i_glide_emodel>  (1) 
-28.590249299344869

>  <r_i_glide_emodel_strain>  (1) 
0

>  <r_i_glide_energy>  (1) 
-20.702490689687416

>  <r_i_glide_erotb>  (1) 
0

>  <r_i_glide_esite>  (1) 
0

>  <r_i_glide_evdw>  (1) 
-19.730304621666217

>  <r_i_glide_gscore>  (1) 
-5.8602462942647957

>  <r_i_glide_gscore_strain>  (1) 
0

>  <r_i_glide_hbond>  (1) 
0

>  <r_i_glide_ligand_efficiency>  (1) 
-0.58602462942647959

>  <r_i_glide_ligand_efficiency_ln>  (1) 
-1.7744421806712736

>  <r_i_glide_ligand_efficiency_sa>  (1) 
-1.2625517908494872

>  <r_i_glide_lipo>  (1) 
-1.8735282259402215

>  <r_i_glide_metal>  (1) 
-0

>  <r_i_glide_rewards>  (1) 
-2.8543749270380836

>  <r_lp_Energy>  (1) 
16.729797999999999

>  <r_lp_tautomer_probability>  (1) 
1

>  <s_epik_cmdline>  (1) 
J2VwaWtfcHl0aG9uJywgJy1waHQnLCAnMS4wJywgJy1waCcsICc3LjQnLCAnLXRuJywgJzgnLCAnLW1hJywgJzUwMCcsICctaW1hZScsICc8aW5maWxlLm1hZT4nLCAnLW9tYWUnLCAnPG91dGZpbGUubWFlPic=

>  <s_epik_input>  (1) 
TzFbQ0gyXVtDSDJdT2MoYzEyKVtjSF1bY0hdW2NIXVtjSF0y

>  <s_glide_docking_method>  (1) 
confgen

>  <s_i_glide_gridfile>  (1) 
gpcr_drd2_6luq_protein_autoprepared_prepared

>  <s_lp_Force_Field>  (1) 
S-OPLS

>  <s_lp_Variant>  (1) 
Pocket2Mol_46_num_sample_100-1

>  <s_m_source_file>  (1) 
generated__ligand_Pocket2Mol_2026-05-06_prepared.sdf

>  <GenAI_Model>  (1) 
Pocket2Mol

>  <Protein>  (1) 
generic_title2

$$$$
Pocket2Mol_73_num_sample_100
     RDKit          3D

  0  0  0  0  0  0  0  0  0  0999 V3000
M  V30 BEGIN CTAB
M  V30 COUNTS 20 21 0 0 1
M  V30 BEGIN ATOM
M  V30 1 C 12.285606 9.186182 -4.433466 0
M  V30 2 O 11.435008 7.980384 -4.480522 0
M  V30 3 C 11.065539 7.954347 -5.779836 0
M  V30 4 C 11.650975 8.876117 -6.572264 0
M  V30 5 C 11.362257 8.959864 -7.943164 0
M  V30 6 C 12.584046 9.769310 -5.891437 0
M  V30 7 C 10.132405 7.040223 -6.291741 0
M  V30 8 C 10.416624 8.071136 -8.498961 0
M  V30 9 N 10.086744 8.169301 -9.858126 0
M  V30 10 C 9.795713 7.099037 -7.661363 0
M  V30 11 O 9.434821 7.047505 -10.384111 0
M  V30 12 H 13.212688 8.971283 -3.902469 0
M  V30 13 H 11.756151 9.933347 -3.840881 0
M  V30 14 H 11.836043 9.708724 -8.559435 0
M  V30 15 H 13.610990 9.611252 -6.223003 0
M  V30 16 H 12.286693 10.812266 -6.005370 0
M  V30 17 H 9.669478 6.308935 -5.644682 0
M  V30 18 H 10.765648 8.544919 -10.504029 0
M  V30 19 H 9.066821 6.411610 -8.064992 0
M  V30 20 H 8.503426 7.216146 -10.225463 0
M  V30 END ATOM
M  V30 BEGIN BOND
M  V30 1 1 2 1
M  V30 2 1 3 2
M  V30 3 2 4 3
M  V30 4 1 5 4
M  V30 5 1 6 1
M  V30 6 1 6 4
M  V30 7 1 7 3
M  V30 8 2 8 5
M  V30 9 1 9 8
M  V30 10 2 10 7
M  V30 11 1 10 8
M  V30 12 1 11 9
M  V30 13 1 12 1
M  V30 14 1 13 1
M  V30 15 1 14 5
M  V30 16 1 15 6
M  V30 17 1 16 6
M  V30 18 1 17 7
M  V30 19 1 18 9
M  V30 20 1 19 10
M  V30 21 1 20 11
M  V30 END BOND
M  V30 END CTAB
M  END
>  <i_epik_Tot_Q>  (1) 
0

>  <i_epik_Tot_abs_Q>  (1) 
0

>  <i_i_glide_confnum>  (1) 
1

>  <i_i_glide_lignum>  (1) 
80

>  <i_i_glide_posenum>  (1) 
344

>  <i_i_glide_rotatable_bonds>  (1) 
2

>  <i_lp_mmshare_version>  (1) 
72125

>  <i_m_source_file_index>  (1) 
74

>  <i_f3d_flags>  (1) 
0

>  <num_sample>  (1) 
100

>  <b_lp_Chiralities_Consistent>  (1) 
1

>  <r_epik_Charging_Adjusted_Penalty>  (1) 
0

>  <r_epik_Ionization_Penalty>  (1) 
0.00049506315318442675

>  <r_epik_Ionization_Penalty_Charging>  (1) 
0

>  <r_epik_Ionization_Penalty_Neutral>  (1) 
0.00049506315318442675

>  <r_epik_State_Penalty>  (1) 
-0

>  <r_glide_ring_energy>  (1) 
0

>  <r_i_docking_score>  (1) 
-5.8469554082911133

>  <r_i_glide_ecoul>  (1) 
-2.9028645448593453

>  <r_i_glide_eff_state_penalty>  (1) 
-0

>  <r_i_glide_einternal>  (1) 
0.72280339446036557

>  <r_i_glide_emodel>  (1) 
-32.632661364236746

>  <r_i_glide_emodel_strain>  (1) 
0.060854277951307267

>  <r_i_glide_energy>  (1) 
-22.771279078226843

>  <r_i_glide_erotb>  (1) 
0

>  <r_i_glide_esite>  (1) 
-0.071944697218997239

>  <r_i_glide_evdw>  (1) 
-19.868414533367499

>  <r_i_glide_gscore>  (1) 
-5.8469554082911133

>  <r_i_glide_gscore_strain>  (1) 
0

>  <r_i_glide_hbond>  (1) 
-0.16

>  <r_i_glide_ligand_efficiency>  (1) 
-0.53154140075373757

>  <r_i_glide_ligand_efficiency_ln>  (1) 
-1.7207579807119231

>  <r_i_glide_ligand_efficiency_sa>  (1) 
-1.1821374925896382

>  <r_i_glide_lipo>  (1) 
-1.5484410635346584

>  <r_i_glide_metal>  (1) 
-0

>  <r_i_glide_rewards>  (1) 
-2.6377192391401816

>  <r_lp_Energy>  (1) 
14.863064999999999

>  <r_lp_tautomer_probability>  (1) 
1

>  <s_epik_Chemistry_Notes>  (1) 
This compound has a N-S or N-O group and may undergo hydrolysis at high or low pH.

>  <s_epik_cmdline>  (1) 
J2VwaWtfcHl0aG9uJywgJy1waHQnLCAnMS4wJywgJy1waCcsICc3LjQnLCAnLXRuJywgJzgnLCAnLW1hJywgJzUwMCcsICctaW1hZScsICc8aW5maWxlLm1hZT4nLCAnLW9tYWUnLCAnPG91dGZpbGUubWFlPic=

>  <s_epik_input>  (1) 
TzFbQ0gyXVtDSDJdYyhjMTIpW2NIXWMoW05IXVtPSF0pW2NIXVtjSF0y

>  <s_glide_docking_method>  (1) 
confgen

>  <s_i_glide_gridfile>  (1) 
gpcr_drd2_6luq_protein_autoprepared_prepared

>  <s_lp_Force_Field>  (1) 
S-OPLS

>  <s_lp_Variant>  (1) 
Pocket2Mol_73_num_sample_100-1

>  <s_m_source_file>  (1) 
generated__ligand_Pocket2Mol_2026-05-06_prepared.sdf

>  <GenAI_Model>  (1) 
Pocket2Mol

>  <Protein>  (1) 
generic_title2

$$$$
Pocket2Mol_43_num_sample_100
     RDKit          3D

  0  0  0  0  0  0  0  0  0  0999 V3000
M  V30 BEGIN CTAB
M  V30 COUNTS 16 17 0 0 1
M  V30 BEGIN ATOM
M  V30 1 C 12.499821 8.558394 -1.952837 0
M  V30 2 O 12.229353 9.596368 -3.004868 0
M  V30 3 C 11.836633 8.853282 -4.102718 0
M  V30 4 C 11.834839 7.545626 -3.884204 0
M  V30 5 C 11.426648 6.613312 -4.842102 0
M  V30 6 C 11.437461 9.391579 -5.335644 0
M  V30 7 C 11.022734 8.499609 -6.359122 0
M  V30 8 C 11.015586 7.095774 -6.108742 0
M  V30 9 N 12.243620 7.287071 -2.650387 0
M  V30 10 H 13.539342 8.595633 -1.626500 0
M  V30 11 H 11.822194 8.661529 -1.105374 0
M  V30 12 H 11.429732 5.558242 -4.624998 0
M  V30 13 H 11.439247 10.458905 -5.499171 0
M  V30 14 H 10.707814 8.881889 -7.319138 0
M  V30 15 H 10.697693 6.406169 -6.877626 0
M  V30 16 H 11.743464 6.572560 -2.139834 0
M  V30 END ATOM
M  V30 BEGIN BOND
M  V30 1 1 2 1
M  V30 2 1 3 2
M  V30 3 1 4 3
M  V30 4 2 5 4
M  V30 5 2 6 3
M  V30 6 1 7 6
M  V30 7 1 8 5
M  V30 8 2 8 7
M  V30 9 1 9 1
M  V30 10 1 9 4
M  V30 11 1 10 1
M  V30 12 1 11 1
M  V30 13 1 12 5
M  V30 14 1 13 6
M  V30 15 1 14 7
M  V30 16 1 15 8
M  V30 17 1 16 9
M  V30 END BOND
M  V30 END CTAB
M  END
>  <i_epik_Tot_Q>  (1) 
0

>  <i_epik_Tot_abs_Q>  (1) 
0

>  <i_i_glide_confnum>  (1) 
1

>  <i_i_glide_lignum>  (1) 
48

>  <i_i_glide_posenum>  (1) 
247

>  <i_i_glide_rotatable_bonds>  (1) 
0

>  <i_lp_mmshare_version>  (1) 
72125

>  <i_m_source_file_index>  (1) 
44

>  <i_f3d_flags>  (1) 
0

>  <num_sample>  (1) 
100

>  <b_lp_Chiralities_Consistent>  (1) 
1

>  <r_epik_Charging_Adjusted_Penalty>  (1) 
0

>  <r_epik_Ionization_Penalty>  (1) 
3.929707007381515e-06

>  <r_epik_Ionization_Penalty_Charging>  (1) 
0

>  <r_epik_Ionization_Penalty_Neutral>  (1) 
3.929707007381515e-06

>  <r_epik_State_Penalty>  (1) 
-0

>  <r_glide_ring_energy>  (1) 
0

>  <r_i_docking_score>  (1) 
-5.8400686466777261

>  <r_i_glide_ecoul>  (1) 
-1.3641599307508272

>  <r_i_glide_eff_state_penalty>  (1) 
-0

>  <r_i_glide_einternal>  (1) 
0

>  <r_i_glide_emodel>  (1) 
-28.534667777144985

>  <r_i_glide_emodel_strain>  (1) 
0

>  <r_i_glide_energy>  (1) 
-21.031434450908012

>  <r_i_glide_erotb>  (1) 
0

>  <r_i_glide_esite>  (1) 
0

>  <r_i_glide_evdw>  (1) 
-19.667274520157186

>  <r_i_glide_gscore>  (1) 
-5.8400686466777261

>  <r_i_glide_gscore_strain>  (1) 
0

>  <r_i_glide_hbond>  (1) 
0

>  <r_i_glide_ligand_efficiency>  (1) 
-0.64889651629752509

>  <r_i_glide_ligand_efficiency_ln>  (1) 
-1.8266057029823668

>  <r_i_glide_ligand_efficiency_sa>  (1) 
-1.3497591463852185

>  <r_i_glide_lipo>  (1) 
-1.602080931057243

>  <r_i_glide_metal>  (1) 
-0

>  <r_i_glide_rewards>  (1) 
-3.0499999999999998

>  <r_lp_Energy>  (1) 
10.457737999999999

>  <r_lp_tautomer_probability>  (1) 
1

>  <s_epik_Chemistry_Notes>  (1) 
This compound contains an acetal/aminal-like group ( X-CH(R)-Y where X, Y are N, S, or O) that may be acid/base labile, releasing an aldehyde.

>  <s_epik_cmdline>  (1) 
J2VwaWtfcHl0aG9uJywgJy1waHQnLCAnMS4wJywgJy1waCcsICc3LjQnLCAnLXRuJywgJzgnLCAnLW1hJywgJzUwMCcsICctaW1hZScsICc8aW5maWxlLm1hZT4nLCAnLW9tYWUnLCAnPG91dGZpbGUubWFlPic=

>  <s_epik_input>  (1) 
TzFbQ0gyXVtOSF1jKGMxMilbY0hdW2NIXVtjSF1bY0hdMg==

>  <s_glide_docking_method>  (1) 
confgen

>  <s_i_glide_gridfile>  (1) 
gpcr_drd2_6luq_protein_autoprepared_prepared

>  <s_lp_Force_Field>  (1) 
S-OPLS

>  <s_lp_Variant>  (1) 
Pocket2Mol_43_num_sample_100-1

>  <s_m_source_file>  (1) 
generated__ligand_Pocket2Mol_2026-05-06_prepared.sdf

>  <GenAI_Model>  (1) 
Pocket2Mol

>  <Protein>  (1) 
generic_title2

$$$$
Pocket2Mol_96_num_sample_100
     RDKit          3D

  0  0  0  0  0  0  0  0  0  0999 V3000
M  V30 BEGIN CTAB
M  V30 COUNTS 20 21 0 0 1
M  V30 BEGIN ATOM
M  V30 1 C 11.998872 7.871918 -3.832585 0
M  V30 2 O 11.435069 8.966947 -4.525812 0
M  V30 3 C 11.434629 6.569469 -4.388098 0
M  V30 4 O 10.234839 6.841199 -5.091985 0
M  V30 5 C 11.803415 9.237620 -5.777537 0
M  V30 6 C 10.426026 7.160844 -6.410544 0
M  V30 7 C 9.854842 6.339885 -7.402014 0
M  V30 8 O 12.540311 10.169293 -6.067006 0
M  V30 9 C 11.199058 8.300489 -6.794717 0
M  V30 10 C 10.055071 6.625788 -8.763069 0
M  V30 11 C 10.830321 7.733614 -9.145378 0
M  V30 12 F 11.029352 7.997699 -10.457119 0
M  V30 13 C 11.400521 8.568393 -8.167888 0
M  V30 14 H 13.088186 7.884900 -3.879282 0
M  V30 15 H 11.727661 7.970207 -2.781387 0
M  V30 16 H 12.166316 6.084994 -5.038820 0
M  V30 17 H 11.233334 5.871256 -3.576320 0
M  V30 18 H 9.264620 5.483003 -7.115210 0
M  V30 19 H 9.616035 5.989066 -9.516536 0
M  V30 20 H 11.989034 9.419919 -8.472300 0
M  V30 END ATOM
M  V30 BEGIN BOND
M  V30 1 1 2 1
M  V30 2 1 3 1
M  V30 3 1 4 3
M  V30 4 1 5 2
M  V30 5 1 6 4
M  V30 6 1 7 6
M  V30 7 2 8 5
M  V30 8 1 9 5
M  V30 9 2 9 6
M  V30 10 2 10 7
M  V30 11 1 11 10
M  V30 12 1 12 11
M  V30 13 1 13 9
M  V30 14 2 13 11
M  V30 15 1 14 1
M  V30 16 1 15 1
M  V30 17 1 16 3
M  V30 18 1 17 3
M  V30 19 1 18 7
M  V30 20 1 19 10
M  V30 21 1 20 13
M  V30 END BOND
M  V30 END CTAB
M  END
>  <i_epik_Tot_Q>  (1) 
0

>  <i_epik_Tot_abs_Q>  (1) 
0

>  <i_i_glide_confnum>  (1) 
5

>  <i_i_glide_lignum>  (1) 
105

>  <i_i_glide_posenum>  (1) 
176

>  <i_i_glide_rotatable_bonds>  (1) 
0

>  <i_lp_mmshare_version>  (1) 
72125

>  <i_m_source_file_index>  (1) 
97

>  <i_f3d_flags>  (1) 
0

>  <num_sample>  (1) 
100

>  <b_lp_Chiralities_Consistent>  (1) 
1

>  <r_epik_Charging_Adjusted_Penalty>  (1) 
0

>  <r_epik_Ionization_Penalty>  (1) 
0

>  <r_epik_Ionization_Penalty_Charging>  (1) 
0

>  <r_epik_Ionization_Penalty_Neutral>  (1) 
0

>  <r_epik_State_Penalty>  (1) 
-0

>  <r_glide_ring_energy>  (1) 
1.039265508099362

>  <r_i_docking_score>  (1) 
-5.8376536107540531

>  <r_i_glide_ecoul>  (1) 
-0.47888975482333745

>  <r_i_glide_eff_state_penalty>  (1) 
-0

>  <r_i_glide_einternal>  (1) 
0

>  <r_i_glide_emodel>  (1) 
-30.597895322651091

>  <r_i_glide_emodel_strain>  (1) 
0.70943136133256246

>  <r_i_glide_energy>  (1) 
-22.312818921826235

>  <r_i_glide_erotb>  (1) 
0

>  <r_i_glide_esite>  (1) 
0

>  <r_i_glide_evdw>  (1) 
-21.833929167002896

>  <r_i_glide_gscore>  (1) 
-5.8376536107540531

>  <r_i_glide_gscore_strain>  (1) 
0

>  <r_i_glide_hbond>  (1) 
0

>  <r_i_glide_ligand_efficiency>  (1) 
-0.44905027775031175

>  <r_i_glide_ligand_efficiency_ln>  (1) 
-1.6375137555700991

>  <r_i_glide_ligand_efficiency_sa>  (1) 
-1.0558674946049489

>  <r_i_glide_lipo>  (1) 
-1.1803758391690717

>  <r_i_glide_metal>  (1) 
-0

>  <r_i_glide_rewards>  (1) 
-3.493747850011335

>  <r_lp_Energy>  (1) 
17.467690999999999

>  <r_lp_tautomer_probability>  (1) 
1

>  <s_epik_Chemistry_Notes>  (1) 
This compound has an ester and may undergo hydrolysis at high or low pH.

>  <s_epik_cmdline>  (1) 
J2VwaWtfcHl0aG9uJywgJy1waHQnLCAnMS4wJywgJy1waCcsICc3LjQnLCAnLXRuJywgJzgnLCAnLW1hJywgJzUwMCcsICctaW1hZScsICc8aW5maWxlLm1hZT4nLCAnLW9tYWUnLCAnPG91dGZpbGUubWFlPic=

>  <s_epik_input>  (1) 
TzFbQ0gyXVtDSDJdT0MoPU8pYyhjMTIpW2NIXWMoRilbY0hdW2NIXTI=

>  <s_glide_docking_method>  (1) 
confgen

>  <s_i_glide_gridfile>  (1) 
gpcr_drd2_6luq_protein_autoprepared_prepared

>  <s_lp_Force_Field>  (1) 
S-OPLS

>  <s_lp_Variant>  (1) 
Pocket2Mol_96_num_sample_100-1

>  <s_m_source_file>  (1) 
generated__ligand_Pocket2Mol_2026-05-06_prepared.sdf

>  <GenAI_Model>  (1) 
Pocket2Mol

>  <Protein>  (1) 
generic_title2

$$$$
Pocket2Mol_43_num_sample_100
     RDKit          3D

  0  0  0  0  0  0  0  0  0  0999 V3000
M  V30 BEGIN CTAB
M  V30 COUNTS 16 17 0 0 1
M  V30 BEGIN ATOM
M  V30 1 C 12.572001 8.361022 -1.920823 0
M  V30 2 O 12.271147 7.058538 -2.609652 0
M  V30 3 C 11.834838 7.454101 -3.863449 0
M  V30 4 C 11.834839 8.767887 -4.034360 0
M  V30 5 C 11.465419 9.383303 -5.236210 0
M  V30 6 C 11.434824 6.583158 -4.885586 0
M  V30 7 C 11.034839 7.138312 -6.129370 0
M  V30 8 C 11.053352 8.553309 -6.307410 0
M  V30 9 N 12.234383 9.369379 -2.927393 0
M  V30 10 H 11.924735 8.505561 -1.056240 0
M  V30 11 H 13.620207 8.476917 -1.652151 0
M  V30 12 H 11.484793 10.458226 -5.341349 0
M  V30 13 H 11.436915 5.517254 -4.731863 0
M  V30 14 H 10.723016 6.492260 -6.936874 0
M  V30 15 H 10.754861 8.987145 -7.250083 0
M  V30 16 H 12.859785 10.156549 -3.019251 0
M  V30 END ATOM
M  V30 BEGIN BOND
M  V30 1 1 2 1
M  V30 2 1 3 2
M  V30 3 1 4 3
M  V30 4 2 5 4
M  V30 5 2 6 3
M  V30 6 1 7 6
M  V30 7 1 8 5
M  V30 8 2 8 7
M  V30 9 1 9 1
M  V30 10 1 9 4
M  V30 11 1 10 1
M  V30 12 1 11 1
M  V30 13 1 12 5
M  V30 14 1 13 6
M  V30 15 1 14 7
M  V30 16 1 15 8
M  V30 17 1 16 9
M  V30 END BOND
M  V30 END CTAB
M  END
>  <i_epik_Tot_Q>  (1) 
0

>  <i_epik_Tot_abs_Q>  (1) 
0

>  <i_i_glide_confnum>  (1) 
1

>  <i_i_glide_lignum>  (1) 
48

>  <i_i_glide_posenum>  (1) 
210

>  <i_i_glide_rotatable_bonds>  (1) 
0

>  <i_lp_mmshare_version>  (1) 
72125

>  <i_m_source_file_index>  (1) 
44

>  <i_f3d_flags>  (1) 
0

>  <num_sample>  (1) 
100

>  <b_lp_Chiralities_Consistent>  (1) 
1

>  <r_epik_Charging_Adjusted_Penalty>  (1) 
0

>  <r_epik_Ionization_Penalty>  (1) 
3.929707007381515e-06

>  <r_epik_Ionization_Penalty_Charging>  (1) 
0

>  <r_epik_Ionization_Penalty_Neutral>  (1) 
3.929707007381515e-06

>  <r_epik_State_Penalty>  (1) 
-0

>  <r_glide_ring_energy>  (1) 
0

>  <r_i_docking_score>  (1) 
-5.8281866020257498

>  <r_i_glide_ecoul>  (1) 
-0.44932135882323687

>  <r_i_glide_eff_state_penalty>  (1) 
-0

>  <r_i_glide_einternal>  (1) 
0

>  <r_i_glide_emodel>  (1) 
-27.225064171082231

>  <r_i_glide_emodel_strain>  (1) 
0

>  <r_i_glide_energy>  (1) 
-19.737096719068717

>  <r_i_glide_erotb>  (1) 
0

>  <r_i_glide_esite>  (1) 
0

>  <r_i_glide_evdw>  (1) 
-19.28777536024548

>  <r_i_glide_gscore>  (1) 
-5.8281866020257498

>  <r_i_glide_gscore_strain>  (1) 
0

>  <r_i_glide_hbond>  (1) 
-0.070333570137166443

>  <r_i_glide_ligand_efficiency>  (1) 
-0.64757628911397225

>  <r_i_glide_ligand_efficiency_ln>  (1) 
-1.822889340754889

>  <r_i_glide_ligand_efficiency_sa>  (1) 
-1.3470129631779566

>  <r_i_glide_lipo>  (1) 
-1.5935126398244659

>  <r_i_glide_metal>  (1) 
-0

>  <r_i_glide_rewards>  (1) 
-3.1325534202283571

>  <r_lp_Energy>  (1) 
10.457737999999999

>  <r_lp_tautomer_probability>  (1) 
1

>  <s_epik_Chemistry_Notes>  (1) 
This compound contains an acetal/aminal-like group ( X-CH(R)-Y where X, Y are N, S, or O) that may be acid/base labile, releasing an aldehyde.

>  <s_epik_cmdline>  (1) 
J2VwaWtfcHl0aG9uJywgJy1waHQnLCAnMS4wJywgJy1waCcsICc3LjQnLCAnLXRuJywgJzgnLCAnLW1hJywgJzUwMCcsICctaW1hZScsICc8aW5maWxlLm1hZT4nLCAnLW9tYWUnLCAnPG91dGZpbGUubWFlPic=

>  <s_epik_input>  (1) 
TzFbQ0gyXVtOSF1jKGMxMilbY0hdW2NIXVtjSF1bY0hdMg==

>  <s_glide_docking_method>  (1) 
confgen

>  <s_i_glide_gridfile>  (1) 
gpcr_drd2_6luq_protein_autoprepared_prepared

>  <s_lp_Force_Field>  (1) 
S-OPLS

>  <s_lp_Variant>  (1) 
Pocket2Mol_43_num_sample_100-1

>  <s_m_source_file>  (1) 
generated__ligand_Pocket2Mol_2026-05-06_prepared.sdf

>  <GenAI_Model>  (1) 
Pocket2Mol

>  <Protein>  (1) 
generic_title2

$$$$
Pocket2Mol_37_num_sample_100
     RDKit          3D

  0  0  0  0  0  0  0  0  0  0999 V3000
M  V30 BEGIN CTAB
M  V30 COUNTS 17 18 0 0 1
M  V30 BEGIN ATOM
M  V30 1 C 11.037356 8.569310 -6.560223 0
M  V30 2 O 11.609619 9.441123 -5.676085 0
M  V30 3 C 11.834839 8.701379 -4.548368 0
M  V30 4 C 11.434839 7.427877 -4.691668 0
M  V30 5 C 11.543921 6.390903 -3.638993 0
M  V30 6 C 12.453489 9.369301 -3.398660 0
M  V30 7 C 10.910079 7.329930 -6.005454 0
M  V30 8 C 12.632512 8.305457 -2.294622 0
M  V30 9 C 12.234839 7.000744 -2.399781 0
M  V30 10 H 10.785609 8.986507 -7.523510 0
M  V30 11 H 12.121021 5.548782 -4.011827 0
M  V30 12 H 10.549878 6.036438 -3.369789 0
M  V30 13 H 11.816158 10.169301 -3.025430 0
M  V30 14 H 13.426948 9.774456 -3.670925 0
M  V30 15 H 10.488464 6.459181 -6.486690 0
M  V30 16 H 13.107781 8.640541 -1.384101 0
M  V30 17 H 12.403481 6.328938 -1.570601 0
M  V30 END ATOM
M  V30 BEGIN BOND
M  V30 1 1 2 1
M  V30 2 1 3 2
M  V30 3 2 4 3
M  V30 4 1 5 4
M  V30 5 1 6 3
M  V30 6 2 7 1
M  V30 7 1 7 4
M  V30 8 1 8 6
M  V30 9 1 9 5
M  V30 10 2 9 8
M  V30 11 1 10 1
M  V30 12 1 11 5
M  V30 13 1 12 5
M  V30 14 1 13 6
M  V30 15 1 14 6
M  V30 16 1 15 7
M  V30 17 1 16 8
M  V30 18 1 17 9
M  V30 END BOND
M  V30 END CTAB
M  END
>  <i_epik_Tot_Q>  (1) 
0

>  <i_epik_Tot_abs_Q>  (1) 
0

>  <i_i_glide_confnum>  (1) 
1

>  <i_i_glide_lignum>  (1) 
42

>  <i_i_glide_posenum>  (1) 
217

>  <i_i_glide_rotatable_bonds>  (1) 
0

>  <i_lp_mmshare_version>  (1) 
72125

>  <i_m_source_file_index>  (1) 
38

>  <i_f3d_flags>  (1) 
0

>  <num_sample>  (1) 
100

>  <b_lp_Chiralities_Consistent>  (1) 
1

>  <r_epik_Charging_Adjusted_Penalty>  (1) 
0

>  <r_epik_Ionization_Penalty>  (1) 
0

>  <r_epik_Ionization_Penalty_Charging>  (1) 
0

>  <r_epik_Ionization_Penalty_Neutral>  (1) 
0

>  <r_epik_State_Penalty>  (1) 
-0

>  <r_glide_ring_energy>  (1) 
0

>  <r_i_docking_score>  (1) 
-5.8255477160209619

>  <r_i_glide_ecoul>  (1) 
-1.1050082171107292

>  <r_i_glide_eff_state_penalty>  (1) 
-0

>  <r_i_glide_einternal>  (1) 
0

>  <r_i_glide_emodel>  (1) 
-27.209798316234117

>  <r_i_glide_emodel_strain>  (1) 
0

>  <r_i_glide_energy>  (1) 
-19.544169162186538

>  <r_i_glide_erotb>  (1) 
0

>  <r_i_glide_esite>  (1) 
0

>  <r_i_glide_evdw>  (1) 
-18.439160945075809

>  <r_i_glide_gscore>  (1) 
-5.8255477160209619

>  <r_i_glide_gscore_strain>  (1) 
0

>  <r_i_glide_hbond>  (1) 
0

>  <r_i_glide_ligand_efficiency>  (1) 
-0.64728307955788467

>  <r_i_glide_ligand_efficiency_ln>  (1) 
-1.8220639730207941

>  <r_i_glide_ligand_efficiency_sa>  (1) 
-1.3464030627235748

>  <r_i_glide_lipo>  (1) 
-2.0165595257681184

>  <r_i_glide_metal>  (1) 
-0

>  <r_i_glide_rewards>  (1) 
-2.721278910432444

>  <r_lp_Energy>  (1) 
4.5932930000000001

>  <r_lp_tautomer_probability>  (1) 
1

>  <s_epik_cmdline>  (1) 
J2VwaWtfcHl0aG9uJywgJy1waHQnLCAnMS4wJywgJy1waCcsICc3LjQnLCAnLXRuJywgJzgnLCAnLW1hJywgJzUwMCcsICctaW1hZScsICc8aW5maWxlLm1hZT4nLCAnLW9tYWUnLCAnPG91dGZpbGUubWFlPic=

>  <s_epik_input>  (1) 
bzFbY0hdW2NIXWMoYzEyKVtDSDJdW0NIXT1bQ0hdW0NIMl0y

>  <s_glide_docking_method>  (1) 
confgen

>  <s_i_glide_gridfile>  (1) 
gpcr_drd2_6luq_protein_autoprepared_prepared

>  <s_lp_Force_Field>  (1) 
S-OPLS

>  <s_lp_Variant>  (1) 
Pocket2Mol_37_num_sample_100-1

>  <s_m_source_file>  (1) 
generated__ligand_Pocket2Mol_2026-05-06_prepared.sdf

>  <GenAI_Model>  (1) 
Pocket2Mol

>  <Protein>  (1) 
generic_title2

$$$$
Pocket2Mol_54_num_sample_100
     RDKit          3D

  0  0  0  0  0  0  0  0  0  0999 V3000
M  V30 BEGIN CTAB
M  V30 COUNTS 18 19 0 0 1
M  V30 BEGIN ATOM
M  V30 1 C 9.875656 7.067769 -7.466613 0
M  V30 2 O 10.242053 6.199245 -6.330389 0
M  V30 3 C 10.895281 7.055875 -5.515825 0
M  V30 4 C 11.000102 8.323464 -5.962216 0
M  V30 5 C 11.659851 9.317352 -5.213367 0
M  V30 6 C 11.434839 6.672329 -4.278633 0
M  V30 7 C 12.107607 7.636797 -3.491686 0
M  V30 8 O 12.634839 7.287380 -2.285734 0
M  V30 9 C 12.223147 8.969301 -3.962522 0
M  V30 10 C 10.376217 8.569301 -7.264108 0
M  V30 11 H 10.301542 6.649000 -8.378992 0
M  V30 12 H 8.791874 7.045071 -7.588151 0
M  V30 13 H 11.734087 10.328432 -5.586649 0
M  V30 14 H 11.337263 5.657278 -3.934107 0
M  V30 15 H 12.455458 6.388281 -2.054002 0
M  V30 16 H 12.733422 9.713980 -3.368643 0
M  V30 17 H 9.545549 9.269896 -7.179759 0
M  V30 18 H 11.096435 8.891746 -8.016452 0
M  V30 END ATOM
M  V30 BEGIN BOND
M  V30 1 1 2 1
M  V30 2 1 3 2
M  V30 3 2 4 3
M  V30 4 1 5 4
M  V30 5 1 6 3
M  V30 6 2 7 6
M  V30 7 1 8 7
M  V30 8 2 9 5
M  V30 9 1 9 7
M  V30 10 1 10 1
M  V30 11 1 10 4
M  V30 12 1 11 1
M  V30 13 1 12 1
M  V30 14 1 13 5
M  V30 15 1 14 6
M  V30 16 1 15 8
M  V30 17 1 16 9
M  V30 18 1 17 10
M  V30 19 1 18 10
M  V30 END BOND
M  V30 END CTAB
M  END
>  <i_epik_Tot_Q>  (1) 
0

>  <i_epik_Tot_abs_Q>  (1) 
0

>  <i_i_glide_confnum>  (1) 
1

>  <i_i_glide_lignum>  (1) 
61

>  <i_i_glide_posenum>  (1) 
110

>  <i_i_glide_rotatable_bonds>  (1) 
1

>  <i_lp_mmshare_version>  (1) 
72125

>  <i_m_source_file_index>  (1) 
55

>  <i_f3d_flags>  (1) 
0

>  <num_sample>  (1) 
100

>  <b_lp_Chiralities_Consistent>  (1) 
1

>  <r_epik_Charging_Adjusted_Penalty>  (1) 
0

>  <r_epik_Ionization_Penalty>  (1) 
0.0019697177408658601

>  <r_epik_Ionization_Penalty_Charging>  (1) 
0

>  <r_epik_Ionization_Penalty_Neutral>  (1) 
0.0019697177408658601

>  <r_epik_State_Penalty>  (1) 
-0

>  <r_glide_ring_energy>  (1) 
0

>  <r_i_docking_score>  (1) 
-5.8220786599564391

>  <r_i_glide_ecoul>  (1) 
-0.88820338802492682

>  <r_i_glide_eff_state_penalty>  (1) 
-0

>  <r_i_glide_einternal>  (1) 
0.011062086886593062

>  <r_i_glide_emodel>  (1) 
-30.043883300040996

>  <r_i_glide_emodel_strain>  (1) 
0

>  <r_i_glide_energy>  (1) 
-21.405921005035353

>  <r_i_glide_erotb>  (1) 
0

>  <r_i_glide_esite>  (1) 
0

>  <r_i_glide_evdw>  (1) 
-20.517717617010426

>  <r_i_glide_gscore>  (1) 
-5.8220786599564391

>  <r_i_glide_gscore_strain>  (1) 
0

>  <r_i_glide_hbond>  (1) 
0

>  <r_i_glide_ligand_efficiency>  (1) 
-0.58220786599564389

>  <r_i_glide_ligand_efficiency_ln>  (1) 
-1.7628852841088432

>  <r_i_glide_ligand_efficiency_sa>  (1) 
-1.2543288233104497

>  <r_i_glide_lipo>  (1) 
-1.9319000936050297

>  <r_i_glide_metal>  (1) 
-0

>  <r_i_glide_rewards>  (1) 
-2.7310621772971491

>  <r_lp_Energy>  (1) 
8.5284040000000001

>  <r_lp_tautomer_probability>  (1) 
1

>  <s_epik_cmdline>  (1) 
J2VwaWtfcHl0aG9uJywgJy1waHQnLCAnMS4wJywgJy1waCcsICc3LjQnLCAnLXRuJywgJzgnLCAnLW1hJywgJzUwMCcsICctaW1hZScsICc8aW5maWxlLm1hZT4nLCAnLW9tYWUnLCAnPG91dGZpbGUubWFlPic=

>  <s_epik_input>  (1) 
TzFbQ0gyXVtDSDJdYyhjMTIpW2NIXVtjSF1jKFtjSF0yKVtPSF0=

>  <s_glide_docking_method>  (1) 
confgen

>  <s_i_glide_gridfile>  (1) 
gpcr_drd2_6luq_protein_autoprepared_prepared

>  <s_lp_Force_Field>  (1) 
S-OPLS

>  <s_lp_Variant>  (1) 
Pocket2Mol_54_num_sample_100-1

>  <s_m_source_file>  (1) 
generated__ligand_Pocket2Mol_2026-05-06_prepared.sdf

>  <GenAI_Model>  (1) 
Pocket2Mol

>  <Protein>  (1) 
generic_title2

$$$$
Pocket2Mol_89_num_sample_100
     RDKit          3D

  0  0  0  0  0  0  0  0  0  0999 V3000
M  V30 BEGIN CTAB
M  V30 COUNTS 23 24 0 0 1
M  V30 BEGIN ATOM
M  V30 1 C 9.135303 6.591609 -8.641404 0
M  V30 2 O 10.371083 6.831941 -9.291746 0
M  V30 3 C 9.372976 5.638086 -7.491690 0
M  V30 4 O 10.685768 5.798866 -6.984196 0
M  V30 5 C 11.088314 7.922357 -8.966658 0
M  V30 6 C 11.034769 7.051956 -6.549024 0
M  V30 7 C 11.218638 7.285970 -5.163438 0
M  V30 8 O 11.546072 8.695222 -9.805287 0
M  V30 9 C 11.256931 8.111007 -7.475055 0
M  V30 10 C 11.005954 6.169304 -4.172508 0
M  V30 11 C 11.664975 9.369301 -6.998144 0
M  V30 12 C 11.834766 9.595657 -5.622406 0
M  V30 13 C 11.612477 8.559278 -4.706372 0
M  V30 14 H 8.415772 6.169304 -9.343054 0
M  V30 15 H 8.716443 7.526745 -8.267823 0
M  V30 16 H 9.283846 4.617308 -7.865256 0
M  V30 17 H 8.624132 5.769303 -6.709374 0
M  V30 18 H 11.115859 6.510102 -3.143082 0
M  V30 19 H 10.003181 5.769302 -4.291480 0
M  V30 20 H 11.735956 5.381436 -4.347362 0
M  V30 21 H 11.834839 10.169333 -7.693016 0
M  V30 22 H 12.139295 10.569270 -5.271109 0
M  V30 23 H 11.751748 8.736013 -3.649722 0
M  V30 END ATOM
M  V30 BEGIN BOND
M  V30 1 1 2 1
M  V30 2 1 3 1
M  V30 3 1 4 3
M  V30 4 1 5 2
M  V30 5 1 6 4
M  V30 6 2 7 6
M  V30 7 2 8 5
M  V30 8 1 9 5
M  V30 9 1 9 6
M  V30 10 1 10 7
M  V30 11 2 11 9
M  V30 12 1 12 11
M  V30 13 1 13 7
M  V30 14 2 13 12
M  V30 15 1 14 1
M  V30 16 1 15 1
M  V30 17 1 16 3
M  V30 18 1 17 3
M  V30 19 1 18 10
M  V30 20 1 19 10
M  V30 21 1 20 10
M  V30 22 1 21 11
M  V30 23 1 22 12
M  V30 24 1 23 13
M  V30 END BOND
M  V30 END CTAB
M  END
>  <i_epik_Tot_Q>  (1) 
0

>  <i_epik_Tot_abs_Q>  (1) 
0

>  <i_i_glide_confnum>  (1) 
4

>  <i_i_glide_lignum>  (1) 
96

>  <i_i_glide_posenum>  (1) 
186

>  <i_i_glide_rotatable_bonds>  (1) 
0

>  <i_lp_mmshare_version>  (1) 
72125

>  <i_m_source_file_index>  (1) 
90

>  <i_f3d_flags>  (1) 
0

>  <num_sample>  (1) 
100

>  <b_lp_Chiralities_Consistent>  (1) 
1

>  <r_epik_Charging_Adjusted_Penalty>  (1) 
0

>  <r_epik_Ionization_Penalty>  (1) 
1.0524661445465699e-15

>  <r_epik_Ionization_Penalty_Charging>  (1) 
0

>  <r_epik_Ionization_Penalty_Neutral>  (1) 
1.0524661445465699e-15

>  <r_epik_State_Penalty>  (1) 
-0

>  <r_glide_ring_energy>  (1) 
0.44783522807784776

>  <r_i_docking_score>  (1) 
-5.8145429078442756

>  <r_i_glide_ecoul>  (1) 
-1.7503740401922183

>  <r_i_glide_eff_state_penalty>  (1) 
-0

>  <r_i_glide_einternal>  (1) 
0

>  <r_i_glide_emodel>  (1) 
-26.768487497119168

>  <r_i_glide_emodel_strain>  (1) 
0

>  <r_i_glide_energy>  (1) 
-19.417417585357271

>  <r_i_glide_erotb>  (1) 
0

>  <r_i_glide_esite>  (1) 
0

>  <r_i_glide_evdw>  (1) 
-17.66704354516505

>  <r_i_glide_gscore>  (1) 
-5.8145429078442756

>  <r_i_glide_gscore_strain>  (1) 
0

>  <r_i_glide_hbond>  (1) 
0

>  <r_i_glide_ligand_efficiency>  (1) 
-0.44727253137263656

>  <r_i_glide_ligand_efficiency_ln>  (1) 
-1.6310309978665694

>  <r_i_glide_ligand_efficiency_sa>  (1) 
-1.0516874178811513

>  <r_i_glide_lipo>  (1) 
-1.5542902487315791

>  <r_i_glide_metal>  (1) 
-0

>  <r_i_glide_rewards>  (1) 
-3.114344375825612

>  <r_lp_Energy>  (1) 
16.296527999999999

>  <r_lp_tautomer_probability>  (1) 
1

>  <s_epik_Chemistry_Notes>  (1) 
This compound has an ester and may undergo hydrolysis at high or low pH.

>  <s_epik_cmdline>  (1) 
J2VwaWtfcHl0aG9uJywgJy1waHQnLCAnMS4wJywgJy1waCcsICc3LjQnLCAnLXRuJywgJzgnLCAnLW1hJywgJzUwMCcsICctaW1hZScsICc8aW5maWxlLm1hZT4nLCAnLW9tYWUnLCAnPG91dGZpbGUubWFlPic=

>  <s_epik_input>  (1) 
TzFbQ0gyXVtDSDJdT0MoPU8pYyhjMTIpW2NIXVtjSF1bY0hdYzJbQ0gzXQ==

>  <s_glide_docking_method>  (1) 
confgen

>  <s_i_glide_gridfile>  (1) 
gpcr_drd2_6luq_protein_autoprepared_prepared

>  <s_lp_Force_Field>  (1) 
S-OPLS

>  <s_lp_Variant>  (1) 
Pocket2Mol_89_num_sample_100-1

>  <s_m_source_file>  (1) 
generated__ligand_Pocket2Mol_2026-05-06_prepared.sdf

>  <GenAI_Model>  (1) 
Pocket2Mol

>  <Protein>  (1) 
generic_title2

$$$$
Pocket2Mol_76_num_sample_100
     RDKit          3D

  0  0  0  0  0  0  0  0  0  0999 V3000
M  V30 BEGIN CTAB
M  V30 COUNTS 20 21 0 0 1
M  V30 BEGIN ATOM
M  V30 1 C 9.434839 6.590966 -7.323533 0
M  V30 2 O 10.261856 6.169300 -6.253902 0
M  V30 3 C 10.911282 7.160896 -5.573025 0
M  V30 4 C 10.218229 7.571350 -8.191587 0
M  V30 5 O 10.543567 8.704586 -7.402654 0
M  V30 6 C 11.050584 8.443009 -6.149065 0
M  V30 7 C 11.444068 6.900893 -4.293837 0
M  V30 8 C 12.113608 7.922297 -3.588384 0
M  V30 9 C 11.710144 9.458418 -5.440985 0
M  V30 10 O 11.834839 10.689767 -5.996863 0
M  V30 11 O 12.629824 7.673793 -2.349493 0
M  V30 12 C 12.242809 9.201259 -4.161336 0
M  V30 13 H 9.121776 5.722126 -7.902531 0
M  V30 14 H 8.537397 7.058350 -6.921307 0
M  V30 15 H 11.125800 7.111362 -8.585381 0
M  V30 16 H 9.615947 7.892012 -9.042284 0
M  V30 17 H 11.339134 5.919116 -3.854896 0
M  V30 18 H 12.224171 11.341423 -5.437094 0
M  V30 19 H 12.990096 8.443021 -1.933319 0
M  V30 20 H 12.753739 9.982515 -3.621735 0
M  V30 END ATOM
M  V30 BEGIN BOND
M  V30 1 1 2 1
M  V30 2 1 3 2
M  V30 3 1 4 1
M  V30 4 1 5 4
M  V30 5 1 6 3
M  V30 6 1 6 5
M  V30 7 2 7 3
M  V30 8 1 8 7
M  V30 9 2 9 6
M  V30 10 1 10 9
M  V30 11 1 11 8
M  V30 12 2 12 8
M  V30 13 1 12 9
M  V30 14 1 13 1
M  V30 15 1 14 1
M  V30 16 1 15 4
M  V30 17 1 16 4
M  V30 18 1 17 7
M  V30 19 1 18 10
M  V30 20 1 19 11
M  V30 21 1 20 12
M  V30 END BOND
M  V30 END CTAB
M  END
>  <i_epik_Tot_Q>  (1) 
0

>  <i_epik_Tot_abs_Q>  (1) 
0

>  <i_i_glide_confnum>  (1) 
2

>  <i_i_glide_lignum>  (1) 
83

>  <i_i_glide_posenum>  (1) 
223

>  <i_i_glide_rotatable_bonds>  (1) 
2

>  <i_lp_mmshare_version>  (1) 
72125

>  <i_m_source_file_index>  (1) 
77

>  <i_f3d_flags>  (1) 
0

>  <num_sample>  (1) 
100

>  <b_lp_Chiralities_Consistent>  (1) 
1

>  <r_epik_Charging_Adjusted_Penalty>  (1) 
0

>  <r_epik_Ionization_Penalty>  (1) 
0.012400157081266662

>  <r_epik_Ionization_Penalty_Charging>  (1) 
0

>  <r_epik_Ionization_Penalty_Neutral>  (1) 
0.012400157081266662

>  <r_epik_State_Penalty>  (1) 
-0

>  <r_glide_ring_energy>  (1) 
0.0030882677572799519

>  <r_i_docking_score>  (1) 
-5.8107696553564514

>  <r_i_glide_ecoul>  (1) 
-1.0200127611231622

>  <r_i_glide_eff_state_penalty>  (1) 
-0

>  <r_i_glide_einternal>  (1) 
0.04282698136986976

>  <r_i_glide_emodel>  (1) 
-32.714128414597596

>  <r_i_glide_emodel_strain>  (1) 
0

>  <r_i_glide_energy>  (1) 
-22.740788010474134

>  <r_i_glide_erotb>  (1) 
0

>  <r_i_glide_esite>  (1) 
0

>  <r_i_glide_evdw>  (1) 
-21.720775249350972

>  <r_i_glide_gscore>  (1) 
-5.8107696553564514

>  <r_i_glide_gscore_strain>  (1) 
0

>  <r_i_glide_hbond>  (1) 
0

>  <r_i_glide_ligand_efficiency>  (1) 
-0.48423080461303764

>  <r_i_glide_ligand_efficiency_ln>  (1) 
-1.6674104185000025

>  <r_i_glide_ligand_efficiency_sa>  (1) 
-1.1086117974472076

>  <r_i_glide_lipo>  (1) 
-1.8103484510230103

>  <r_i_glide_metal>  (1) 
-0

>  <r_i_glide_rewards>  (1) 
-2.7613805276974182

>  <r_lp_Energy>  (1) 
12.367407

>  <r_lp_tautomer_probability>  (1) 
1

>  <s_epik_cmdline>  (1) 
J2VwaWtfcHl0aG9uJywgJy1waHQnLCAnMS4wJywgJy1waCcsICc3LjQnLCAnLXRuJywgJzgnLCAnLW1hJywgJzUwMCcsICctaW1hZScsICc8aW5maWxlLm1hZT4nLCAnLW9tYWUnLCAnPG91dGZpbGUubWFlPic=

>  <s_epik_input>  (1) 
TzFbQ0gyXVtDSDJdT2MoYzEyKWMoW09IXSlbY0hdYyhbY0hdMilbT0hd

>  <s_glide_docking_method>  (1) 
confgen

>  <s_i_glide_gridfile>  (1) 
gpcr_drd2_6luq_protein_autoprepared_prepared

>  <s_lp_Force_Field>  (1) 
S-OPLS

>  <s_lp_Variant>  (1) 
Pocket2Mol_76_num_sample_100-1

>  <s_m_source_file>  (1) 
generated__ligand_Pocket2Mol_2026-05-06_prepared.sdf

>  <GenAI_Model>  (1) 
Pocket2Mol

>  <Protein>  (1) 
generic_title2

$$$$
Pocket2Mol_48_num_sample_100
     RDKit          3D

  0  0  0  0  0  0  0  0  0  0999 V3000
M  V30 BEGIN CTAB
M  V30 COUNTS 19 20 0 0 1
M  V30 BEGIN ATOM
M  V30 1 C 11.834839 9.569159 -6.529320 0
M  V30 2 O 11.883377 9.948124 -5.191255 0
M  V30 3 C 11.874666 8.910223 -4.292210 0
M  V30 4 C 11.434839 7.627387 -4.691667 0
M  V30 5 C 11.434839 6.569301 -3.770525 0
M  V30 6 C 12.302206 9.124685 -2.971934 0
M  V30 7 C 12.302901 8.063327 -2.049998 0
M  V30 8 C 10.962454 7.399539 -6.115906 0
M  V30 9 C 11.870368 6.783835 -2.448625 0
M  V30 10 N 10.745437 8.665555 -6.794133 0
M  V30 11 H 11.717552 10.489156 -7.091668 0
M  V30 12 H 12.787397 9.121614 -6.818460 0
M  V30 13 H 11.098834 5.592178 -4.075862 0
M  V30 14 H 12.634839 10.103796 -2.667206 0
M  V30 15 H 12.636348 8.230622 -1.038433 0
M  V30 16 H 11.709795 6.814466 -6.653441 0
M  V30 17 H 10.034155 6.826489 -6.113646 0
M  V30 18 H 11.869919 5.967193 -1.740815 0
M  V30 19 H 10.623043 8.501248 -7.784214 0
M  V30 END ATOM
M  V30 BEGIN BOND
M  V30 1 1 2 1
M  V30 2 1 3 2
M  V30 3 1 4 3
M  V30 4 2 5 4
M  V30 5 2 6 3
M  V30 6 1 7 6
M  V30 7 1 8 4
M  V30 8 1 9 5
M  V30 9 2 9 7
M  V30 10 1 10 1
M  V30 11 1 10 8
M  V30 12 1 11 1
M  V30 13 1 12 1
M  V30 14 1 13 5
M  V30 15 1 14 6
M  V30 16 1 15 7
M  V30 17 1 16 8
M  V30 18 1 17 8
M  V30 19 1 18 9
M  V30 20 1 19 10
M  V30 END BOND
M  V30 END CTAB
M  END
>  <i_epik_Tot_Q>  (1) 
0

>  <i_epik_Tot_abs_Q>  (1) 
0

>  <i_i_glide_confnum>  (1) 
1

>  <i_i_glide_lignum>  (1) 
54

>  <i_i_glide_posenum>  (1) 
366

>  <i_i_glide_rotatable_bonds>  (1) 
0

>  <i_lp_mmshare_version>  (1) 
72125

>  <i_m_source_file_index>  (1) 
49

>  <i_f3d_flags>  (1) 
0

>  <num_sample>  (1) 
100

>  <b_lp_Chiralities_Consistent>  (1) 
1

>  <r_epik_Charging_Adjusted_Penalty>  (1) 
0.1493798173009977

>  <r_epik_Ionization_Penalty>  (1) 
0.14937981730099775

>  <r_epik_Ionization_Penalty_Charging>  (1) 
0

>  <r_epik_Ionization_Penalty_Neutral>  (1) 
0.14937981730099775

>  <r_epik_State_Penalty>  (1) 
0.1493798173009977

>  <r_glide_ring_energy>  (1) 
0

>  <r_i_docking_score>  (1) 
-5.8060025086268894

>  <r_i_glide_ecoul>  (1) 
-1.7690819030315392

>  <r_i_glide_eff_state_penalty>  (1) 
0.1493798173009977

>  <r_i_glide_einternal>  (1) 
0

>  <r_i_glide_emodel>  (1) 
-29.422571631523443

>  <r_i_glide_emodel_strain>  (1) 
0

>  <r_i_glide_energy>  (1) 
-21.231256415070284

>  <r_i_glide_erotb>  (1) 
0

>  <r_i_glide_esite>  (1) 
0

>  <r_i_glide_evdw>  (1) 
-19.462174512038747

>  <r_i_glide_gscore>  (1) 
-5.9553823259278866

>  <r_i_glide_gscore_strain>  (1) 
0

>  <r_i_glide_hbond>  (1) 
0

>  <r_i_glide_ligand_efficiency>  (1) 
-0.58060025086268896

>  <r_i_glide_ligand_efficiency_ln>  (1) 
-1.7580175363061741

>  <r_i_glide_ligand_efficiency_sa>  (1) 
-1.2508653214997913

>  <r_i_glide_lipo>  (1) 
-1.8426735088524315

>  <r_i_glide_metal>  (1) 
-0

>  <r_i_glide_rewards>  (1) 
-2.8742378060187872

>  <r_lp_Energy>  (1) 
22.191175999999999

>  <r_lp_tautomer_probability>  (1) 
1

>  <s_epik_Chemistry_Notes>  (1) 
This compound contains an acetal/aminal-like group ( X-CH(R)-Y where X, Y are N, S, or O) that may be acid/base labile, releasing an aldehyde.

>  <s_epik_cmdline>  (1) 
J2VwaWtfcHl0aG9uJywgJy1waHQnLCAnMS4wJywgJy1waCcsICc3LjQnLCAnLXRuJywgJzgnLCAnLW1hJywgJzUwMCcsICctaW1hZScsICc8aW5maWxlLm1hZT4nLCAnLW9tYWUnLCAnPG91dGZpbGUubWFlPic=

>  <s_epik_input>  (1) 
TzFbQ0gyXVtOSF1bQ0gyXWMoYzEyKVtjSF1bY0hdW2NIXVtjSF0y

>  <s_glide_docking_method>  (1) 
confgen

>  <s_i_glide_gridfile>  (1) 
gpcr_drd2_6luq_protein_autoprepared_prepared

>  <s_lp_Force_Field>  (1) 
S-OPLS

>  <s_lp_Variant>  (1) 
Pocket2Mol_48_num_sample_100-1

>  <s_m_source_file>  (1) 
generated__ligand_Pocket2Mol_2026-05-06_prepared.sdf

>  <GenAI_Model>  (1) 
Pocket2Mol

>  <Protein>  (1) 
generic_title2

$$$$
Pocket2Mol_68_num_sample_100
     RDKit          3D

  0  0  0  0  0  0  0  0  0  0999 V3000
M  V30 BEGIN CTAB
M  V30 COUNTS 19 20 0 0 1
M  V30 BEGIN ATOM
M  V30 1 C 12.634838 7.301761 -2.667931 0
M  V30 2 O 11.691462 6.649787 -3.496697 0
M  V30 3 C 11.434837 7.282860 -4.691665 0
M  V30 4 C 12.287478 8.786465 -2.567375 0
M  V30 5 O 12.361963 9.369301 -3.859794 0
M  V30 6 C 11.771881 8.648667 -4.875071 0
M  V30 7 C 10.829584 6.569301 -5.738915 0
M  V30 8 C 10.564497 7.196628 -6.967652 0
M  V30 9 C 11.507442 9.270304 -6.109741 0
M  V30 10 O 11.834841 10.571962 -6.291658 0
M  V30 11 C 10.905647 8.544497 -7.154842 0
M  V30 12 H 13.631051 7.173190 -3.091604 0
M  V30 13 H 12.633169 6.833352 -1.683721 0
M  V30 14 H 12.997797 9.290037 -1.914828 0
M  V30 15 H 11.299643 8.941483 -2.138757 0
M  V30 16 H 10.571464 5.542604 -5.600210 0
M  V30 17 H 10.099138 6.640743 -7.769208 0
M  V30 18 H 12.201493 10.940864 -5.502394 0
M  V30 19 H 10.704416 9.022018 -8.101339 0
M  V30 END ATOM
M  V30 BEGIN BOND
M  V30 1 1 2 1
M  V30 2 1 3 2
M  V30 3 1 4 1
M  V30 4 1 5 4
M  V30 5 1 6 3
M  V30 6 1 6 5
M  V30 7 2 7 3
M  V30 8 1 8 7
M  V30 9 2 9 6
M  V30 10 1 10 9
M  V30 11 2 11 8
M  V30 12 1 11 9
M  V30 13 1 12 1
M  V30 14 1 13 1
M  V30 15 1 14 4
M  V30 16 1 15 4
M  V30 17 1 16 7
M  V30 18 1 17 8
M  V30 19 1 18 10
M  V30 20 1 19 11
M  V30 END BOND
M  V30 END CTAB
M  END
>  <i_epik_Tot_Q>  (1) 
0

>  <i_epik_Tot_abs_Q>  (1) 
0

>  <i_i_glide_confnum>  (1) 
2

>  <i_i_glide_lignum>  (1) 
75

>  <i_i_glide_posenum>  (1) 
204

>  <i_i_glide_rotatable_bonds>  (1) 
1

>  <i_lp_mmshare_version>  (1) 
72125

>  <i_m_source_file_index>  (1) 
69

>  <i_f3d_flags>  (1) 
0

>  <num_sample>  (1) 
100

>  <b_lp_Chiralities_Consistent>  (1) 
1

>  <r_epik_Charging_Adjusted_Penalty>  (1) 
0.0030607566555237334

>  <r_epik_Ionization_Penalty>  (1) 
0.0030607566555237659

>  <r_epik_Ionization_Penalty_Charging>  (1) 
0

>  <r_epik_Ionization_Penalty_Neutral>  (1) 
0.0030607566555237659

>  <r_epik_State_Penalty>  (1) 
0.0030607566555237334

>  <r_glide_ring_energy>  (1) 
0.0030878583902879796

>  <r_i_docking_score>  (1) 
-5.7953499035344338

>  <r_i_glide_ecoul>  (1) 
-0.59840660589641426

>  <r_i_glide_eff_state_penalty>  (1) 
0.0030607566555237334

>  <r_i_glide_einternal>  (1) 
0.027914412253550444

>  <r_i_glide_emodel>  (1) 
-27.784953755226791

>  <r_i_glide_emodel_strain>  (1) 
0

>  <r_i_glide_energy>  (1) 
-20.073703125151809

>  <r_i_glide_erotb>  (1) 
0

>  <r_i_glide_esite>  (1) 
0

>  <r_i_glide_evdw>  (1) 
-19.475296519255394

>  <r_i_glide_gscore>  (1) 
-5.7984106601899574

>  <r_i_glide_gscore_strain>  (1) 
0

>  <r_i_glide_hbond>  (1) 
0

>  <r_i_glide_ligand_efficiency>  (1) 
-0.5268499912304031

>  <r_i_glide_ligand_efficiency_ln>  (1) 
-1.7055704894523178

>  <r_i_glide_ligand_efficiency_sa>  (1) 
-1.1717038912130351

>  <r_i_glide_lipo>  (1) 
-1.9876986887834669

>  <r_i_glide_metal>  (1) 
-0

>  <r_i_glide_rewards>  (1) 
-2.7471861545592584

>  <r_lp_Energy>  (1) 
16.942557999999998

>  <r_lp_tautomer_probability>  (1) 
0.99999999996300004

>  <s_epik_cmdline>  (1) 
J2VwaWtfcHl0aG9uJywgJy1waHQnLCAnMS4wJywgJy1waCcsICc3LjQnLCAnLXRuJywgJzgnLCAnLW1hJywgJzUwMCcsICctaW1hZScsICc8aW5maWxlLm1hZT4nLCAnLW9tYWUnLCAnPG91dGZpbGUubWFlPic=

>  <s_epik_input>  (1) 
TzFbQ0gyXVtDSDJdT2MoYzEyKWMoW09IXSlbY0hdW2NIXVtjSF0y

>  <s_glide_docking_method>  (1) 
confgen

>  <s_i_glide_gridfile>  (1) 
gpcr_drd2_6luq_protein_autoprepared_prepared

>  <s_lp_Force_Field>  (1) 
S-OPLS

>  <s_lp_Variant>  (1) 
Pocket2Mol_68_num_sample_100-1

>  <s_m_source_file>  (1) 
generated__ligand_Pocket2Mol_2026-05-06_prepared.sdf

>  <GenAI_Model>  (1) 
Pocket2Mol

>  <Protein>  (1) 
generic_title2

$$$$
Pocket2Mol_46_num_sample_100
     RDKit          3D

  0  0  0  0  0  0  0  0  0  0999 V3000
M  V30 BEGIN CTAB
M  V30 COUNTS 18 19 0 0 1
M  V30 BEGIN ATOM
M  V30 1 C 9.532523 8.098323 -7.300089 0
M  V30 2 O 10.495297 8.969301 -6.726755 0
M  V30 3 C 11.068593 8.513992 -5.564429 0
M  V30 4 C 11.692967 9.424893 -4.691658 0
M  V30 5 C 10.143269 6.699525 -7.395316 0
M  V30 6 C 11.034839 7.133450 -5.238318 0
M  V30 7 O 10.436294 6.229667 -6.086650 0
M  V30 8 C 12.274687 8.969302 -3.491666 0
M  V30 9 C 11.615187 6.684344 -4.035649 0
M  V30 10 C 12.234839 7.600819 -3.163346 0
M  V30 11 H 8.627398 8.090343 -6.691665 0
M  V30 12 H 9.257095 8.467757 -8.288152 0
M  V30 13 H 11.720928 10.475331 -4.940608 0
M  V30 14 H 9.444235 6.010681 -7.870099 0
M  V30 15 H 11.051789 6.708937 -7.998819 0
M  V30 16 H 12.749968 9.671108 -2.821730 0
M  V30 17 H 11.587046 5.638134 -3.783549 0
M  V30 18 H 12.679533 7.253066 -2.242619 0
M  V30 END ATOM
M  V30 BEGIN BOND
M  V30 1 1 2 1
M  V30 2 1 3 2
M  V30 3 2 4 3
M  V30 4 1 5 1
M  V30 5 1 6 3
M  V30 6 1 7 5
M  V30 7 1 7 6
M  V30 8 1 8 4
M  V30 9 2 9 6
M  V30 10 2 10 8
M  V30 11 1 10 9
M  V30 12 1 11 1
M  V30 13 1 12 1
M  V30 14 1 13 4
M  V30 15 1 14 5
M  V30 16 1 15 5
M  V30 17 1 16 8
M  V30 18 1 17 9
M  V30 19 1 18 10
M  V30 END BOND
M  V30 END CTAB
M  END
>  <i_epik_Tot_Q>  (1) 
0

>  <i_epik_Tot_abs_Q>  (1) 
0

>  <i_i_glide_confnum>  (1) 
1

>  <i_i_glide_lignum>  (1) 
52

>  <i_i_glide_posenum>  (1) 
141

>  <i_i_glide_rotatable_bonds>  (1) 
0

>  <i_lp_mmshare_version>  (1) 
72125

>  <i_m_source_file_index>  (1) 
47

>  <i_f3d_flags>  (1) 
0

>  <num_sample>  (1) 
100

>  <b_lp_Chiralities_Consistent>  (1) 
1

>  <r_epik_Charging_Adjusted_Penalty>  (1) 
0

>  <r_epik_Ionization_Penalty>  (1) 
0

>  <r_epik_Ionization_Penalty_Charging>  (1) 
0

>  <r_epik_Ionization_Penalty_Neutral>  (1) 
0

>  <r_epik_State_Penalty>  (1) 
-0

>  <r_glide_ring_energy>  (1) 
0

>  <r_i_docking_score>  (1) 
-5.791802749177057

>  <r_i_glide_ecoul>  (1) 
-0.98413263300877318

>  <r_i_glide_eff_state_penalty>  (1) 
-0

>  <r_i_glide_einternal>  (1) 
0

>  <r_i_glide_emodel>  (1) 
-29.266017547212407

>  <r_i_glide_emodel_strain>  (1) 
0

>  <r_i_glide_energy>  (1) 
-21.470382397036452

>  <r_i_glide_erotb>  (1) 
0

>  <r_i_glide_esite>  (1) 
0

>  <r_i_glide_evdw>  (1) 
-20.486249764027679

>  <r_i_glide_gscore>  (1) 
-5.791802749177057

>  <r_i_glide_gscore_strain>  (1) 
0

>  <r_i_glide_hbond>  (1) 
0

>  <r_i_glide_ligand_efficiency>  (1) 
-0.57918027491770574

>  <r_i_glide_ligand_efficiency_ln>  (1) 
-1.7537179470298963

>  <r_i_glide_ligand_efficiency_sa>  (1) 
-1.2478060760649086

>  <r_i_glide_lipo>  (1) 
-1.8708094935118529

>  <r_i_glide_metal>  (1) 
-0

>  <r_i_glide_rewards>  (1) 
-2.7490608725125045

>  <r_lp_Energy>  (1) 
16.729797999999999

>  <r_lp_tautomer_probability>  (1) 
1

>  <s_epik_cmdline>  (1) 
J2VwaWtfcHl0aG9uJywgJy1waHQnLCAnMS4wJywgJy1waCcsICc3LjQnLCAnLXRuJywgJzgnLCAnLW1hJywgJzUwMCcsICctaW1hZScsICc8aW5maWxlLm1hZT4nLCAnLW9tYWUnLCAnPG91dGZpbGUubWFlPic=

>  <s_epik_input>  (1) 
TzFbQ0gyXVtDSDJdT2MoYzEyKVtjSF1bY0hdW2NIXVtjSF0y

>  <s_glide_docking_method>  (1) 
confgen

>  <s_i_glide_gridfile>  (1) 
gpcr_drd2_6luq_protein_autoprepared_prepared

>  <s_lp_Force_Field>  (1) 
S-OPLS

>  <s_lp_Variant>  (1) 
Pocket2Mol_46_num_sample_100-1

>  <s_m_source_file>  (1) 
generated__ligand_Pocket2Mol_2026-05-06_prepared.sdf

>  <GenAI_Model>  (1) 
Pocket2Mol

>  <Protein>  (1) 
generic_title2

$$$$
Pocket2Mol_47_num_sample_100
     RDKit          3D

  0  0  0  0  0  0  0  0  0  0999 V3000
M  V30 BEGIN CTAB
M  V30 COUNTS 16 17 0 0 1
M  V30 BEGIN ATOM
M  V30 1 C 11.225395 8.163544 -6.959493 0
M  V30 2 O 11.026959 7.221065 -5.985556 0
M  V30 3 C 11.434988 7.541692 -4.707026 0
M  V30 4 C 11.854187 8.858345 -4.401214 0
M  V30 5 C 12.258121 9.173737 -3.091136 0
M  V30 6 C 11.438254 6.558093 -3.708279 0
M  V30 7 C 11.857235 6.874713 -2.403340 0
M  V30 8 O 11.882878 9.822876 -5.384491 0
M  V30 9 C 12.261314 8.183642 -2.094102 0
M  V30 10 C 11.646826 9.405916 -6.673307 0
M  V30 11 H 11.016840 7.791484 -7.956358 0
M  V30 12 H 12.575234 10.166247 -2.849537 0
M  V30 13 H 11.123314 5.556945 -3.943559 0
M  V30 14 H 11.868676 6.114667 -1.641481 0
M  V30 15 H 12.584510 8.430031 -1.088942 0
M  V30 16 H 11.834834 10.172579 -7.402902 0
M  V30 END ATOM
M  V30 BEGIN BOND
M  V30 1 1 2 1
M  V30 2 1 3 2
M  V30 3 1 4 3
M  V30 4 2 5 4
M  V30 5 2 6 3
M  V30 6 1 7 6
M  V30 7 1 8 4
M  V30 8 1 9 5
M  V30 9 2 9 7
M  V30 10 2 10 1
M  V30 11 1 10 8
M  V30 12 1 11 1
M  V30 13 1 12 5
M  V30 14 1 13 6
M  V30 15 1 14 7
M  V30 16 1 15 9
M  V30 17 1 16 10
M  V30 END BOND
M  V30 END CTAB
M  END
>  <i_epik_Tot_Q>  (1) 
0

>  <i_epik_Tot_abs_Q>  (1) 
0

>  <i_i_glide_confnum>  (1) 
1

>  <i_i_glide_lignum>  (1) 
53

>  <i_i_glide_posenum>  (1) 
29

>  <i_i_glide_rotatable_bonds>  (1) 
0

>  <i_lp_mmshare_version>  (1) 
72125

>  <i_m_source_file_index>  (1) 
48

>  <i_f3d_flags>  (1) 
0

>  <num_sample>  (1) 
100

>  <b_lp_Chiralities_Consistent>  (1) 
1

>  <r_epik_Charging_Adjusted_Penalty>  (1) 
0

>  <r_epik_Ionization_Penalty>  (1) 
0

>  <r_epik_Ionization_Penalty_Charging>  (1) 
0

>  <r_epik_Ionization_Penalty_Neutral>  (1) 
0

>  <r_epik_State_Penalty>  (1) 
-0

>  <r_glide_ring_energy>  (1) 
0

>  <r_i_docking_score>  (1) 
-5.7864440225363838

>  <r_i_glide_ecoul>  (1) 
-0.7175572484036955

>  <r_i_glide_eff_state_penalty>  (1) 
-0

>  <r_i_glide_einternal>  (1) 
0

>  <r_i_glide_emodel>  (1) 
-26.77825615422736

>  <r_i_glide_emodel_strain>  (1) 
0

>  <r_i_glide_energy>  (1) 
-19.257453248652631

>  <r_i_glide_erotb>  (1) 
0

>  <r_i_glide_esite>  (1) 
0

>  <r_i_glide_evdw>  (1) 
-18.539896000248934

>  <r_i_glide_gscore>  (1) 
-5.7864440225363838

>  <r_i_glide_gscore_strain>  (1) 
0

>  <r_i_glide_hbond>  (1) 
0

>  <r_i_glide_ligand_efficiency>  (1) 
-0.57864440225363833

>  <r_i_glide_ligand_efficiency_ln>  (1) 
-1.7520953615431389

>  <r_i_glide_ligand_efficiency_sa>  (1) 
-1.2466515734080021

>  <r_i_glide_lipo>  (1) 
-2.0254160533320271

>  <r_i_glide_metal>  (1) 
-0

>  <r_i_glide_rewards>  (1) 
-2.7263995819313562

>  <r_lp_Energy>  (1) 
24.726983000000001

>  <r_lp_tautomer_probability>  (1) 
1

>  <s_epik_cmdline>  (1) 
J2VwaWtfcHl0aG9uJywgJy1waHQnLCAnMS4wJywgJy1waCcsICc3LjQnLCAnLXRuJywgJzgnLCAnLW1hJywgJzUwMCcsICctaW1hZScsICc8aW5maWxlLm1hZT4nLCAnLW9tYWUnLCAnPG91dGZpbGUubWFlPic=

>  <s_epik_input>  (1) 
TzFbQ0hdPVtDSF1PYyhjMTIpW2NIXVtjSF1bY0hdW2NIXTI=

>  <s_glide_docking_method>  (1) 
confgen

>  <s_i_glide_gridfile>  (1) 
gpcr_drd2_6luq_protein_autoprepared_prepared

>  <s_lp_Force_Field>  (1) 
S-OPLS

>  <s_lp_Variant>  (1) 
Pocket2Mol_47_num_sample_100-1

>  <s_m_source_file>  (1) 
generated__ligand_Pocket2Mol_2026-05-06_prepared.sdf

>  <GenAI_Model>  (1) 
Pocket2Mol

>  <Protein>  (1) 
generic_title2

$$$$
Pocket2Mol_41_num_sample_100
     RDKit          3D

  0  0  0  0  0  0  0  0  0  0999 V3000
M  V30 BEGIN CTAB
M  V30 COUNTS 15 16 0 0 1
M  V30 BEGIN ATOM
M  V30 1 C 11.309470 8.925162 -6.662654 0
M  V30 2 O 11.800361 9.675161 -5.512926 0
M  V30 3 C 11.834856 8.789616 -4.477180 0
M  V30 4 C 11.434836 7.502341 -4.730788 0
M  V30 5 C 11.435917 6.528621 -3.725993 0
M  V30 6 C 12.262536 9.161695 -3.190019 0
M  V30 7 C 12.278625 8.199004 -2.157740 0
M  V30 8 S 10.942483 7.143229 -6.327438 0
M  V30 9 C 11.862506 6.875589 -2.426782 0
M  V30 10 H 10.383926 9.369259 -7.021463 0
M  V30 11 H 12.038767 8.993519 -7.469562 0
M  V30 12 H 11.116475 5.523511 -3.945200 0
M  V30 13 H 12.577875 10.169301 -2.991860 0
M  V30 14 H 12.607198 8.474216 -1.165223 0
M  V30 15 H 11.870788 6.133106 -1.642385 0
M  V30 END ATOM
M  V30 BEGIN BOND
M  V30 1 1 2 1
M  V30 2 1 3 2
M  V30 3 1 4 3
M  V30 4 2 5 4
M  V30 5 2 6 3
M  V30 6 1 7 6
M  V30 7 1 8 1
M  V30 8 1 8 4
M  V30 9 1 9 5
M  V30 10 2 9 7
M  V30 11 1 10 1
M  V30 12 1 11 1
M  V30 13 1 12 5
M  V30 14 1 13 6
M  V30 15 1 14 7
M  V30 16 1 15 9
M  V30 END BOND
M  V30 END CTAB
M  END
>  <i_epik_Tot_Q>  (1) 
0

>  <i_epik_Tot_abs_Q>  (1) 
0

>  <i_i_glide_confnum>  (1) 
1

>  <i_i_glide_lignum>  (1) 
46

>  <i_i_glide_posenum>  (1) 
119

>  <i_i_glide_rotatable_bonds>  (1) 
0

>  <i_lp_mmshare_version>  (1) 
72125

>  <i_m_source_file_index>  (1) 
42

>  <i_f3d_flags>  (1) 
0

>  <num_sample>  (1) 
100

>  <b_lp_Chiralities_Consistent>  (1) 
1

>  <r_epik_Charging_Adjusted_Penalty>  (1) 
0

>  <r_epik_Ionization_Penalty>  (1) 
0

>  <r_epik_Ionization_Penalty_Charging>  (1) 
0

>  <r_epik_Ionization_Penalty_Neutral>  (1) 
0

>  <r_epik_State_Penalty>  (1) 
-0

>  <r_glide_ring_energy>  (1) 
0

>  <r_i_docking_score>  (1) 
-5.7840338625230334

>  <r_i_glide_ecoul>  (1) 
-0.409916111648017

>  <r_i_glide_eff_state_penalty>  (1) 
-0

>  <r_i_glide_einternal>  (1) 
0

>  <r_i_glide_emodel>  (1) 
-27.889152797600328

>  <r_i_glide_emodel_strain>  (1) 
0

>  <r_i_glide_energy>  (1) 
-20.28974866722443

>  <r_i_glide_erotb>  (1) 
0

>  <r_i_glide_esite>  (1) 
0

>  <r_i_glide_evdw>  (1) 
-19.879832555576414

>  <r_i_glide_gscore>  (1) 
-5.7840338625230334

>  <r_i_glide_gscore_strain>  (1) 
0

>  <r_i_glide_hbond>  (1) 
0

>  <r_i_glide_ligand_efficiency>  (1) 
-0.6426704291692259

>  <r_i_glide_ligand_efficiency_ln>  (1) 
-1.8090796322296585

>  <r_i_glide_ligand_efficiency_sa>  (1) 
-1.3368083632687318

>  <r_i_glide_lipo>  (1) 
-2.077603961684086

>  <r_i_glide_metal>  (1) 
-0

>  <r_i_glide_rewards>  (1) 
-2.6509508563129249

>  <r_lp_Energy>  (1) 
5.8399909999999995

>  <r_lp_tautomer_probability>  (1) 
1

>  <s_epik_Chemistry_Notes>  (1) 
This compound contains an acetal/aminal-like group ( X-CH(R)-Y where X, Y are N, S, or O) that may be acid/base labile, releasing an aldehyde.

>  <s_epik_cmdline>  (1) 
J2VwaWtfcHl0aG9uJywgJy1waHQnLCAnMS4wJywgJy1waCcsICc3LjQnLCAnLXRuJywgJzgnLCAnLW1hJywgJzUwMCcsICctaW1hZScsICc8aW5maWxlLm1hZT4nLCAnLW9tYWUnLCAnPG91dGZpbGUubWFlPic=

>  <s_epik_input>  (1) 
TzFbQ0gyXVNjKGMxMilbY0hdW2NIXVtjSF1bY0hdMg==

>  <s_glide_docking_method>  (1) 
confgen

>  <s_i_glide_gridfile>  (1) 
gpcr_drd2_6luq_protein_autoprepared_prepared

>  <s_lp_Force_Field>  (1) 
S-OPLS

>  <s_lp_Variant>  (1) 
Pocket2Mol_41_num_sample_100-1

>  <s_m_source_file>  (1) 
generated__ligand_Pocket2Mol_2026-05-06_prepared.sdf

>  <GenAI_Model>  (1) 
Pocket2Mol

>  <Protein>  (1) 
generic_title2

$$$$
Pocket2Mol_86_num_sample_100
     RDKit          3D

  0  0  0  0  0  0  0  0  0  0999 V3000
M  V30 BEGIN CTAB
M  V30 COUNTS 25 26 0 0 1
M  V30 BEGIN ATOM
M  V30 1 C 12.042536 7.759423 -2.369971 0
M  V30 2 O 12.229110 8.999259 -3.153516 0
M  V30 3 C 11.834839 8.613347 -4.387915 0
M  V30 4 C 11.434839 7.329284 -4.502464 0
M  V30 5 C 10.999905 6.798067 -5.728090 0
M  V30 6 C 11.498586 6.550268 -3.261806 0
M  V30 7 C 11.841726 9.474461 -5.494413 0
M  V30 8 C 10.984286 7.634202 -6.879927 0
M  V30 9 N 10.548413 7.130462 -8.139067 0
M  V30 10 C 11.421408 8.986240 -6.750988 0
M  V30 11 C 9.794261 5.880088 -8.100983 0
M  V30 12 C 10.213828 8.128339 -9.151856 0
M  V30 13 H 12.996149 7.489361 -1.916282 0
M  V30 14 H 11.355966 7.963184 -1.547451 0
M  V30 15 H 10.686306 5.769301 -5.786403 0
M  V30 16 H 10.525444 6.169301 -2.949486 0
M  V30 17 H 12.222235 5.741374 -3.339514 0
M  V30 18 H 12.169625 10.497254 -5.388820 0
M  V30 19 H 11.434839 9.641856 -7.605322 0
M  V30 20 H 8.997808 5.915986 -7.355625 0
M  V30 21 H 9.321928 5.686193 -9.064486 0
M  V30 22 H 10.452014 5.036666 -7.891666 0
M  V30 23 H 9.531822 8.881525 -8.754241 0
M  V30 24 H 11.110645 8.617019 -9.533539 0
M  V30 25 H 9.713506 7.661812 -10.001037 0
M  V30 END ATOM
M  V30 BEGIN BOND
M  V30 1 1 2 1
M  V30 2 1 3 2
M  V30 3 2 4 3
M  V30 4 1 5 4
M  V30 5 1 6 1
M  V30 6 1 6 4
M  V30 7 1 7 3
M  V30 8 2 8 5
M  V30 9 1 9 8
M  V30 10 2 10 7
M  V30 11 1 10 8
M  V30 12 1 11 9
M  V30 13 1 12 9
M  V30 14 1 13 1
M  V30 15 1 14 1
M  V30 16 1 15 5
M  V30 17 1 16 6
M  V30 18 1 17 6
M  V30 19 1 18 7
M  V30 20 1 19 10
M  V30 21 1 20 11
M  V30 22 1 21 11
M  V30 23 1 22 11
M  V30 24 1 23 12
M  V30 25 1 24 12
M  V30 26 1 25 12
M  V30 END BOND
M  V30 END CTAB
M  END
>  <i_epik_Tot_Q>  (1) 
0

>  <i_epik_Tot_abs_Q>  (1) 
0

>  <i_i_glide_confnum>  (1) 
1

>  <i_i_glide_lignum>  (1) 
93

>  <i_i_glide_posenum>  (1) 
15

>  <i_i_glide_rotatable_bonds>  (1) 
1

>  <i_lp_mmshare_version>  (1) 
72125

>  <i_m_source_file_index>  (1) 
87

>  <i_f3d_flags>  (1) 
0

>  <num_sample>  (1) 
100

>  <b_lp_Chiralities_Consistent>  (1) 
1

>  <r_epik_Charging_Adjusted_Penalty>  (1) 
0.017477600144237933

>  <r_epik_Ionization_Penalty>  (1) 
0.017477600144237951

>  <r_epik_Ionization_Penalty_Charging>  (1) 
0

>  <r_epik_Ionization_Penalty_Neutral>  (1) 
0.017477600144237951

>  <r_epik_State_Penalty>  (1) 
0.017477600144237933

>  <r_glide_ring_energy>  (1) 
0

>  <r_i_docking_score>  (1) 
-5.7835514603989608

>  <r_i_glide_ecoul>  (1) 
-0.650390251361049

>  <r_i_glide_eff_state_penalty>  (1) 
0.017477600144237933

>  <r_i_glide_einternal>  (1) 
0.018785340842356169

>  <r_i_glide_emodel>  (1) 
-33.78822245457981

>  <r_i_glide_emodel_strain>  (1) 
0

>  <r_i_glide_energy>  (1) 
-24.478304020752354

>  <r_i_glide_erotb>  (1) 
0

>  <r_i_glide_esite>  (1) 
-0.022465634161421312

>  <r_i_glide_evdw>  (1) 
-23.827913769391305

>  <r_i_glide_gscore>  (1) 
-5.8010290605431987

>  <r_i_glide_gscore_strain>  (1) 
0

>  <r_i_glide_hbond>  (1) 
0

>  <r_i_glide_ligand_efficiency>  (1) 
-0.48196262169991338

>  <r_i_glide_ligand_efficiency_ln>  (1) 
-1.6596001103073437

>  <r_i_glide_ligand_efficiency_sa>  (1) 
-1.1034189548764688

>  <r_i_glide_lipo>  (1) 
-1.8762537434401048

>  <r_i_glide_metal>  (1) 
-0

>  <r_i_glide_rewards>  (1) 
-2.6133554567679504

>  <r_lp_Energy>  (1) 
28.069341999999999

>  <r_lp_tautomer_probability>  (1) 
1

>  <s_epik_cmdline>  (1) 
J2VwaWtfcHl0aG9uJywgJy1waHQnLCAnMS4wJywgJy1waCcsICc3LjQnLCAnLXRuJywgJzgnLCAnLW1hJywgJzUwMCcsICctaW1hZScsICc8aW5maWxlLm1hZT4nLCAnLW9tYWUnLCAnPG91dGZpbGUubWFlPic=

>  <s_epik_input>  (1) 
TzFbQ0gyXVtDSDJdYyhjMTIpW2NIXWMoTihbQ0gzXSlbQ0gzXSlbY0hdW2NIXTI=

>  <s_glide_docking_method>  (1) 
confgen

>  <s_i_glide_gridfile>  (1) 
gpcr_drd2_6luq_protein_autoprepared_prepared

>  <s_lp_Force_Field>  (1) 
S-OPLS

>  <s_lp_Variant>  (1) 
Pocket2Mol_86_num_sample_100-1

>  <s_m_source_file>  (1) 
generated__ligand_Pocket2Mol_2026-05-06_prepared.sdf

>  <GenAI_Model>  (1) 
Pocket2Mol

>  <Protein>  (1) 
generic_title2

$$$$
Pocket2Mol_48_num_sample_100
     RDKit          3D

  0  0  0  0  0  0  0  0  0  0999 V3000
M  V30 BEGIN CTAB
M  V30 COUNTS 19 20 0 0 1
M  V30 BEGIN ATOM
M  V30 1 C 10.332512 6.599707 -6.894509 0
M  V30 2 O 11.042968 6.169303 -5.767890 0
M  V30 3 C 11.432558 7.149588 -4.884207 0
M  V30 4 C 11.434839 8.503579 -5.285699 0
M  V30 5 C 11.834836 9.503236 -4.383458 0
M  V30 6 C 11.834839 6.802782 -3.579327 0
M  V30 7 C 12.235250 7.805137 -2.676559 0
M  V30 8 C 11.003498 8.871409 -6.691665 0
M  V30 9 C 12.234839 9.154366 -3.077810 0
M  V30 10 N 10.974124 7.704410 -7.558281 0
M  V30 11 H 10.262291 5.755517 -7.581031 0
M  V30 12 H 9.316361 6.868475 -6.596159 0
M  V30 13 H 11.834222 10.538187 -4.691667 0
M  V30 14 H 11.834448 5.769301 -3.271645 0
M  V30 15 H 12.542386 7.539470 -1.676068 0
M  V30 16 H 10.009325 9.317362 -6.652351 0
M  V30 17 H 11.684124 9.614515 -7.107748 0
M  V30 18 H 12.540244 9.921212 -2.383886 0
M  V30 19 H 10.466887 7.939554 -8.400975 0
M  V30 END ATOM
M  V30 BEGIN BOND
M  V30 1 1 2 1
M  V30 2 1 3 2
M  V30 3 1 4 3
M  V30 4 2 5 4
M  V30 5 2 6 3
M  V30 6 1 7 6
M  V30 7 1 8 4
M  V30 8 1 9 5
M  V30 9 2 9 7
M  V30 10 1 10 1
M  V30 11 1 10 8
M  V30 12 1 11 1
M  V30 13 1 12 1
M  V30 14 1 13 5
M  V30 15 1 14 6
M  V30 16 1 15 7
M  V30 17 1 16 8
M  V30 18 1 17 8
M  V30 19 1 18 9
M  V30 20 1 19 10
M  V30 END BOND
M  V30 END CTAB
M  END
>  <i_epik_Tot_Q>  (1) 
0

>  <i_epik_Tot_abs_Q>  (1) 
0

>  <i_i_glide_confnum>  (1) 
1

>  <i_i_glide_lignum>  (1) 
54

>  <i_i_glide_posenum>  (1) 
110

>  <i_i_glide_rotatable_bonds>  (1) 
0

>  <i_lp_mmshare_version>  (1) 
72125

>  <i_m_source_file_index>  (1) 
49

>  <i_f3d_flags>  (1) 
0

>  <num_sample>  (1) 
100

>  <b_lp_Chiralities_Consistent>  (1) 
1

>  <r_epik_Charging_Adjusted_Penalty>  (1) 
0.1493798173009977

>  <r_epik_Ionization_Penalty>  (1) 
0.14937981730099775

>  <r_epik_Ionization_Penalty_Charging>  (1) 
0

>  <r_epik_Ionization_Penalty_Neutral>  (1) 
0.14937981730099775

>  <r_epik_State_Penalty>  (1) 
0.1493798173009977

>  <r_glide_ring_energy>  (1) 
0

>  <r_i_docking_score>  (1) 
-5.7801963599383033

>  <r_i_glide_ecoul>  (1) 
-0.80823916057815981

>  <r_i_glide_eff_state_penalty>  (1) 
0.1493798173009977

>  <r_i_glide_einternal>  (1) 
0

>  <r_i_glide_emodel>  (1) 
-29.146282150393048

>  <r_i_glide_emodel_strain>  (1) 
0

>  <r_i_glide_energy>  (1) 
-20.990461934405356

>  <r_i_glide_erotb>  (1) 
0

>  <r_i_glide_esite>  (1) 
0

>  <r_i_glide_evdw>  (1) 
-20.182222773827196

>  <r_i_glide_gscore>  (1) 
-5.9295761772393014

>  <r_i_glide_gscore_strain>  (1) 
0

>  <r_i_glide_hbond>  (1) 
0

>  <r_i_glide_ligand_efficiency>  (1) 
-0.57801963599383033

>  <r_i_glide_ligand_efficiency_ln>  (1) 
-1.7502036123763016

>  <r_i_glide_ligand_efficiency_sa>  (1) 
-1.2453055553047103

>  <r_i_glide_lipo>  (1) 
-1.9994003801441771

>  <r_i_glide_metal>  (1) 
-0

>  <r_i_glide_rewards>  (1) 
-2.7998287843170404

>  <r_lp_Energy>  (1) 
22.191175999999999

>  <r_lp_tautomer_probability>  (1) 
1

>  <s_epik_Chemistry_Notes>  (1) 
This compound contains an acetal/aminal-like group ( X-CH(R)-Y where X, Y are N, S, or O) that may be acid/base labile, releasing an aldehyde.

>  <s_epik_cmdline>  (1) 
J2VwaWtfcHl0aG9uJywgJy1waHQnLCAnMS4wJywgJy1waCcsICc3LjQnLCAnLXRuJywgJzgnLCAnLW1hJywgJzUwMCcsICctaW1hZScsICc8aW5maWxlLm1hZT4nLCAnLW9tYWUnLCAnPG91dGZpbGUubWFlPic=

>  <s_epik_input>  (1) 
TzFbQ0gyXVtOSF1bQ0gyXWMoYzEyKVtjSF1bY0hdW2NIXVtjSF0y

>  <s_glide_docking_method>  (1) 
confgen

>  <s_i_glide_gridfile>  (1) 
gpcr_drd2_6luq_protein_autoprepared_prepared

>  <s_lp_Force_Field>  (1) 
S-OPLS

>  <s_lp_Variant>  (1) 
Pocket2Mol_48_num_sample_100-1

>  <s_m_source_file>  (1) 
generated__ligand_Pocket2Mol_2026-05-06_prepared.sdf

>  <GenAI_Model>  (1) 
Pocket2Mol

>  <Protein>  (1) 
generic_title2

$$$$
Pocket2Mol_56_num_sample_100
     RDKit          3D

  0  0  0  0  0  0  0  0  0  0999 V3000
M  V30 BEGIN CTAB
M  V30 COUNTS 19 20 0 0 1
M  V30 BEGIN ATOM
M  V30 1 C 10.214996 6.676337 -6.782246 0
M  V30 2 O 11.036145 6.169302 -5.736945 0
M  V30 3 C 11.430685 7.089610 -4.791373 0
M  V30 4 C 11.434838 8.479396 -5.091240 0
M  V30 5 C 11.835073 9.401081 -4.110888 0
M  V30 6 C 11.834860 6.648716 -3.515022 0
M  V30 7 C 12.236267 7.579770 -2.540067 0
M  V30 8 N 11.037583 8.941467 -6.355223 0
M  V30 9 C 10.879314 7.918547 -7.375240 0
M  V30 10 C 12.234879 8.954587 -2.836825 0
M  V30 11 H 10.087664 5.908123 -7.545587 0
M  V30 12 H 9.220976 6.912004 -6.396420 0
M  V30 13 H 11.832076 10.454373 -4.335984 0
M  V30 14 H 11.834526 5.596779 -3.284720 0
M  V30 15 H 12.544798 7.238549 -1.563232 0
M  V30 16 H 11.222815 9.895413 -6.627414 0
M  V30 17 H 11.854027 7.669653 -7.796125 0
M  V30 18 H 10.266926 8.315866 -8.185339 0
M  V30 19 H 12.541124 9.668033 -2.086791 0
M  V30 END ATOM
M  V30 BEGIN BOND
M  V30 1 1 2 1
M  V30 2 1 3 2
M  V30 3 1 4 3
M  V30 4 2 5 4
M  V30 5 2 6 3
M  V30 6 1 7 6
M  V30 7 1 8 4
M  V30 8 1 9 1
M  V30 9 1 9 8
M  V30 10 1 10 5
M  V30 11 2 10 7
M  V30 12 1 11 1
M  V30 13 1 12 1
M  V30 14 1 13 5
M  V30 15 1 14 6
M  V30 16 1 15 7
M  V30 17 1 16 8
M  V30 18 1 17 9
M  V30 19 1 18 9
M  V30 20 1 19 10
M  V30 END BOND
M  V30 END CTAB
M  END
>  <i_epik_Tot_Q>  (1) 
0

>  <i_epik_Tot_abs_Q>  (1) 
0

>  <i_i_glide_confnum>  (1) 
1

>  <i_i_glide_lignum>  (1) 
63

>  <i_i_glide_posenum>  (1) 
298

>  <i_i_glide_rotatable_bonds>  (1) 
0

>  <i_lp_mmshare_version>  (1) 
72125

>  <i_m_source_file_index>  (1) 
57

>  <i_f3d_flags>  (1) 
0

>  <num_sample>  (1) 
100

>  <b_lp_Chiralities_Consistent>  (1) 
1

>  <r_epik_Charging_Adjusted_Penalty>  (1) 
0

>  <r_epik_Ionization_Penalty>  (1) 
0.00026422915675488977

>  <r_epik_Ionization_Penalty_Charging>  (1) 
0

>  <r_epik_Ionization_Penalty_Neutral>  (1) 
0.00026422915675488977

>  <r_epik_State_Penalty>  (1) 
-0

>  <r_glide_ring_energy>  (1) 
0

>  <r_i_docking_score>  (1) 
-5.7758058023876062

>  <r_i_glide_ecoul>  (1) 
-0.3741366091419121

>  <r_i_glide_eff_state_penalty>  (1) 
-0

>  <r_i_glide_einternal>  (1) 
0

>  <r_i_glide_emodel>  (1) 
-28.651267902399248

>  <r_i_glide_emodel_strain>  (1) 
0

>  <r_i_glide_energy>  (1) 
-20.886726224827445

>  <r_i_glide_erotb>  (1) 
0

>  <r_i_glide_esite>  (1) 
0

>  <r_i_glide_evdw>  (1) 
-20.512589615685531

>  <r_i_glide_gscore>  (1) 
-5.7758058023876062

>  <r_i_glide_gscore_strain>  (1) 
0

>  <r_i_glide_hbond>  (1) 
0

>  <r_i_glide_ligand_efficiency>  (1) 
-0.57758058023876058

>  <r_i_glide_ligand_efficiency_ln>  (1) 
-1.7488741818159776

>  <r_i_glide_ligand_efficiency_sa>  (1) 
-1.2443596383551299

>  <r_i_glide_lipo>  (1) 
-1.9864411391781658

>  <r_i_glide_metal>  (1) 
-0

>  <r_i_glide_rewards>  (1) 
-2.7076146910538768

>  <r_lp_Energy>  (1) 
15.245389999999999

>  <r_lp_tautomer_probability>  (1) 
1

>  <s_epik_cmdline>  (1) 
J2VwaWtfcHl0aG9uJywgJy1waHQnLCAnMS4wJywgJy1waCcsICc3LjQnLCAnLXRuJywgJzgnLCAnLW1hJywgJzUwMCcsICctaW1hZScsICc8aW5maWxlLm1hZT4nLCAnLW9tYWUnLCAnPG91dGZpbGUubWFlPic=

>  <s_epik_input>  (1) 
TzFbQ0gyXVtDSDJdW05IXWMoYzEyKVtjSF1bY0hdW2NIXVtjSF0y

>  <s_glide_docking_method>  (1) 
confgen

>  <s_i_glide_gridfile>  (1) 
gpcr_drd2_6luq_protein_autoprepared_prepared

>  <s_lp_Force_Field>  (1) 
S-OPLS

>  <s_lp_Variant>  (1) 
Pocket2Mol_56_num_sample_100-1

>  <s_m_source_file>  (1) 
generated__ligand_Pocket2Mol_2026-05-06_prepared.sdf

>  <GenAI_Model>  (1) 
Pocket2Mol

>  <Protein>  (1) 
generic_title2

$$$$
Pocket2Mol_58_num_sample_100
     RDKit          3D

  0  0  0  0  0  0  0  0  0  0999 V3000
M  V30 BEGIN CTAB
M  V30 COUNTS 18 19 0 0 1
M  V30 BEGIN ATOM
M  V30 1 C 10.552329 8.169303 -8.842530 0
M  V30 2 O 11.242142 8.969301 -7.854327 0
M  V30 3 C 11.422444 8.540402 -6.546109 0
M  V30 4 C 11.008781 7.246654 -6.150387 0
M  V30 5 C 11.218861 6.816114 -4.823639 0
M  V30 6 C 12.030062 9.400091 -5.608286 0
M  V30 7 C 12.234838 8.969299 -4.282248 0
M  V30 8 C 10.372630 6.382825 -7.119476 0
M  V30 9 C 11.834839 7.675762 -3.891664 0
M  V30 10 C 10.156743 6.792710 -8.363449 0
M  V30 11 H 11.194669 8.067989 -9.717478 0
M  V30 12 H 9.654420 8.699238 -9.162315 0
M  V30 13 H 10.906276 5.826956 -4.520019 0
M  V30 14 H 12.343130 10.388968 -5.908181 0
M  V30 15 H 12.703083 9.628796 -3.566072 0
M  V30 16 H 10.073342 5.396381 -6.804163 0
M  V30 17 H 11.994653 7.344561 -2.875952 0
M  V30 18 H 9.676070 6.139488 -9.077387 0
M  V30 END ATOM
M  V30 BEGIN BOND
M  V30 1 1 2 1
M  V30 2 1 3 2
M  V30 3 1 4 3
M  V30 4 2 5 4
M  V30 5 2 6 3
M  V30 6 1 7 6
M  V30 7 1 8 4
M  V30 8 1 9 5
M  V30 9 2 9 7
M  V30 10 1 10 1
M  V30 11 2 10 8
M  V30 12 1 11 1
M  V30 13 1 12 1
M  V30 14 1 13 5
M  V30 15 1 14 6
M  V30 16 1 15 7
M  V30 17 1 16 8
M  V30 18 1 17 9
M  V30 19 1 18 10
M  V30 END BOND
M  V30 END CTAB
M  END
>  <i_epik_Tot_Q>  (1) 
0

>  <i_epik_Tot_abs_Q>  (1) 
0

>  <i_i_glide_confnum>  (1) 
1

>  <i_i_glide_lignum>  (1) 
65

>  <i_i_glide_posenum>  (1) 
141

>  <i_i_glide_rotatable_bonds>  (1) 
0

>  <i_lp_mmshare_version>  (1) 
72125

>  <i_m_source_file_index>  (1) 
59

>  <i_f3d_flags>  (1) 
0

>  <num_sample>  (1) 
100

>  <b_lp_Chiralities_Consistent>  (1) 
1

>  <r_epik_Charging_Adjusted_Penalty>  (1) 
0

>  <r_epik_Ionization_Penalty>  (1) 
0

>  <r_epik_Ionization_Penalty_Charging>  (1) 
0

>  <r_epik_Ionization_Penalty_Neutral>  (1) 
0

>  <r_epik_State_Penalty>  (1) 
-0

>  <r_glide_ring_energy>  (1) 
0

>  <r_i_docking_score>  (1) 
-5.7692811164012108

>  <r_i_glide_ecoul>  (1) 
-1.095182626727188

>  <r_i_glide_eff_state_penalty>  (1) 
-0

>  <r_i_glide_einternal>  (1) 
0

>  <r_i_glide_emodel>  (1) 
-27.102179608790969

>  <r_i_glide_emodel_strain>  (1) 
0

>  <r_i_glide_energy>  (1) 
-19.522544865444399

>  <r_i_glide_erotb>  (1) 
0

>  <r_i_glide_esite>  (1) 
0

>  <r_i_glide_evdw>  (1) 
-18.427362238717212

>  <r_i_glide_gscore>  (1) 
-5.7692811164012108

>  <r_i_glide_gscore_strain>  (1) 
0

>  <r_i_glide_hbond>  (1) 
0

>  <r_i_glide_ligand_efficiency>  (1) 
-0.57692811164012103

>  <r_i_glide_ligand_efficiency_ln>  (1) 
-1.7468985518768017

>  <r_i_glide_ligand_efficiency_sa>  (1) 
-1.2429539373720644

>  <r_i_glide_lipo>  (1) 
-1.7977285159553791

>  <r_i_glide_metal>  (1) 
-0

>  <r_i_glide_rewards>  (1) 
-2.8859070945008924

>  <r_lp_Energy>  (1) 
15.262369

>  <r_lp_tautomer_probability>  (1) 
1

>  <s_epik_cmdline>  (1) 
J2VwaWtfcHl0aG9uJywgJy1waHQnLCAnMS4wJywgJy1waCcsICc3LjQnLCAnLXRuJywgJzgnLCAnLW1hJywgJzUwMCcsICctaW1hZScsICc8aW5maWxlLm1hZT4nLCAnLW9tYWUnLCAnPG91dGZpbGUubWFlPic=

>  <s_epik_input>  (1) 
TzFbQ0gyXVtDSF09W0NIXWMoYzEyKVtjSF1bY0hdW2NIXVtjSF0y

>  <s_glide_docking_method>  (1) 
confgen

>  <s_i_glide_gridfile>  (1) 
gpcr_drd2_6luq_protein_autoprepared_prepared

>  <s_lp_Force_Field>  (1) 
S-OPLS

>  <s_lp_Variant>  (1) 
Pocket2Mol_58_num_sample_100-1

>  <s_m_source_file>  (1) 
generated__ligand_Pocket2Mol_2026-05-06_prepared.sdf

>  <GenAI_Model>  (1) 
Pocket2Mol

>  <Protein>  (1) 
generic_title2

$$$$
Pocket2Mol_50_num_sample_100
     RDKit          3D

  0  0  0  0  0  0  0  0  0  0999 V3000
M  V30 BEGIN CTAB
M  V30 COUNTS 16 17 0 0 1
M  V30 BEGIN ATOM
M  V30 1 C 9.910783 7.556930 -7.407279 0
M  V30 2 O 10.230847 6.541356 -6.408635 0
M  V30 3 C 10.904895 7.291788 -5.533285 0
M  V30 4 C 11.034882 8.568355 -5.895592 0
M  V30 5 C 11.710167 9.500801 -5.091886 0
M  V30 6 C 11.434839 6.807801 -4.325858 0
M  V30 7 C 12.121965 7.707930 -3.476786 0
M  V30 8 O 12.634815 7.276031 -2.291771 0
M  V30 9 C 12.261711 9.066526 -3.863550 0
M  V30 10 O 10.468052 8.864157 -7.067769 0
M  V30 11 H 10.301243 7.241148 -8.375284 0
M  V30 12 H 8.824986 7.642202 -7.487120 0
M  V30 13 H 11.802902 10.530613 -5.404186 0
M  V30 14 H 11.314527 5.770524 -4.048749 0
M  V30 15 H 13.018981 7.974694 -1.784589 0
M  V30 16 H 12.782096 9.765393 -3.224416 0
M  V30 END ATOM
M  V30 BEGIN BOND
M  V30 1 1 2 1
M  V30 2 1 3 2
M  V30 3 2 4 3
M  V30 4 1 5 4
M  V30 5 1 6 3
M  V30 6 2 7 6
M  V30 7 1 8 7
M  V30 8 2 9 5
M  V30 9 1 9 7
M  V30 10 1 10 1
M  V30 11 1 10 4
M  V30 12 1 11 1
M  V30 13 1 12 1
M  V30 14 1 13 5
M  V30 15 1 14 6
M  V30 16 1 15 8
M  V30 17 1 16 9
M  V30 END BOND
M  V30 END CTAB
M  END
>  <i_epik_Tot_Q>  (1) 
0

>  <i_epik_Tot_abs_Q>  (1) 
0

>  <i_i_glide_confnum>  (1) 
1

>  <i_i_glide_lignum>  (1) 
57

>  <i_i_glide_posenum>  (1) 
113

>  <i_i_glide_rotatable_bonds>  (1) 
1

>  <i_lp_mmshare_version>  (1) 
72125

>  <i_m_source_file_index>  (1) 
51

>  <i_f3d_flags>  (1) 
0

>  <num_sample>  (1) 
100

>  <b_lp_Chiralities_Consistent>  (1) 
1

>  <r_epik_Charging_Adjusted_Penalty>  (1) 
0

>  <r_epik_Ionization_Penalty>  (1) 
0.0018243540331301816

>  <r_epik_Ionization_Penalty_Charging>  (1) 
0

>  <r_epik_Ionization_Penalty_Neutral>  (1) 
0.0018243540331301816

>  <r_epik_State_Penalty>  (1) 
-0

>  <r_glide_ring_energy>  (1) 
0

>  <r_i_docking_score>  (1) 
-5.7647080885222586

>  <r_i_glide_ecoul>  (1) 
-0.95815519904943769

>  <r_i_glide_eff_state_penalty>  (1) 
-0

>  <r_i_glide_einternal>  (1) 
0.013253676219592309

>  <r_i_glide_emodel>  (1) 
-31.186219129275429

>  <r_i_glide_emodel_strain>  (1) 
0

>  <r_i_glide_energy>  (1) 
-21.957291091057158

>  <r_i_glide_erotb>  (1) 
0

>  <r_i_glide_esite>  (1) 
-0.049902988401896664

>  <r_i_glide_evdw>  (1) 
-20.999135892007722

>  <r_i_glide_gscore>  (1) 
-5.7647080885222586

>  <r_i_glide_gscore_strain>  (1) 
0

>  <r_i_glide_hbond>  (1) 
0

>  <r_i_glide_ligand_efficiency>  (1) 
-0.5764708088522259

>  <r_i_glide_ligand_efficiency_ln>  (1) 
-1.7455138705589293

>  <r_i_glide_ligand_efficiency_sa>  (1) 
-1.2419687083819746

>  <r_i_glide_lipo>  (1) 
-1.8296407588900232

>  <r_i_glide_metal>  (1) 
-0

>  <r_i_glide_rewards>  (1) 
-2.6914842667725374

>  <r_lp_Energy>  (1) 
16.555202999999999

>  <r_lp_tautomer_probability>  (1) 
1

>  <s_epik_Chemistry_Notes>  (1) 
This compound contains an acetal/aminal-like group ( X-CH(R)-Y where X, Y are N, S, or O) that may be acid/base labile, releasing an aldehyde.

>  <s_epik_cmdline>  (1) 
J2VwaWtfcHl0aG9uJywgJy1waHQnLCAnMS4wJywgJy1waCcsICc3LjQnLCAnLXRuJywgJzgnLCAnLW1hJywgJzUwMCcsICctaW1hZScsICc8aW5maWxlLm1hZT4nLCAnLW9tYWUnLCAnPG91dGZpbGUubWFlPic=

>  <s_epik_input>  (1) 
TzFbQ0gyXU9jKGMxMilbY0hdW2NIXWMoW2NIXTIpW09IXQ==

>  <s_glide_docking_method>  (1) 
confgen

>  <s_i_glide_gridfile>  (1) 
gpcr_drd2_6luq_protein_autoprepared_prepared

>  <s_lp_Force_Field>  (1) 
S-OPLS

>  <s_lp_Variant>  (1) 
Pocket2Mol_50_num_sample_100-1

>  <s_m_source_file>  (1) 
generated__ligand_Pocket2Mol_2026-05-06_prepared.sdf

>  <GenAI_Model>  (1) 
Pocket2Mol

>  <Protein>  (1) 
generic_title2

$$$$
Pocket2Mol_32_num_sample_100
     RDKit          3D

  0  0  0  0  0  0  0  0  0  0999 V3000
M  V30 BEGIN CTAB
M  V30 COUNTS 17 18 0 0 1
M  V30 BEGIN ATOM
M  V30 1 C 11.149900 8.843737 -6.643196 0
M  V30 2 O 11.034895 7.466360 -6.124398 0
M  V30 3 C 11.434838 7.619512 -4.843539 0
M  V30 4 C 11.834839 8.860323 -4.496668 0
M  V30 5 C 12.267762 9.154486 -3.191893 0
M  V30 6 C 11.777739 9.850027 -5.573219 0
M  V30 7 C 11.434839 6.569301 -3.914844 0
M  V30 8 C 11.866334 6.819375 -2.592256 0
M  V30 9 C 12.285345 8.122739 -2.228352 0
M  V30 10 H 11.738571 8.842027 -7.561071 0
M  V30 11 H 10.146601 9.174393 -6.913586 0
M  V30 12 H 12.583087 10.152029 -2.928657 0
M  V30 13 H 11.126953 10.691083 -5.333229 0
M  V30 14 H 12.776608 10.184413 -5.853220 0
M  V30 15 H 11.108514 5.584922 -4.207818 0
M  V30 16 H 11.873635 6.021478 -1.863678 0
M  V30 17 H 12.615448 8.327018 -1.220365 0
M  V30 END ATOM
M  V30 BEGIN BOND
M  V30 1 1 2 1
M  V30 2 1 3 2
M  V30 3 1 4 3
M  V30 4 2 5 4
M  V30 5 1 6 1
M  V30 6 1 6 4
M  V30 7 2 7 3
M  V30 8 1 8 7
M  V30 9 1 9 5
M  V30 10 2 9 8
M  V30 11 1 10 1
M  V30 12 1 11 1
M  V30 13 1 12 5
M  V30 14 1 13 6
M  V30 15 1 14 6
M  V30 16 1 15 7
M  V30 17 1 16 8
M  V30 18 1 17 9
M  V30 END BOND
M  V30 END CTAB
M  END
>  <i_epik_Tot_Q>  (1) 
0

>  <i_epik_Tot_abs_Q>  (1) 
0

>  <i_i_glide_confnum>  (1) 
1

>  <i_i_glide_lignum>  (1) 
36

>  <i_i_glide_posenum>  (1) 
77

>  <i_i_glide_rotatable_bonds>  (1) 
0

>  <i_lp_mmshare_version>  (1) 
72125

>  <i_m_source_file_index>  (1) 
33

>  <i_f3d_flags>  (1) 
0

>  <num_sample>  (1) 
100

>  <b_lp_Chiralities_Consistent>  (1) 
1

>  <r_epik_Charging_Adjusted_Penalty>  (1) 
0

>  <r_epik_Ionization_Penalty>  (1) 
0

>  <r_epik_Ionization_Penalty_Charging>  (1) 
0

>  <r_epik_Ionization_Penalty_Neutral>  (1) 
0

>  <r_epik_State_Penalty>  (1) 
-0

>  <r_glide_ring_energy>  (1) 
0

>  <r_i_docking_score>  (1) 
-5.7588288754816608

>  <r_i_glide_ecoul>  (1) 
-0.42127388351248646

>  <r_i_glide_eff_state_penalty>  (1) 
-0

>  <r_i_glide_einternal>  (1) 
0

>  <r_i_glide_emodel>  (1) 
-27.086016349021783

>  <r_i_glide_emodel_strain>  (1) 
0

>  <r_i_glide_energy>  (1) 
-19.556779851597017

>  <r_i_glide_erotb>  (1) 
0

>  <r_i_glide_esite>  (1) 
0

>  <r_i_glide_evdw>  (1) 
-19.13550596808453

>  <r_i_glide_gscore>  (1) 
-5.7588288754816608

>  <r_i_glide_gscore_strain>  (1) 
0

>  <r_i_glide_hbond>  (1) 
0

>  <r_i_glide_ligand_efficiency>  (1) 
-0.63986987505351789

>  <r_i_glide_ligand_efficiency_ln>  (1) 
-1.801196236355612

>  <r_i_glide_ligand_efficiency_sa>  (1) 
-1.3309829759570659

>  <r_i_glide_lipo>  (1) 
-2.1971958278838937

>  <r_i_glide_metal>  (1) 
-0

>  <r_i_glide_rewards>  (1) 
-2.5416666666666665

>  <r_lp_Energy>  (1) 
11.954839999999999

>  <r_lp_tautomer_probability>  (1) 
1

>  <s_epik_cmdline>  (1) 
J2VwaWtfcHl0aG9uJywgJy1waHQnLCAnMS4wJywgJy1waCcsICc3LjQnLCAnLXRuJywgJzgnLCAnLW1hJywgJzUwMCcsICctaW1hZScsICc8aW5maWxlLm1hZT4nLCAnLW9tYWUnLCAnPG91dGZpbGUubWFlPic=

>  <s_epik_input>  (1) 
TzFbQ0gyXVtDSDJdYyhjMTIpW2NIXVtjSF1bY0hdW2NIXTI=

>  <s_glide_docking_method>  (1) 
confgen

>  <s_i_glide_gridfile>  (1) 
gpcr_drd2_6luq_protein_autoprepared_prepared

>  <s_lp_Force_Field>  (1) 
S-OPLS

>  <s_lp_Variant>  (1) 
Pocket2Mol_32_num_sample_100-1

>  <s_m_source_file>  (1) 
generated__ligand_Pocket2Mol_2026-05-06_prepared.sdf

>  <GenAI_Model>  (1) 
Pocket2Mol

>  <Protein>  (1) 
generic_title2

$$$$
Pocket2Mol_48_num_sample_100
     RDKit          3D

  0  0  0  0  0  0  0  0  0  0999 V3000
M  V30 BEGIN CTAB
M  V30 COUNTS 19 20 0 0 1
M  V30 BEGIN ATOM
M  V30 1 C 12.324570 8.603034 -1.964722 0
M  V30 2 O 12.473027 9.326760 -3.155799 0
M  V30 3 C 11.957393 8.747629 -4.296983 0
M  V30 4 C 11.563283 7.388364 -4.291674 0
M  V30 5 C 11.034837 6.802636 -5.457521 0
M  V30 6 C 11.834853 9.506145 -5.477630 0
M  V30 7 C 11.316618 8.911640 -6.645749 0
M  V30 8 C 11.714386 6.569300 -3.031530 0
M  V30 9 C 10.912033 7.563619 -6.633677 0
M  V30 10 N 12.634837 7.208558 -2.117910 0
M  V30 11 H 13.000379 9.043660 -1.231507 0
M  V30 12 H 11.309317 8.724485 -1.592587 0
M  V30 13 H 10.729150 5.769302 -5.450951 0
M  V30 14 H 12.141571 10.541371 -5.489590 0
M  V30 15 H 11.229886 9.487289 -7.550784 0
M  V30 16 H 10.743091 6.427776 -2.555856 0
M  V30 17 H 12.104513 5.585254 -3.284629 0
M  V30 18 H 10.510456 7.112081 -7.529639 0
M  V30 19 H 12.608333 6.720270 -1.234603 0
M  V30 END ATOM
M  V30 BEGIN BOND
M  V30 1 1 2 1
M  V30 2 1 3 2
M  V30 3 1 4 3
M  V30 4 2 5 4
M  V30 5 2 6 3
M  V30 6 1 7 6
M  V30 7 1 8 4
M  V30 8 1 9 5
M  V30 9 2 9 7
M  V30 10 1 10 1
M  V30 11 1 10 8
M  V30 12 1 11 1
M  V30 13 1 12 1
M  V30 14 1 13 5
M  V30 15 1 14 6
M  V30 16 1 15 7
M  V30 17 1 16 8
M  V30 18 1 17 8
M  V30 19 1 18 9
M  V30 20 1 19 10
M  V30 END BOND
M  V30 END CTAB
M  END
>  <i_epik_Tot_Q>  (1) 
0

>  <i_epik_Tot_abs_Q>  (1) 
0

>  <i_i_glide_confnum>  (1) 
1

>  <i_i_glide_lignum>  (1) 
54

>  <i_i_glide_posenum>  (1) 
108

>  <i_i_glide_rotatable_bonds>  (1) 
0

>  <i_lp_mmshare_version>  (1) 
72125

>  <i_m_source_file_index>  (1) 
49

>  <i_f3d_flags>  (1) 
0

>  <num_sample>  (1) 
100

>  <b_lp_Chiralities_Consistent>  (1) 
1

>  <r_epik_Charging_Adjusted_Penalty>  (1) 
0.1493798173009977

>  <r_epik_Ionization_Penalty>  (1) 
0.14937981730099775

>  <r_epik_Ionization_Penalty_Charging>  (1) 
0

>  <r_epik_Ionization_Penalty_Neutral>  (1) 
0.14937981730099775

>  <r_epik_State_Penalty>  (1) 
0.1493798173009977

>  <r_glide_ring_energy>  (1) 
0

>  <r_i_docking_score>  (1) 
-5.7499501473797832

>  <r_i_glide_ecoul>  (1) 
-1.5896137428453021

>  <r_i_glide_eff_state_penalty>  (1) 
0.1493798173009977

>  <r_i_glide_einternal>  (1) 
0

>  <r_i_glide_emodel>  (1) 
-29.073552032039693

>  <r_i_glide_emodel_strain>  (1) 
0

>  <r_i_glide_energy>  (1) 
-20.959333890883041

>  <r_i_glide_erotb>  (1) 
0

>  <r_i_glide_esite>  (1) 
0

>  <r_i_glide_evdw>  (1) 
-19.369720148037739

>  <r_i_glide_gscore>  (1) 
-5.8993299646807804

>  <r_i_glide_gscore_strain>  (1) 
0

>  <r_i_glide_hbond>  (1) 
0

>  <r_i_glide_ligand_efficiency>  (1) 
-0.57499501473797832

>  <r_i_glide_ligand_efficiency_ln>  (1) 
-1.7410452677139088

>  <r_i_glide_ligand_efficiency_sa>  (1) 
-1.2387892063468948

>  <r_i_glide_lipo>  (1) 
-1.7547739295675542

>  <r_i_glide_metal>  (1) 
-0

>  <r_i_glide_rewards>  (1) 
-2.9376279662845439

>  <r_lp_Energy>  (1) 
22.191175999999999

>  <r_lp_tautomer_probability>  (1) 
1

>  <s_epik_Chemistry_Notes>  (1) 
This compound contains an acetal/aminal-like group ( X-CH(R)-Y where X, Y are N, S, or O) that may be acid/base labile, releasing an aldehyde.

>  <s_epik_cmdline>  (1) 
J2VwaWtfcHl0aG9uJywgJy1waHQnLCAnMS4wJywgJy1waCcsICc3LjQnLCAnLXRuJywgJzgnLCAnLW1hJywgJzUwMCcsICctaW1hZScsICc8aW5maWxlLm1hZT4nLCAnLW9tYWUnLCAnPG91dGZpbGUubWFlPic=

>  <s_epik_input>  (1) 
TzFbQ0gyXVtOSF1bQ0gyXWMoYzEyKVtjSF1bY0hdW2NIXVtjSF0y

>  <s_glide_docking_method>  (1) 
confgen

>  <s_i_glide_gridfile>  (1) 
gpcr_drd2_6luq_protein_autoprepared_prepared

>  <s_lp_Force_Field>  (1) 
S-OPLS

>  <s_lp_Variant>  (1) 
Pocket2Mol_48_num_sample_100-1

>  <s_m_source_file>  (1) 
generated__ligand_Pocket2Mol_2026-05-06_prepared.sdf

>  <GenAI_Model>  (1) 
Pocket2Mol

>  <Protein>  (1) 
generic_title2

$$$$
Pocket2Mol_46_num_sample_100
     RDKit          3D

  0  0  0  0  0  0  0  0  0  0999 V3000
M  V30 BEGIN CTAB
M  V30 COUNTS 18 19 0 0 1
M  V30 BEGIN ATOM
M  V30 1 C 10.759696 8.330378 -6.823302 0
M  V30 2 O 11.035014 7.228720 -5.972549 0
M  V30 3 C 11.434861 7.547305 -4.692862 0
M  V30 4 C 11.434839 6.555300 -3.701468 0
M  V30 5 C 11.884165 9.355155 -6.661920 0
M  V30 6 C 11.842043 8.867687 -4.368281 0
M  V30 7 O 11.858474 9.849785 -5.331386 0
M  V30 8 C 11.836034 6.862990 -2.388454 0
M  V30 9 C 12.234946 9.171911 -3.051644 0
M  V30 10 C 12.234860 8.171503 -2.064235 0
M  V30 11 H 10.705415 7.977513 -7.853530 0
M  V30 12 H 9.789765 8.765495 -6.575715 0
M  V30 13 H 11.124733 5.554318 -3.948268 0
M  V30 14 H 12.859392 8.922231 -6.881400 0
M  V30 15 H 11.770044 10.169411 -7.363998 0
M  V30 16 H 11.834707 6.093831 -1.629683 0
M  V30 17 H 12.544002 10.169300 -2.798716 0
M  V30 18 H 12.541795 8.409536 -1.057988 0
M  V30 END ATOM
M  V30 BEGIN BOND
M  V30 1 1 2 1
M  V30 2 1 3 2
M  V30 3 2 4 3
M  V30 4 1 5 1
M  V30 5 1 6 3
M  V30 6 1 7 5
M  V30 7 1 7 6
M  V30 8 1 8 4
M  V30 9 2 9 6
M  V30 10 2 10 8
M  V30 11 1 10 9
M  V30 12 1 11 1
M  V30 13 1 12 1
M  V30 14 1 13 4
M  V30 15 1 14 5
M  V30 16 1 15 5
M  V30 17 1 16 8
M  V30 18 1 17 9
M  V30 19 1 18 10
M  V30 END BOND
M  V30 END CTAB
M  END
>  <i_epik_Tot_Q>  (1) 
0

>  <i_epik_Tot_abs_Q>  (1) 
0

>  <i_i_glide_confnum>  (1) 
2

>  <i_i_glide_lignum>  (1) 
52

>  <i_i_glide_posenum>  (1) 
239

>  <i_i_glide_rotatable_bonds>  (1) 
0

>  <i_lp_mmshare_version>  (1) 
72125

>  <i_m_source_file_index>  (1) 
47

>  <i_f3d_flags>  (1) 
0

>  <num_sample>  (1) 
100

>  <b_lp_Chiralities_Consistent>  (1) 
1

>  <r_epik_Charging_Adjusted_Penalty>  (1) 
0

>  <r_epik_Ionization_Penalty>  (1) 
0

>  <r_epik_Ionization_Penalty_Charging>  (1) 
0

>  <r_epik_Ionization_Penalty_Neutral>  (1) 
0

>  <r_epik_State_Penalty>  (1) 
-0

>  <r_glide_ring_energy>  (1) 
0.0030885007139812575

>  <r_i_docking_score>  (1) 
-5.749596140230917

>  <r_i_glide_ecoul>  (1) 
-0.76259305993885174

>  <r_i_glide_eff_state_penalty>  (1) 
-0

>  <r_i_glide_einternal>  (1) 
0

>  <r_i_glide_emodel>  (1) 
-27.750420081902373

>  <r_i_glide_emodel_strain>  (1) 
0

>  <r_i_glide_energy>  (1) 
-20.011594070179381

>  <r_i_glide_erotb>  (1) 
0

>  <r_i_glide_esite>  (1) 
0

>  <r_i_glide_evdw>  (1) 
-19.24900101024053

>  <r_i_glide_gscore>  (1) 
-5.749596140230917

>  <r_i_glide_gscore_strain>  (1) 
0

>  <r_i_glide_hbond>  (1) 
0

>  <r_i_glide_ligand_efficiency>  (1) 
-0.5749596140230917

>  <r_i_glide_ligand_efficiency_ln>  (1) 
-1.7409380767895577

>  <r_i_glide_ligand_efficiency_sa>  (1) 
-1.2387129378186912

>  <r_i_glide_lipo>  (1) 
-1.9822733511658914

>  <r_i_glide_metal>  (1) 
-0

>  <r_i_glide_rewards>  (1) 
-2.6904837795621712

>  <r_lp_Energy>  (1) 
16.729797999999999

>  <r_lp_tautomer_probability>  (1) 
1

>  <s_epik_cmdline>  (1) 
J2VwaWtfcHl0aG9uJywgJy1waHQnLCAnMS4wJywgJy1waCcsICc3LjQnLCAnLXRuJywgJzgnLCAnLW1hJywgJzUwMCcsICctaW1hZScsICc8aW5maWxlLm1hZT4nLCAnLW9tYWUnLCAnPG91dGZpbGUubWFlPic=

>  <s_epik_input>  (1) 
TzFbQ0gyXVtDSDJdT2MoYzEyKVtjSF1bY0hdW2NIXVtjSF0y

>  <s_glide_docking_method>  (1) 
confgen

>  <s_i_glide_gridfile>  (1) 
gpcr_drd2_6luq_protein_autoprepared_prepared

>  <s_lp_Force_Field>  (1) 
S-OPLS

>  <s_lp_Variant>  (1) 
Pocket2Mol_46_num_sample_100-1

>  <s_m_source_file>  (1) 
generated__ligand_Pocket2Mol_2026-05-06_prepared.sdf

>  <GenAI_Model>  (1) 
Pocket2Mol

>  <Protein>  (1) 
generic_title2

$$$$
Pocket2Mol_79_num_sample_100
     RDKit          3D

  0  0  0  0  0  0  0  0  0  0999 V3000
M  V30 BEGIN CTAB
M  V30 COUNTS 24 25 0 0 1
M  V30 BEGIN ATOM
M  V30 1 C 12.488300 9.392833 -4.682211 0
M  V30 2 O 11.434847 8.536416 -4.307678 0
M  V30 3 C 12.234018 9.957936 -6.075983 0
M  V30 4 O 12.586411 8.969310 -7.016597 0
M  V30 5 C 11.338588 7.289542 -4.975553 0
M  V30 6 C 11.555643 8.148556 -7.387866 0
M  V30 7 C 11.151885 8.124727 -8.733512 0
M  V30 8 C 10.896597 7.320681 -6.437552 0
M  V30 9 C 11.857165 8.993886 -9.741971 0
M  V30 10 C 10.092394 7.292542 -9.140098 0
M  V30 11 C 9.434828 6.482307 -8.201557 0
M  V30 12 C 9.833910 6.496117 -6.855235 0
M  V30 13 H 12.458146 10.169314 -3.934219 0
M  V30 14 H 13.483007 8.969292 -4.592010 0
M  V30 15 H 11.202793 10.298873 -6.189091 0
M  V30 16 H 12.867945 10.816224 -6.291469 0
M  V30 17 H 10.588480 6.723488 -4.423531 0
M  V30 18 H 12.234825 6.692780 -4.855828 0
M  V30 19 H 12.895740 8.684612 -9.861082 0
M  V30 20 H 11.352701 8.901136 -10.691663 0
M  V30 21 H 11.834837 10.042526 -9.446105 0
M  V30 22 H 9.779700 7.278219 -10.174013 0
M  V30 23 H 8.617572 5.848633 -8.515596 0
M  V30 24 H 9.326286 5.866921 -6.140710 0
M  V30 END ATOM
M  V30 BEGIN BOND
M  V30 1 1 2 1
M  V30 2 1 3 1
M  V30 3 1 4 3
M  V30 4 1 5 2
M  V30 5 1 6 4
M  V30 6 2 7 6
M  V30 7 1 8 5
M  V30 8 1 8 6
M  V30 9 1 9 7
M  V30 10 1 10 7
M  V30 11 2 11 10
M  V30 12 2 12 8
M  V30 13 1 12 11
M  V30 14 1 13 1
M  V30 15 1 14 1
M  V30 16 1 15 3
M  V30 17 1 16 3
M  V30 18 1 17 5
M  V30 19 1 18 5
M  V30 20 1 19 9
M  V30 21 1 20 9
M  V30 22 1 21 9
M  V30 23 1 22 10
M  V30 24 1 23 11
M  V30 25 1 24 12
M  V30 END BOND
M  V30 END CTAB
M  END
>  <i_epik_Tot_Q>  (1) 
0

>  <i_epik_Tot_abs_Q>  (1) 
0

>  <i_i_glide_confnum>  (1) 
1

>  <i_i_glide_lignum>  (1) 
86

>  <i_i_glide_posenum>  (1) 
151

>  <i_i_glide_rotatable_bonds>  (1) 
0

>  <i_lp_mmshare_version>  (1) 
72125

>  <i_m_source_file_index>  (1) 
80

>  <i_f3d_flags>  (1) 
0

>  <num_sample>  (1) 
100

>  <b_lp_Chiralities_Consistent>  (1) 
1

>  <r_epik_Charging_Adjusted_Penalty>  (1) 
0

>  <r_epik_Ionization_Penalty>  (1) 
2.8363962595523293e-13

>  <r_epik_Ionization_Penalty_Charging>  (1) 
0

>  <r_epik_Ionization_Penalty_Neutral>  (1) 
2.8363962595523293e-13

>  <r_epik_State_Penalty>  (1) 
-0

>  <r_glide_ring_energy>  (1) 
0

>  <r_i_docking_score>  (1) 
-5.7376616393304047

>  <r_i_glide_ecoul>  (1) 
-0.86822720110588181

>  <r_i_glide_eff_state_penalty>  (1) 
-0

>  <r_i_glide_einternal>  (1) 
0

>  <r_i_glide_emodel>  (1) 
-26.9129833928789

>  <r_i_glide_emodel_strain>  (1) 
0

>  <r_i_glide_energy>  (1) 
-19.68197299039953

>  <r_i_glide_erotb>  (1) 
0

>  <r_i_glide_esite>  (1) 
0

>  <r_i_glide_evdw>  (1) 
-18.813745789293648

>  <r_i_glide_gscore>  (1) 
-5.7376616393304047

>  <r_i_glide_gscore_strain>  (1) 
0

>  <r_i_glide_hbond>  (1) 
0

>  <r_i_glide_ligand_efficiency>  (1) 
-0.47813846994420039

>  <r_i_glide_ligand_efficiency_ln>  (1) 
-1.6464319466575805

>  <r_i_glide_ligand_efficiency_sa>  (1) 
-1.0946638329155689

>  <r_i_glide_lipo>  (1) 
-1.7539110578017074

>  <r_i_glide_metal>  (1) 
-0

>  <r_i_glide_rewards>  (1) 
-2.9128292118981327

>  <r_lp_Energy>  (1) 
16.059718999999998

>  <r_lp_tautomer_probability>  (1) 
1

>  <s_epik_cmdline>  (1) 
J2VwaWtfcHl0aG9uJywgJy1waHQnLCAnMS4wJywgJy1waCcsICc3LjQnLCAnLXRuJywgJzgnLCAnLW1hJywgJzUwMCcsICctaW1hZScsICc8aW5maWxlLm1hZT4nLCAnLW9tYWUnLCAnPG91dGZpbGUubWFlPic=

>  <s_epik_input>  (1) 
TzFbQ0gyXVtDSDJdT1tDSDJdYyhjMTIpW2NIXVtjSF1bY0hdYzJbQ0gzXQ==

>  <s_glide_docking_method>  (1) 
confgen

>  <s_i_glide_gridfile>  (1) 
gpcr_drd2_6luq_protein_autoprepared_prepared

>  <s_lp_Force_Field>  (1) 
S-OPLS

>  <s_lp_Variant>  (1) 
Pocket2Mol_79_num_sample_100-1

>  <s_m_source_file>  (1) 
generated__ligand_Pocket2Mol_2026-05-06_prepared.sdf

>  <GenAI_Model>  (1) 
Pocket2Mol

>  <Protein>  (1) 
generic_title2

$$$$
Pocket2Mol_59_num_sample_100
     RDKit          3D

  0  0  0  0  0  0  0  0  0  0999 V3000
M  V30 BEGIN CTAB
M  V30 COUNTS 17 18 0 0 1
M  V30 BEGIN ATOM
M  V30 1 C 11.428242 8.979556 -5.099070 0
M  V30 2 O 10.353032 8.042362 -5.491671 0
M  V30 3 C 10.568973 7.900752 -6.808864 0
M  V30 4 C 11.547231 8.639512 -7.322192 0
M  V30 5 C 11.875933 8.569323 -8.685350 0
M  V30 6 N 11.174619 7.724690 -9.524986 0 CHG=1
M  V30 7 C 12.231752 9.518078 -6.362697 0
M  V30 8 O 11.468532 7.645969 -10.769647 0 CHG=-1
M  V30 9 C 10.147179 6.962976 -8.986924 0
M  V30 10 C 9.834834 7.044404 -7.612607 0
M  V30 11 H 12.104669 8.453984 -4.423781 0
M  V30 12 H 11.006070 9.810120 -4.532024 0
M  V30 13 H 12.655872 9.136346 -9.162810 0
M  V30 14 H 13.310048 9.369298 -6.306339 0
M  V30 15 H 11.999625 10.562991 -6.568484 0
M  V30 16 H 9.633623 6.328713 -9.694836 0
M  V30 17 H 9.034892 6.449980 -7.195262 0
M  V30 END ATOM
M  V30 BEGIN BOND
M  V30 1 1 2 1
M  V30 2 1 3 2
M  V30 3 2 4 3
M  V30 4 1 5 4
M  V30 5 2 6 5
M  V30 6 1 7 1
M  V30 7 1 7 4
M  V30 8 1 8 6
M  V30 9 1 9 6
M  V30 10 1 10 3
M  V30 11 2 10 9
M  V30 12 1 11 1
M  V30 13 1 12 1
M  V30 14 1 13 5
M  V30 15 1 14 7
M  V30 16 1 15 7
M  V30 17 1 16 9
M  V30 18 1 17 10
M  V30 END BOND
M  V30 END CTAB
M  END
>  <i_epik_Tot_Q>  (1) 
0

>  <i_epik_Tot_abs_Q>  (1) 
2

>  <i_i_glide_confnum>  (1) 
1

>  <i_i_glide_lignum>  (1) 
66

>  <i_i_glide_posenum>  (1) 
248

>  <i_i_glide_rotatable_bonds>  (1) 
0

>  <i_lp_mmshare_version>  (1) 
72125

>  <i_m_source_file_index>  (1) 
60

>  <i_f3d_flags>  (1) 
0

>  <num_sample>  (1) 
100

>  <b_lp_Chiralities_Consistent>  (1) 
1

>  <r_epik_Charging_Adjusted_Penalty>  (1) 
1.5203065777176405e-06

>  <r_epik_Ionization_Penalty>  (1) 
1.5203065777176405e-06

>  <r_epik_Ionization_Penalty_Charging>  (1) 
1.5203065777176405e-06

>  <r_epik_Ionization_Penalty_Neutral>  (1) 
0

>  <r_epik_State_Penalty>  (1) 
-0

>  <r_glide_ring_energy>  (1) 
0

>  <r_i_docking_score>  (1) 
-5.7342717157416123

>  <r_i_glide_ecoul>  (1) 
-3.0462652298266302

>  <r_i_glide_eff_state_penalty>  (1) 
-0

>  <r_i_glide_einternal>  (1) 
0

>  <r_i_glide_emodel>  (1) 
-28.344222662917474

>  <r_i_glide_emodel_strain>  (1) 
0

>  <r_i_glide_energy>  (1) 
-19.780206393451387

>  <r_i_glide_erotb>  (1) 
0

>  <r_i_glide_esite>  (1) 
0

>  <r_i_glide_evdw>  (1) 
-16.733941163624756

>  <r_i_glide_gscore>  (1) 
-5.7342717157416123

>  <r_i_glide_gscore_strain>  (1) 
0

>  <r_i_glide_hbond>  (1) 
0

>  <r_i_glide_ligand_efficiency>  (1) 
-0.57342717157416123

>  <r_i_glide_ligand_efficiency_ln>  (1) 
-1.736297946692134

>  <r_i_glide_ligand_efficiency_sa>  (1) 
-1.2354113906462381

>  <r_i_glide_lipo>  (1) 
-1.3185186787255618

>  <r_i_glide_metal>  (1) 
-0

>  <r_i_glide_rewards>  (1) 
-3.1221161943608182

>  <r_lp_Energy>  (1) 
12.910414999999999

>  <r_lp_tautomer_probability>  (1) 
1

>  <s_epik_cmdline>  (1) 
J2VwaWtfcHl0aG9uJywgJy1waHQnLCAnMS4wJywgJy1waCcsICc3LjQnLCAnLXRuJywgJzgnLCAnLW1hJywgJzUwMCcsICctaW1hZScsICc8aW5maWxlLm1hZT4nLCAnLW9tYWUnLCAnPG91dGZpbGUubWFlPic=

>  <s_epik_input>  (1) 
TzFbQ0gyXVtDSDJdYyhjMTIpW2NIXVtuK10oW08tXSlbY0hdW2NIXTI=

>  <s_glide_docking_method>  (1) 
confgen

>  <s_i_glide_gridfile>  (1) 
gpcr_drd2_6luq_protein_autoprepared_prepared

>  <s_lp_Force_Field>  (1) 
S-OPLS

>  <s_lp_Variant>  (1) 
Pocket2Mol_59_num_sample_100-1

>  <s_m_source_file>  (1) 
generated__ligand_Pocket2Mol_2026-05-06_prepared.sdf

>  <GenAI_Model>  (1) 
Pocket2Mol

>  <Protein>  (1) 
generic_title2

$$$$
Pocket2Mol_53_num_sample_100
     RDKit          3D

  0  0  0  0  0  0  0  0  0  0999 V3000
M  V30 BEGIN CTAB
M  V30 COUNTS 16 17 0 0 1
M  V30 BEGIN ATOM
M  V30 1 C 10.159493 6.644359 -7.151512 0
M  V30 2 O 10.727233 6.169302 -6.007060 0
M  V30 3 C 11.221190 7.139451 -5.131421 0
M  V30 4 C 11.191991 8.546199 -5.491613 0
M  V30 5 C 11.710414 9.473700 -4.559621 0
M  V30 6 C 11.751421 6.735891 -3.891667 0
M  V30 7 C 12.254782 7.684196 -2.992562 0
M  V30 8 N 10.684064 8.969303 -6.677621 0 CHG=-1
M  V30 9 C 12.235027 9.045476 -3.323257 0
M  V30 10 C 10.169592 7.974607 -7.408086 0
M  V30 11 H 9.729072 5.876099 -7.775519 0
M  V30 12 H 11.701909 10.527301 -4.797525 0
M  V30 13 H 11.768677 5.691413 -3.632415 0
M  V30 14 H 12.658410 7.365636 -2.043645 0
M  V30 15 H 12.625129 9.769632 -2.625690 0
M  V30 16 H 9.687865 8.294832 -8.356808 0
M  V30 END ATOM
M  V30 BEGIN BOND
M  V30 1 1 2 1
M  V30 2 1 3 2
M  V30 3 1 4 3
M  V30 4 2 5 4
M  V30 5 2 6 3
M  V30 6 1 7 6
M  V30 7 1 8 4
M  V30 8 1 9 5
M  V30 9 2 9 7
M  V30 10 2 10 1
M  V30 11 1 10 8
M  V30 12 1 11 1
M  V30 13 1 12 5
M  V30 14 1 13 6
M  V30 15 1 14 7
M  V30 16 1 15 9
M  V30 17 1 16 10
M  V30 END BOND
M  V30 END CTAB
M  END
>  <i_epik_Tot_Q>  (1) 
-1

>  <i_epik_Tot_abs_Q>  (1) 
1

>  <i_i_glide_confnum>  (1) 
1

>  <i_i_glide_lignum>  (1) 
60

>  <i_i_glide_posenum>  (1) 
65

>  <i_i_glide_rotatable_bonds>  (1) 
0

>  <i_lp_mmshare_version>  (1) 
72125

>  <i_m_source_file_index>  (1) 
54

>  <i_f3d_flags>  (1) 
0

>  <num_sample>  (1) 
100

>  <b_lp_Chiralities_Consistent>  (1) 
1

>  <r_epik_Charging_Adjusted_Penalty>  (1) 
0.016215214782958735

>  <r_epik_Ionization_Penalty>  (1) 
0.016215214782958842

>  <r_epik_Ionization_Penalty_Charging>  (1) 
0

>  <r_epik_Ionization_Penalty_Neutral>  (1) 
0.016215214782958842

>  <r_epik_State_Penalty>  (1) 
0.016215214782958735

>  <r_glide_ring_energy>  (1) 
0

>  <r_i_docking_score>  (1) 
-5.7305094365893341

>  <r_i_glide_ecoul>  (1) 
-0.57526975866950514

>  <r_i_glide_eff_state_penalty>  (1) 
0.016215214782958735

>  <r_i_glide_einternal>  (1) 
0

>  <r_i_glide_emodel>  (1) 
-27.289609585060198

>  <r_i_glide_emodel_strain>  (1) 
0

>  <r_i_glide_energy>  (1) 
-19.099726168378321

>  <r_i_glide_erotb>  (1) 
0

>  <r_i_glide_esite>  (1) 
0

>  <r_i_glide_evdw>  (1) 
-18.524456409708815

>  <r_i_glide_gscore>  (1) 
-5.7467246513722925

>  <r_i_glide_gscore_strain>  (1) 
0

>  <r_i_glide_hbond>  (1) 
0

>  <r_i_glide_ligand_efficiency>  (1) 
-0.57305094365893339

>  <r_i_glide_ligand_efficiency_ln>  (1) 
-1.7351587544998543

>  <r_i_glide_ligand_efficiency_sa>  (1) 
-1.2346008321743127

>  <r_i_glide_lipo>  (1) 
-1.9832043626678315

>  <r_i_glide_metal>  (1) 
-0

>  <r_i_glide_rewards>  (1) 
-2.7510070044185948

>  <r_lp_Energy>  (1) 
26.292493999999998

>  <s_epik_Chemistry_Notes>  (1) 
This compound has an imine and may undergo hydrolysis.

>  <s_epik_cmdline>  (1) 
J2VwaWtfcHl0aG9uJywgJy1waHQnLCAnMS4wJywgJy1waCcsICc3LjQnLCAnLXRuJywgJzgnLCAnLW1hJywgJzUwMCcsICctaW1hZScsICc8aW5maWxlLm1hZT4nLCAnLW9tYWUnLCAnPG91dGZpbGUubWFlPic=

>  <s_epik_input>  (1) 
TzFbQ0gyXVtDSF09TmMoYzEyKVtjSF1bY0hdW2NIXVtjSF0y

>  <s_glide_docking_method>  (1) 
confgen

>  <s_i_glide_gridfile>  (1) 
gpcr_drd2_6luq_protein_autoprepared_prepared

>  <s_lp_Force_Field>  (1) 
S-OPLS

>  <s_lp_Variant>  (1) 
Pocket2Mol_53_num_sample_100-1

>  <s_m_source_file>  (1) 
generated__ligand_Pocket2Mol_2026-05-06_prepared.sdf

>  <GenAI_Model>  (1) 
Pocket2Mol

>  <Protein>  (1) 
generic_title2

$$$$
Pocket2Mol_96_num_sample_100
     RDKit          3D

  0  0  0  0  0  0  0  0  0  0999 V3000
M  V30 BEGIN CTAB
M  V30 COUNTS 20 21 0 0 1
M  V30 BEGIN ATOM
M  V30 1 C 9.035066 5.322264 -9.900394 0
M  V30 2 O 9.434846 6.619303 -10.247422 0
M  V30 3 C 8.500206 5.345102 -8.503274 0
M  V30 4 O 9.651551 5.369301 -7.730981 0
M  V30 5 C 10.549361 7.293803 -9.875512 0
M  V30 6 C 10.217786 6.569198 -7.392323 0
M  V30 7 C 10.393263 6.862504 -6.023498 0
M  V30 8 O 11.331684 7.769305 -10.691668 0
M  V30 9 C 10.696051 7.498820 -8.379057 0
M  V30 10 C 11.034837 8.044857 -5.622044 0
M  V30 11 C 11.523952 8.941368 -6.580509 0
M  V30 12 F 12.152403 10.073530 -6.186183 0
M  V30 13 C 11.364603 8.668206 -7.949217 0
M  V30 14 H 8.238301 5.034081 -10.586051 0
M  V30 15 H 9.834844 4.595062 -10.023217 0
M  V30 16 H 7.834841 6.169301 -8.291669 0
M  V30 17 H 7.956477 4.425230 -8.288679 0
M  V30 18 H 10.039382 6.167457 -5.277226 0
M  V30 19 H 11.162662 8.257999 -4.571946 0
M  V30 20 H 11.742925 9.369170 -8.679099 0
M  V30 END ATOM
M  V30 BEGIN BOND
M  V30 1 1 2 1
M  V30 2 1 3 1
M  V30 3 1 4 3
M  V30 4 1 5 2
M  V30 5 1 6 4
M  V30 6 1 7 6
M  V30 7 2 8 5
M  V30 8 1 9 5
M  V30 9 2 9 6
M  V30 10 2 10 7
M  V30 11 1 11 10
M  V30 12 1 12 11
M  V30 13 1 13 9
M  V30 14 2 13 11
M  V30 15 1 14 1
M  V30 16 1 15 1
M  V30 17 1 16 3
M  V30 18 1 17 3
M  V30 19 1 18 7
M  V30 20 1 19 10
M  V30 21 1 20 13
M  V30 END BOND
M  V30 END CTAB
M  END
>  <i_epik_Tot_Q>  (1) 
0

>  <i_epik_Tot_abs_Q>  (1) 
0

>  <i_i_glide_confnum>  (1) 
2

>  <i_i_glide_lignum>  (1) 
105

>  <i_i_glide_posenum>  (1) 
37

>  <i_i_glide_rotatable_bonds>  (1) 
0

>  <i_lp_mmshare_version>  (1) 
72125

>  <i_m_source_file_index>  (1) 
97

>  <i_f3d_flags>  (1) 
0

>  <num_sample>  (1) 
100

>  <b_lp_Chiralities_Consistent>  (1) 
1

>  <r_epik_Charging_Adjusted_Penalty>  (1) 
0

>  <r_epik_Ionization_Penalty>  (1) 
0

>  <r_epik_Ionization_Penalty_Charging>  (1) 
0

>  <r_epik_Ionization_Penalty_Neutral>  (1) 
0

>  <r_epik_State_Penalty>  (1) 
-0

>  <r_glide_ring_energy>  (1) 
0.0013675176162265368

>  <r_i_docking_score>  (1) 
-5.7276892288808794

>  <r_i_glide_ecoul>  (1) 
-1.7690383226185209

>  <r_i_glide_eff_state_penalty>  (1) 
-0

>  <r_i_glide_einternal>  (1) 
0

>  <r_i_glide_emodel>  (1) 
-31.420618960408888

>  <r_i_glide_emodel_strain>  (1) 
0.31202938868300123

>  <r_i_glide_energy>  (1) 
-22.907570901281495

>  <r_i_glide_erotb>  (1) 
0

>  <r_i_glide_esite>  (1) 
-0.031166998997378514

>  <r_i_glide_evdw>  (1) 
-21.138532578662975

>  <r_i_glide_gscore>  (1) 
-5.7276892288808794

>  <r_i_glide_gscore_strain>  (1) 
0

>  <r_i_glide_hbond>  (1) 
0

>  <r_i_glide_ligand_efficiency>  (1) 
-0.44059147914468305

>  <r_i_glide_ligand_efficiency_ln>  (1) 
-1.6066677684754958

>  <r_i_glide_ligand_efficiency_sa>  (1) 
-1.03597802802709

>  <r_i_glide_lipo>  (1) 
-1.1406293554191458

>  <r_i_glide_metal>  (1) 
-0

>  <r_i_glide_rewards>  (1) 
-3.2336104971384283

>  <r_lp_Energy>  (1) 
17.467690999999999

>  <r_lp_tautomer_probability>  (1) 
1

>  <s_epik_Chemistry_Notes>  (1) 
This compound has an ester and may undergo hydrolysis at high or low pH.

>  <s_epik_cmdline>  (1) 
J2VwaWtfcHl0aG9uJywgJy1waHQnLCAnMS4wJywgJy1waCcsICc3LjQnLCAnLXRuJywgJzgnLCAnLW1hJywgJzUwMCcsICctaW1hZScsICc8aW5maWxlLm1hZT4nLCAnLW9tYWUnLCAnPG91dGZpbGUubWFlPic=

>  <s_epik_input>  (1) 
TzFbQ0gyXVtDSDJdT0MoPU8pYyhjMTIpW2NIXWMoRilbY0hdW2NIXTI=

>  <s_glide_docking_method>  (1) 
confgen

>  <s_i_glide_gridfile>  (1) 
gpcr_drd2_6luq_protein_autoprepared_prepared

>  <s_lp_Force_Field>  (1) 
S-OPLS

>  <s_lp_Variant>  (1) 
Pocket2Mol_96_num_sample_100-1

>  <s_m_source_file>  (1) 
generated__ligand_Pocket2Mol_2026-05-06_prepared.sdf

>  <GenAI_Model>  (1) 
Pocket2Mol

>  <Protein>  (1) 
generic_title2

$$$$
Pocket2Mol_48_num_sample_100
     RDKit          3D

  0  0  0  0  0  0  0  0  0  0999 V3000
M  V30 BEGIN CTAB
M  V30 COUNTS 19 20 0 0 1
M  V30 BEGIN ATOM
M  V30 1 C 10.460389 8.403413 -7.662730 0
M  V30 2 O 11.040054 9.238582 -6.691669 0
M  V30 3 C 11.434838 8.628211 -5.518477 0
M  V30 4 C 11.030580 7.305670 -5.235305 0
M  V30 5 C 11.434840 6.683908 -4.038518 0
M  V30 6 C 12.234514 9.327120 -4.598636 0
M  V30 7 C 12.634839 8.708807 -3.396538 0
M  V30 8 C 10.146062 6.569300 -6.219098 0
M  V30 9 C 12.234864 7.386305 -3.116721 0
M  V30 10 N 9.486573 7.519535 -7.091669 0
M  V30 11 H 9.974481 9.016007 -8.419706 0
M  V30 12 H 11.247259 7.835447 -8.162147 0
M  V30 13 H 11.123092 5.677008 -3.823053 0
M  V30 14 H 12.538949 10.332684 -4.815243 0
M  V30 15 H 13.248452 9.248709 -2.690407 0
M  V30 16 H 10.737164 5.858523 -6.798017 0
M  V30 17 H 9.382237 6.016137 -5.676070 0
M  V30 18 H 12.541281 6.911847 -2.195881 0
M  V30 19 H 8.896913 7.068834 -7.783741 0
M  V30 END ATOM
M  V30 BEGIN BOND
M  V30 1 1 2 1
M  V30 2 1 3 2
M  V30 3 1 4 3
M  V30 4 2 5 4
M  V30 5 2 6 3
M  V30 6 1 7 6
M  V30 7 1 8 4
M  V30 8 1 9 5
M  V30 9 2 9 7
M  V30 10 1 10 1
M  V30 11 1 10 8
M  V30 12 1 11 1
M  V30 13 1 12 1
M  V30 14 1 13 5
M  V30 15 1 14 6
M  V30 16 1 15 7
M  V30 17 1 16 8
M  V30 18 1 17 8
M  V30 19 1 18 9
M  V30 20 1 19 10
M  V30 END BOND
M  V30 END CTAB
M  END
>  <i_epik_Tot_Q>  (1) 
0

>  <i_epik_Tot_abs_Q>  (1) 
0

>  <i_i_glide_confnum>  (1) 
1

>  <i_i_glide_lignum>  (1) 
54

>  <i_i_glide_posenum>  (1) 
161

>  <i_i_glide_rotatable_bonds>  (1) 
0

>  <i_lp_mmshare_version>  (1) 
72125

>  <i_m_source_file_index>  (1) 
49

>  <i_f3d_flags>  (1) 
0

>  <num_sample>  (1) 
100

>  <b_lp_Chiralities_Consistent>  (1) 
1

>  <r_epik_Charging_Adjusted_Penalty>  (1) 
0.1493798173009977

>  <r_epik_Ionization_Penalty>  (1) 
0.14937981730099775

>  <r_epik_Ionization_Penalty_Charging>  (1) 
0

>  <r_epik_Ionization_Penalty_Neutral>  (1) 
0.14937981730099775

>  <r_epik_State_Penalty>  (1) 
0.1493798173009977

>  <r_glide_ring_energy>  (1) 
0

>  <r_i_docking_score>  (1) 
-5.7220159429476336

>  <r_i_glide_ecoul>  (1) 
-2.5498052592496814

>  <r_i_glide_eff_state_penalty>  (1) 
0.1493798173009977

>  <r_i_glide_einternal>  (1) 
0

>  <r_i_glide_emodel>  (1) 
-29.397758842097929

>  <r_i_glide_emodel_strain>  (1) 
7.0743002567041913e-09

>  <r_i_glide_energy>  (1) 
-21.321962737249262

>  <r_i_glide_erotb>  (1) 
0

>  <r_i_glide_esite>  (1) 
0

>  <r_i_glide_evdw>  (1) 
-18.772157477999581

>  <r_i_glide_gscore>  (1) 
-5.8713957602486317

>  <r_i_glide_gscore_strain>  (1) 
0

>  <r_i_glide_hbond>  (1) 
0

>  <r_i_glide_ligand_efficiency>  (1) 
-0.57220159429476336

>  <r_i_glide_ligand_efficiency_ln>  (1) 
-1.7325869831745013

>  <r_i_glide_ligand_efficiency_sa>  (1) 
-1.2327709644401883

>  <r_i_glide_lipo>  (1) 
-1.9617504702232846

>  <r_i_glide_metal>  (1) 
-0

>  <r_i_glide_rewards>  (1) 
-2.5885666272379155

>  <r_lp_Energy>  (1) 
22.191175999999999

>  <r_lp_tautomer_probability>  (1) 
1

>  <s_epik_Chemistry_Notes>  (1) 
This compound contains an acetal/aminal-like group ( X-CH(R)-Y where X, Y are N, S, or O) that may be acid/base labile, releasing an aldehyde.

>  <s_epik_cmdline>  (1) 
J2VwaWtfcHl0aG9uJywgJy1waHQnLCAnMS4wJywgJy1waCcsICc3LjQnLCAnLXRuJywgJzgnLCAnLW1hJywgJzUwMCcsICctaW1hZScsICc8aW5maWxlLm1hZT4nLCAnLW9tYWUnLCAnPG91dGZpbGUubWFlPic=

>  <s_epik_input>  (1) 
TzFbQ0gyXVtOSF1bQ0gyXWMoYzEyKVtjSF1bY0hdW2NIXVtjSF0y

>  <s_glide_docking_method>  (1) 
confgen

>  <s_i_glide_gridfile>  (1) 
gpcr_drd2_6luq_protein_autoprepared_prepared

>  <s_lp_Force_Field>  (1) 
S-OPLS

>  <s_lp_Variant>  (1) 
Pocket2Mol_48_num_sample_100-1

>  <s_m_source_file>  (1) 
generated__ligand_Pocket2Mol_2026-05-06_prepared.sdf

>  <GenAI_Model>  (1) 
Pocket2Mol

>  <Protein>  (1) 
generic_title2

$$$$
Pocket2Mol_94_num_sample_100
     RDKit          3D

  0  0  0  0  0  0  0  0  0  0999 V3000
M  V30 BEGIN CTAB
M  V30 COUNTS 24 25 0 0 1
M  V30 BEGIN ATOM
M  V30 1 C 11.803006 9.202038 -5.519160 0
M  V30 2 O 12.592654 9.369000 -6.755363 0
M  V30 3 C 11.876149 8.636041 -7.644257 0
M  V30 4 C 10.824644 7.969667 -7.135182 0
M  V30 5 C 9.980205 7.190573 -7.942924 0
M  V30 6 C 10.634839 8.130915 -5.699592 0
M  V30 7 C 12.187306 8.569303 -9.012718 0
M  V30 8 C 10.242363 7.098902 -9.328987 0
M  V30 9 N 9.347515 6.300995 -10.141712 0
M  V30 10 C 11.370657 7.797697 -9.871191 0
M  V30 11 C 9.434842 6.102871 -11.481877 0
M  V30 12 C 8.346216 5.231829 -12.096483 0
M  V30 13 O 10.316575 6.569301 -12.195919 0
M  V30 14 H 12.457419 8.932281 -4.690023 0
M  V30 15 H 11.370802 10.172511 -5.270519 0
M  V30 16 H 9.135507 6.672575 -7.510405 0
M  V30 17 H 9.643908 8.522937 -5.491667 0
M  V30 18 H 10.814675 7.196980 -5.166012 0
M  V30 19 H 13.034839 9.106651 -9.406474 0
M  V30 20 H 8.568957 5.873233 -9.660384 0
M  V30 21 H 11.610186 7.757436 -10.912554 0
M  V30 22 H 7.359236 5.618935 -11.840700 0
M  V30 23 H 8.435461 5.211929 -13.183059 0
M  V30 24 H 8.426704 4.208991 -11.727518 0
M  V30 END ATOM
M  V30 BEGIN BOND
M  V30 1 1 2 1
M  V30 2 1 3 2
M  V30 3 2 4 3
M  V30 4 1 5 4
M  V30 5 1 6 1
M  V30 6 1 6 4
M  V30 7 1 7 3
M  V30 8 2 8 5
M  V30 9 1 9 8
M  V30 10 2 10 7
M  V30 11 1 10 8
M  V30 12 1 11 9
M  V30 13 1 12 11
M  V30 14 2 13 11
M  V30 15 1 14 1
M  V30 16 1 15 1
M  V30 17 1 16 5
M  V30 18 1 17 6
M  V30 19 1 18 6
M  V30 20 1 19 7
M  V30 21 1 20 9
M  V30 22 1 21 10
M  V30 23 1 22 12
M  V30 24 1 23 12
M  V30 25 1 24 12
M  V30 END BOND
M  V30 END CTAB
M  END
>  <i_epik_Tot_Q>  (1) 
0

>  <i_epik_Tot_abs_Q>  (1) 
0

>  <i_i_glide_confnum>  (1) 
1

>  <i_i_glide_lignum>  (1) 
103

>  <i_i_glide_posenum>  (1) 
366

>  <i_i_glide_rotatable_bonds>  (1) 
2

>  <i_lp_mmshare_version>  (1) 
72125

>  <i_m_source_file_index>  (1) 
95

>  <i_f3d_flags>  (1) 
0

>  <num_sample>  (1) 
100

>  <b_lp_Chiralities_Consistent>  (1) 
1

>  <r_epik_Charging_Adjusted_Penalty>  (1) 
0

>  <r_epik_Ionization_Penalty>  (1) 
1.4103773659367358e-07

>  <r_epik_Ionization_Penalty_Charging>  (1) 
0

>  <r_epik_Ionization_Penalty_Neutral>  (1) 
1.4103773659367358e-07

>  <r_epik_State_Penalty>  (1) 
-0

>  <r_glide_ring_energy>  (1) 
0

>  <r_i_docking_score>  (1) 
-5.7198002549474189

>  <r_i_glide_ecoul>  (1) 
-1.9065896485425289

>  <r_i_glide_eff_state_penalty>  (1) 
-0

>  <r_i_glide_einternal>  (1) 
0.064083829685042559

>  <r_i_glide_emodel>  (1) 
-34.329887490060102

>  <r_i_glide_emodel_strain>  (1) 
0

>  <r_i_glide_energy>  (1) 
-25.238997810151801

>  <r_i_glide_erotb>  (1) 
0

>  <r_i_glide_esite>  (1) 
-0.10660408903354507

>  <r_i_glide_evdw>  (1) 
-23.332408161609273

>  <r_i_glide_gscore>  (1) 
-5.7198002549474189

>  <r_i_glide_gscore_strain>  (1) 
0

>  <r_i_glide_hbond>  (1) 
0

>  <r_i_glide_ligand_efficiency>  (1) 
-0.4399846349959553

>  <r_i_glide_ligand_efficiency_ln>  (1) 
-1.6044548411257848

>  <r_i_glide_ligand_efficiency_sa>  (1) 
-1.0345511343301461

>  <r_i_glide_lipo>  (1) 
-1.4274843831618496

>  <r_i_glide_metal>  (1) 
-0

>  <r_i_glide_rewards>  (1) 
-2.7331029273901808

>  <r_lp_Energy>  (1) 
14.229996

>  <r_lp_tautomer_probability>  (1) 
1

>  <s_epik_cmdline>  (1) 
J2VwaWtfcHl0aG9uJywgJy1waHQnLCAnMS4wJywgJy1waCcsICc3LjQnLCAnLXRuJywgJzgnLCAnLW1hJywgJzUwMCcsICctaW1hZScsICc8aW5maWxlLm1hZT4nLCAnLW9tYWUnLCAnPG91dGZpbGUubWFlPic=

>  <s_epik_input>  (1) 
TzFbQ0gyXVtDSDJdYyhjMTIpW2NIXWMoW2NIXVtjSF0yKVtOSF1DKD1PKVtDSDNd

>  <s_glide_docking_method>  (1) 
confgen

>  <s_i_glide_gridfile>  (1) 
gpcr_drd2_6luq_protein_autoprepared_prepared

>  <s_lp_Force_Field>  (1) 
S-OPLS

>  <s_lp_Variant>  (1) 
Pocket2Mol_94_num_sample_100-1

>  <s_m_source_file>  (1) 
generated__ligand_Pocket2Mol_2026-05-06_prepared.sdf

>  <GenAI_Model>  (1) 
Pocket2Mol

>  <Protein>  (1) 
generic_title2

$$$$
Pocket2Mol_68_num_sample_100
     RDKit          3D

  0  0  0  0  0  0  0  0  0  0999 V3000
M  V30 BEGIN CTAB
M  V30 COUNTS 19 20 0 0 1
M  V30 BEGIN ATOM
M  V30 1 C 9.920807 6.579762 -7.639666 0
M  V30 2 O 10.167369 6.169301 -6.303697 0
M  V30 3 C 10.864496 7.047029 -5.515725 0
M  V30 4 C 9.434843 8.026341 -7.618323 0
M  V30 5 O 10.459637 8.842043 -7.087999 0
M  V30 6 C 11.008538 8.394079 -5.910365 0
M  V30 7 C 11.434841 6.606033 -4.303816 0
M  V30 8 C 12.150840 7.509161 -3.491667 0
M  V30 9 C 11.713314 9.285828 -5.101433 0
M  V30 10 O 11.834839 10.569301 -5.491672 0
M  V30 11 C 12.287345 8.852262 -3.890542 0
M  V30 12 H 9.162938 5.929336 -8.076849 0
M  V30 13 H 10.827345 6.476011 -8.237420 0
M  V30 14 H 8.540741 8.128169 -7.003812 0
M  V30 15 H 9.186984 8.368666 -8.622977 0
M  V30 16 H 11.323907 5.579328 -3.999094 0
M  V30 17 H 12.588851 7.172505 -2.563614 0
M  V30 18 H 11.381129 10.716133 -6.308688 0
M  V30 19 H 12.831598 9.548809 -3.268974 0
M  V30 END ATOM
M  V30 BEGIN BOND
M  V30 1 1 2 1
M  V30 2 1 3 2
M  V30 3 1 4 1
M  V30 4 1 5 4
M  V30 5 1 6 3
M  V30 6 1 6 5
M  V30 7 2 7 3
M  V30 8 1 8 7
M  V30 9 2 9 6
M  V30 10 1 10 9
M  V30 11 2 11 8
M  V30 12 1 11 9
M  V30 13 1 12 1
M  V30 14 1 13 1
M  V30 15 1 14 4
M  V30 16 1 15 4
M  V30 17 1 16 7
M  V30 18 1 17 8
M  V30 19 1 18 10
M  V30 20 1 19 11
M  V30 END BOND
M  V30 END CTAB
M  END
>  <i_epik_Tot_Q>  (1) 
0

>  <i_epik_Tot_abs_Q>  (1) 
0

>  <i_i_glide_confnum>  (1) 
1

>  <i_i_glide_lignum>  (1) 
75

>  <i_i_glide_posenum>  (1) 
289

>  <i_i_glide_rotatable_bonds>  (1) 
1

>  <i_lp_mmshare_version>  (1) 
72125

>  <i_m_source_file_index>  (1) 
69

>  <i_f3d_flags>  (1) 
0

>  <num_sample>  (1) 
100

>  <b_lp_Chiralities_Consistent>  (1) 
1

>  <r_epik_Charging_Adjusted_Penalty>  (1) 
0.0030607566555237334

>  <r_epik_Ionization_Penalty>  (1) 
0.0030607566555237659

>  <r_epik_Ionization_Penalty_Charging>  (1) 
0

>  <r_epik_Ionization_Penalty_Neutral>  (1) 
0.0030607566555237659

>  <r_epik_State_Penalty>  (1) 
0.0030607566555237334

>  <r_glide_ring_energy>  (1) 
0

>  <r_i_docking_score>  (1) 
-5.7137056389987819

>  <r_i_glide_ecoul>  (1) 
-1.1914294232303471

>  <r_i_glide_eff_state_penalty>  (1) 
0.0030607566555237334

>  <r_i_glide_einternal>  (1) 
0.005524305209541655

>  <r_i_glide_emodel>  (1) 
-28.201407351890641

>  <r_i_glide_emodel_strain>  (1) 
0

>  <r_i_glide_energy>  (1) 
-20.587736115143731

>  <r_i_glide_erotb>  (1) 
0

>  <r_i_glide_esite>  (1) 
0

>  <r_i_glide_evdw>  (1) 
-19.396306691913384

>  <r_i_glide_gscore>  (1) 
-5.7167663956543056

>  <r_i_glide_gscore_strain>  (1) 
0

>  <r_i_glide_hbond>  (1) 
0

>  <r_i_glide_ligand_efficiency>  (1) 
-0.51942778536352563

>  <r_i_glide_ligand_efficiency_ln>  (1) 
-1.681542596306449

>  <r_i_glide_ligand_efficiency_sa>  (1) 
-1.1551970531369928

>  <r_i_glide_lipo>  (1) 
-1.7970192661757725

>  <r_i_glide_metal>  (1) 
-0

>  <r_i_glide_rewards>  (1) 
-2.7712173813983125

>  <r_lp_Energy>  (1) 
16.942557999999998

>  <r_lp_tautomer_probability>  (1) 
0.99999999996300004

>  <s_epik_cmdline>  (1) 
J2VwaWtfcHl0aG9uJywgJy1waHQnLCAnMS4wJywgJy1waCcsICc3LjQnLCAnLXRuJywgJzgnLCAnLW1hJywgJzUwMCcsICctaW1hZScsICc8aW5maWxlLm1hZT4nLCAnLW9tYWUnLCAnPG91dGZpbGUubWFlPic=

>  <s_epik_input>  (1) 
TzFbQ0gyXVtDSDJdT2MoYzEyKWMoW09IXSlbY0hdW2NIXVtjSF0y

>  <s_glide_docking_method>  (1) 
confgen

>  <s_i_glide_gridfile>  (1) 
gpcr_drd2_6luq_protein_autoprepared_prepared

>  <s_lp_Force_Field>  (1) 
S-OPLS

>  <s_lp_Variant>  (1) 
Pocket2Mol_68_num_sample_100-1

>  <s_m_source_file>  (1) 
generated__ligand_Pocket2Mol_2026-05-06_prepared.sdf

>  <GenAI_Model>  (1) 
Pocket2Mol

>  <Protein>  (1) 
generic_title2

$$$$
Pocket2Mol_76_num_sample_100
     RDKit          3D

  0  0  0  0  0  0  0  0  0  0999 V3000
M  V30 BEGIN CTAB
M  V30 COUNTS 20 21 0 0 1
M  V30 BEGIN ATOM
M  V30 1 C 9.078657 5.627574 -8.865739 0
M  V30 2 O 9.034837 6.466496 -7.721038 0
M  V30 3 C 10.113647 7.297387 -7.543749 0
M  V30 4 C 9.521118 6.448404 -10.080473 0
M  V30 5 O 10.819090 6.969301 -9.842958 0
M  V30 6 C 11.021677 7.538425 -8.607482 0
M  V30 7 C 10.319197 7.910148 -6.294588 0
M  V30 8 C 11.432060 8.748701 -6.093719 0
M  V30 9 C 12.141857 8.363151 -8.397588 0
M  V30 10 O 13.034778 8.569297 -9.413971 0
M  V30 11 O 11.634182 9.341134 -4.880703 0
M  V30 12 C 12.344026 8.969300 -7.140385 0
M  V30 13 H 9.761093 4.794886 -8.688995 0
M  V30 14 H 8.086913 5.206443 -9.032248 0
M  V30 15 H 9.551094 5.820050 -10.970500 0
M  V30 16 H 8.839261 7.268066 -10.293556 0
M  V30 17 H 9.623287 7.731117 -5.491653 0
M  V30 18 H 13.604076 9.325970 -9.326426 0
M  V30 19 H 11.008926 9.076611 -4.225489 0
M  V30 20 H 13.204477 9.596650 -6.974537 0
M  V30 END ATOM
M  V30 BEGIN BOND
M  V30 1 1 2 1
M  V30 2 1 3 2
M  V30 3 1 4 1
M  V30 4 1 5 4
M  V30 5 1 6 3
M  V30 6 1 6 5
M  V30 7 2 7 3
M  V30 8 1 8 7
M  V30 9 2 9 6
M  V30 10 1 10 9
M  V30 11 1 11 8
M  V30 12 2 12 8
M  V30 13 1 12 9
M  V30 14 1 13 1
M  V30 15 1 14 1
M  V30 16 1 15 4
M  V30 17 1 16 4
M  V30 18 1 17 7
M  V30 19 1 18 10
M  V30 20 1 19 11
M  V30 21 1 20 12
M  V30 END BOND
M  V30 END CTAB
M  END
>  <i_epik_Tot_Q>  (1) 
0

>  <i_epik_Tot_abs_Q>  (1) 
0

>  <i_i_glide_confnum>  (1) 
1

>  <i_i_glide_lignum>  (1) 
83

>  <i_i_glide_posenum>  (1) 
56

>  <i_i_glide_rotatable_bonds>  (1) 
2

>  <i_lp_mmshare_version>  (1) 
72125

>  <i_m_source_file_index>  (1) 
77

>  <i_f3d_flags>  (1) 
0

>  <num_sample>  (1) 
100

>  <b_lp_Chiralities_Consistent>  (1) 
1

>  <r_epik_Charging_Adjusted_Penalty>  (1) 
0

>  <r_epik_Ionization_Penalty>  (1) 
0.012400157081266662

>  <r_epik_Ionization_Penalty_Charging>  (1) 
0

>  <r_epik_Ionization_Penalty_Neutral>  (1) 
0.012400157081266662

>  <r_epik_State_Penalty>  (1) 
-0

>  <r_glide_ring_energy>  (1) 
0

>  <r_i_docking_score>  (1) 
-5.7016973467177232

>  <r_i_glide_ecoul>  (1) 
-4.176388978559622

>  <r_i_glide_eff_state_penalty>  (1) 
-0

>  <r_i_glide_einternal>  (1) 
0.26638124273343933

>  <r_i_glide_emodel>  (1) 
-32.787205752680478

>  <r_i_glide_emodel_strain>  (1) 
0.016710429029995311

>  <r_i_glide_energy>  (1) 
-23.129961598036385

>  <r_i_glide_erotb>  (1) 
0

>  <r_i_glide_esite>  (1) 
0

>  <r_i_glide_evdw>  (1) 
-18.953572619476763

>  <r_i_glide_gscore>  (1) 
-5.7016973467177232

>  <r_i_glide_gscore_strain>  (1) 
0

>  <r_i_glide_hbond>  (1) 
-0.32000000000000001

>  <r_i_glide_ligand_efficiency>  (1) 
-0.47514144555981025

>  <r_i_glide_ligand_efficiency_ln>  (1) 
-1.6361119305920515

>  <r_i_glide_ligand_efficiency_sa>  (1) 
-1.0878023599193869

>  <r_i_glide_lipo>  (1) 
-1.0736100822841244

>  <r_i_glide_metal>  (1) 
-0

>  <r_i_glide_rewards>  (1) 
-2.7339502866758174

>  <r_lp_Energy>  (1) 
12.367407

>  <r_lp_tautomer_probability>  (1) 
1

>  <s_epik_cmdline>  (1) 
J2VwaWtfcHl0aG9uJywgJy1waHQnLCAnMS4wJywgJy1waCcsICc3LjQnLCAnLXRuJywgJzgnLCAnLW1hJywgJzUwMCcsICctaW1hZScsICc8aW5maWxlLm1hZT4nLCAnLW9tYWUnLCAnPG91dGZpbGUubWFlPic=

>  <s_epik_input>  (1) 
TzFbQ0gyXVtDSDJdT2MoYzEyKWMoW09IXSlbY0hdYyhbY0hdMilbT0hd

>  <s_glide_docking_method>  (1) 
confgen

>  <s_i_glide_gridfile>  (1) 
gpcr_drd2_6luq_protein_autoprepared_prepared

>  <s_lp_Force_Field>  (1) 
S-OPLS

>  <s_lp_Variant>  (1) 
Pocket2Mol_76_num_sample_100-1

>  <s_m_source_file>  (1) 
generated__ligand_Pocket2Mol_2026-05-06_prepared.sdf

>  <GenAI_Model>  (1) 
Pocket2Mol

>  <Protein>  (1) 
generic_title2

$$$$
Pocket2Mol_0_num_sample_100
     RDKit          3D

  0  0  0  0  0  0  0  0  0  0999 V3000
M  V30 BEGIN CTAB
M  V30 COUNTS 21 23 0 0 1
M  V30 BEGIN ATOM
M  V30 1 C 12.025444 9.276132 -4.778202 0
M  V30 2 O 11.361972 7.958240 -4.718714 0
M  V30 3 C 11.034838 7.747404 -6.014882 0
M  V30 4 C 11.472846 8.668443 -6.881151 0
M  V30 5 C 11.213145 8.569341 -8.253934 0
M  V30 6 C 12.234839 9.769293 -6.279719 0
M  V30 7 C 10.287018 6.644749 -6.441437 0
M  V30 8 C 10.458464 7.479966 -8.757231 0
M  V30 9 N 10.196326 7.378375 -10.086500 0
M  V30 10 C 9.434841 6.332137 -10.462425 0
M  V30 11 C 9.976101 6.482022 -7.817778 0
M  V30 12 C 8.970650 5.369506 -9.556809 0
M  V30 13 N 9.246682 5.416174 -8.240630 0
M  V30 14 H 12.977238 9.236869 -4.247536 0
M  V30 15 H 11.395509 9.987945 -4.242675 0
M  V30 16 H 11.582395 9.326279 -8.930619 0
M  V30 17 H 13.281642 9.733392 -6.582979 0
M  V30 18 H 11.802278 10.750892 -6.476280 0
M  V30 19 H 9.942300 5.918630 -5.722312 0
M  V30 20 H 9.193619 6.261325 -11.512689 0
M  V30 21 H 8.361742 4.544812 -9.894581 0
M  V30 END ATOM
M  V30 BEGIN BOND
M  V30 1 1 2 1
M  V30 2 1 3 2
M  V30 3 1 4 3
M  V30 4 2 5 4
M  V30 5 1 6 1
M  V30 6 1 6 4
M  V30 7 2 7 3
M  V30 8 1 8 5
M  V30 9 2 9 8
M  V30 10 1 10 9
M  V30 11 1 11 7
M  V30 12 1 11 8
M  V30 13 2 12 10
M  V30 14 2 13 11
M  V30 15 1 13 12
M  V30 16 1 14 1
M  V30 17 1 15 1
M  V30 18 1 16 5
M  V30 19 1 17 6
M  V30 20 1 18 6
M  V30 21 1 19 7
M  V30 22 1 20 10
M  V30 23 1 21 12
M  V30 END BOND
M  V30 END CTAB
M  END
>  <i_epik_Tot_Q>  (1) 
0

>  <i_epik_Tot_abs_Q>  (1) 
0

>  <i_i_glide_confnum>  (1) 
1

>  <i_i_glide_lignum>  (1) 
1

>  <i_i_glide_posenum>  (1) 
122

>  <i_i_glide_rotatable_bonds>  (1) 
0

>  <i_lp_mmshare_version>  (1) 
72125

>  <i_m_source_file_index>  (1) 
1

>  <i_f3d_flags>  (1) 
0

>  <num_sample>  (1) 
100

>  <b_lp_Chiralities_Consistent>  (1) 
1

>  <r_epik_Charging_Adjusted_Penalty>  (1) 
0

>  <r_epik_Ionization_Penalty>  (1) 
2.4588925185764017e-06

>  <r_epik_Ionization_Penalty_Charging>  (1) 
0

>  <r_epik_Ionization_Penalty_Neutral>  (1) 
2.4588925185764017e-06

>  <r_epik_State_Penalty>  (1) 
-0

>  <r_glide_ring_energy>  (1) 
0

>  <r_i_docking_score>  (1) 
-5.7005143896151758

>  <r_i_glide_ecoul>  (1) 
-0.65962705782789199

>  <r_i_glide_eff_state_penalty>  (1) 
-0

>  <r_i_glide_einternal>  (1) 
0

>  <r_i_glide_emodel>  (1) 
-35.352183507620737

>  <r_i_glide_emodel_strain>  (1) 
0

>  <r_i_glide_energy>  (1) 
-26.383837768126842

>  <r_i_glide_erotb>  (1) 
0

>  <r_i_glide_esite>  (1) 
0

>  <r_i_glide_evdw>  (1) 
-25.724210710298951

>  <r_i_glide_gscore>  (1) 
-5.7005143896151758

>  <r_i_glide_gscore_strain>  (1) 
0

>  <r_i_glide_hbond>  (1) 
0

>  <r_i_glide_ligand_efficiency>  (1) 
-0.43850110689347505

>  <r_i_glide_ligand_efficiency_ln>  (1) 
-1.5990449843793273

>  <r_i_glide_ligand_efficiency_sa>  (1) 
-1.0310628632425758

>  <r_i_glide_lipo>  (1) 
-1.5802783863351357

>  <r_i_glide_metal>  (1) 
-0

>  <r_i_glide_rewards>  (1) 
-2.7350814090909092

>  <r_lp_Energy>  (1) 
22.769921999999998

>  <r_lp_tautomer_probability>  (1) 
1

>  <s_epik_cmdline>  (1) 
J2VwaWtfcHl0aG9uJywgJy1waHQnLCAnMS4wJywgJy1waCcsICc3LjQnLCAnLXRuJywgJzgnLCAnLW1hJywgJzUwMCcsICctaW1hZScsICc8aW5maWxlLm1hZT4nLCAnLW9tYWUnLCAnPG91dGZpbGUubWFlPic=

>  <s_epik_input>  (1) 
TzFbQ0gyXVtDSDJdYyhjMTIpW2NIXWMzYyhbY0hdMiluW2NIXVtjSF1uMw==

>  <s_glide_docking_method>  (1) 
confgen

>  <s_i_glide_gridfile>  (1) 
gpcr_drd2_6luq_protein_autoprepared_prepared

>  <s_lp_Force_Field>  (1) 
S-OPLS

>  <s_lp_Variant>  (1) 
Pocket2Mol_0_num_sample_100-1

>  <s_m_source_file>  (1) 
generated__ligand_Pocket2Mol_2026-05-06_prepared.sdf

>  <GenAI_Model>  (1) 
Pocket2Mol

>  <Protein>  (1) 
generic_title2

$$$$
Pocket2Mol_56_num_sample_100
     RDKit          3D

  0  0  0  0  0  0  0  0  0  0999 V3000
M  V30 BEGIN CTAB
M  V30 COUNTS 19 20 0 0 1
M  V30 BEGIN ATOM
M  V30 1 C 11.933397 9.369302 -6.682783 0
M  V30 2 O 11.859082 9.846148 -5.347931 0
M  V30 3 C 11.842201 8.862358 -4.384106 0
M  V30 4 C 11.434839 7.538345 -4.705363 0
M  V30 5 C 11.434840 6.550557 -3.708303 0
M  V30 6 C 12.234860 9.170316 -3.067807 0
M  V30 7 C 12.234853 8.173436 -2.077211 0
M  V30 8 N 11.034839 7.207075 -6.009717 0
M  V30 9 C 10.829925 8.334014 -6.901335 0
M  V30 10 C 11.835693 6.864039 -2.396385 0
M  V30 11 H 11.834806 10.199736 -7.370999 0
M  V30 12 H 12.924976 8.960017 -6.873076 0
M  V30 13 H 11.126584 5.547398 -3.949540 0
M  V30 14 H 12.543407 10.169301 -2.817946 0
M  V30 15 H 12.541572 8.415230 -1.071676 0
M  V30 16 H 10.541197 6.341123 -6.179005 0
M  V30 17 H 9.846972 8.771089 -6.719912 0
M  V30 18 H 10.840433 7.979733 -7.932480 0
M  V30 19 H 11.834370 6.097576 -1.634596 0
M  V30 END ATOM
M  V30 BEGIN BOND
M  V30 1 1 2 1
M  V30 2 1 3 2
M  V30 3 1 4 3
M  V30 4 2 5 4
M  V30 5 2 6 3
M  V30 6 1 7 6
M  V30 7 1 8 4
M  V30 8 1 9 1
M  V30 9 1 9 8
M  V30 10 1 10 5
M  V30 11 2 10 7
M  V30 12 1 11 1
M  V30 13 1 12 1
M  V30 14 1 13 5
M  V30 15 1 14 6
M  V30 16 1 15 7
M  V30 17 1 16 8
M  V30 18 1 17 9
M  V30 19 1 18 9
M  V30 20 1 19 10
M  V30 END BOND
M  V30 END CTAB
M  END
>  <i_epik_Tot_Q>  (1) 
0

>  <i_epik_Tot_abs_Q>  (1) 
0

>  <i_i_glide_confnum>  (1) 
1

>  <i_i_glide_lignum>  (1) 
63

>  <i_i_glide_posenum>  (1) 
349

>  <i_i_glide_rotatable_bonds>  (1) 
0

>  <i_lp_mmshare_version>  (1) 
72125

>  <i_m_source_file_index>  (1) 
57

>  <i_f3d_flags>  (1) 
0

>  <num_sample>  (1) 
100

>  <b_lp_Chiralities_Consistent>  (1) 
1

>  <r_epik_Charging_Adjusted_Penalty>  (1) 
0

>  <r_epik_Ionization_Penalty>  (1) 
0.00026422915675488977

>  <r_epik_Ionization_Penalty_Charging>  (1) 
0

>  <r_epik_Ionization_Penalty_Neutral>  (1) 
0.00026422915675488977

>  <r_epik_State_Penalty>  (1) 
-0

>  <r_glide_ring_energy>  (1) 
0

>  <r_i_docking_score>  (1) 
-5.6995711351678393

>  <r_i_glide_ecoul>  (1) 
-1.4848375489346908

>  <r_i_glide_eff_state_penalty>  (1) 
-0

>  <r_i_glide_einternal>  (1) 
0

>  <r_i_glide_emodel>  (1) 
-28.993435626451433

>  <r_i_glide_emodel_strain>  (1) 
0

>  <r_i_glide_energy>  (1) 
-21.331377874266977

>  <r_i_glide_erotb>  (1) 
0

>  <r_i_glide_esite>  (1) 
0

>  <r_i_glide_evdw>  (1) 
-19.846540325332285

>  <r_i_glide_gscore>  (1) 
-5.6995711351678393

>  <r_i_glide_gscore_strain>  (1) 
0

>  <r_i_glide_hbond>  (1) 
0

>  <r_i_glide_ligand_efficiency>  (1) 
-0.56995711351678391

>  <r_i_glide_ligand_efficiency_ln>  (1) 
-1.7257908501006229

>  <r_i_glide_ligand_efficiency_sa>  (1) 
-1.2279353771909998

>  <r_i_glide_lipo>  (1) 
-1.9761851532276882

>  <r_i_glide_metal>  (1) 
-0

>  <r_i_glide_rewards>  (1) 
-2.5083333333333333

>  <r_lp_Energy>  (1) 
15.245389999999999

>  <r_lp_tautomer_probability>  (1) 
1

>  <s_epik_cmdline>  (1) 
J2VwaWtfcHl0aG9uJywgJy1waHQnLCAnMS4wJywgJy1waCcsICc3LjQnLCAnLXRuJywgJzgnLCAnLW1hJywgJzUwMCcsICctaW1hZScsICc8aW5maWxlLm1hZT4nLCAnLW9tYWUnLCAnPG91dGZpbGUubWFlPic=

>  <s_epik_input>  (1) 
TzFbQ0gyXVtDSDJdW05IXWMoYzEyKVtjSF1bY0hdW2NIXVtjSF0y

>  <s_glide_docking_method>  (1) 
confgen

>  <s_i_glide_gridfile>  (1) 
gpcr_drd2_6luq_protein_autoprepared_prepared

>  <s_lp_Force_Field>  (1) 
S-OPLS

>  <s_lp_Variant>  (1) 
Pocket2Mol_56_num_sample_100-1

>  <s_m_source_file>  (1) 
generated__ligand_Pocket2Mol_2026-05-06_prepared.sdf

>  <GenAI_Model>  (1) 
Pocket2Mol

>  <Protein>  (1) 
generic_title2

$$$$
Pocket2Mol_53_num_sample_100
     RDKit          3D

  0  0  0  0  0  0  0  0  0  0999 V3000
M  V30 BEGIN CTAB
M  V30 COUNTS 16 17 0 0 1
M  V30 BEGIN ATOM
M  V30 1 C 10.326653 8.495046 -7.568037 0
M  V30 2 O 11.059693 9.269744 -6.714093 0
M  V30 3 C 11.434839 8.651778 -5.517259 0
M  V30 4 C 11.034839 7.288593 -5.229081 0
M  V30 5 C 11.454199 6.723279 -4.002659 0
M  V30 6 C 12.210693 9.369301 -4.595387 0
M  V30 7 C 12.609620 8.779859 -3.387192 0
M  V30 8 N 10.280649 6.569301 -6.096754 0 CHG=-1
M  V30 9 C 12.234839 7.461702 -3.091663 0
M  V30 10 C 9.989758 7.233123 -7.214862 0
M  V30 11 H 10.069344 8.985279 -8.492129 0
M  V30 12 H 11.169956 5.714541 -3.759231 0
M  V30 13 H 12.499582 10.377336 -4.821768 0
M  V30 14 H 13.206231 9.341891 -2.684669 0
M  V30 15 H 12.543339 7.010746 -2.160368 0
M  V30 16 H 9.393730 6.658797 -7.955927 0
M  V30 END ATOM
M  V30 BEGIN BOND
M  V30 1 1 2 1
M  V30 2 1 3 2
M  V30 3 1 4 3
M  V30 4 2 5 4
M  V30 5 2 6 3
M  V30 6 1 7 6
M  V30 7 1 8 4
M  V30 8 1 9 5
M  V30 9 2 9 7
M  V30 10 2 10 1
M  V30 11 1 10 8
M  V30 12 1 11 1
M  V30 13 1 12 5
M  V30 14 1 13 6
M  V30 15 1 14 7
M  V30 16 1 15 9
M  V30 17 1 16 10
M  V30 END BOND
M  V30 END CTAB
M  END
>  <i_epik_Tot_Q>  (1) 
-1

>  <i_epik_Tot_abs_Q>  (1) 
1

>  <i_i_glide_confnum>  (1) 
1

>  <i_i_glide_lignum>  (1) 
60

>  <i_i_glide_posenum>  (1) 
52

>  <i_i_glide_rotatable_bonds>  (1) 
0

>  <i_lp_mmshare_version>  (1) 
72125

>  <i_m_source_file_index>  (1) 
54

>  <i_f3d_flags>  (1) 
0

>  <num_sample>  (1) 
100

>  <b_lp_Chiralities_Consistent>  (1) 
1

>  <r_epik_Charging_Adjusted_Penalty>  (1) 
0.016215214782958735

>  <r_epik_Ionization_Penalty>  (1) 
0.016215214782958842

>  <r_epik_Ionization_Penalty_Charging>  (1) 
0

>  <r_epik_Ionization_Penalty_Neutral>  (1) 
0.016215214782958842

>  <r_epik_State_Penalty>  (1) 
0.016215214782958735

>  <r_glide_ring_energy>  (1) 
0

>  <r_i_docking_score>  (1) 
-5.6894618874363125

>  <r_i_glide_ecoul>  (1) 
-2.2268549900582149

>  <r_i_glide_eff_state_penalty>  (1) 
0.016215214782958735

>  <r_i_glide_einternal>  (1) 
0

>  <r_i_glide_emodel>  (1) 
-27.690580778945691

>  <r_i_glide_emodel_strain>  (1) 
0

>  <r_i_glide_energy>  (1) 
-19.559195839657104

>  <r_i_glide_erotb>  (1) 
0

>  <r_i_glide_esite>  (1) 
0

>  <r_i_glide_evdw>  (1) 
-17.332340849598889

>  <r_i_glide_gscore>  (1) 
-5.7056771022192709

>  <r_i_glide_gscore_strain>  (1) 
0

>  <r_i_glide_hbond>  (1) 
0

>  <r_i_glide_ligand_efficiency>  (1) 
-0.56894618874363123

>  <r_i_glide_ligand_efficiency_ln>  (1) 
-1.7227298395749677

>  <r_i_glide_ligand_efficiency_sa>  (1) 
-1.225757405790707

>  <r_i_glide_lipo>  (1) 
-1.7905886921415106

>  <r_i_glide_metal>  (1) 
-0

>  <r_i_glide_rewards>  (1) 
-2.7144431190890836

>  <r_lp_Energy>  (1) 
26.292493999999998

>  <s_epik_Chemistry_Notes>  (1) 
This compound has an imine and may undergo hydrolysis.

>  <s_epik_cmdline>  (1) 
J2VwaWtfcHl0aG9uJywgJy1waHQnLCAnMS4wJywgJy1waCcsICc3LjQnLCAnLXRuJywgJzgnLCAnLW1hJywgJzUwMCcsICctaW1hZScsICc8aW5maWxlLm1hZT4nLCAnLW9tYWUnLCAnPG91dGZpbGUubWFlPic=

>  <s_epik_input>  (1) 
TzFbQ0gyXVtDSF09TmMoYzEyKVtjSF1bY0hdW2NIXVtjSF0y

>  <s_glide_docking_method>  (1) 
confgen

>  <s_i_glide_gridfile>  (1) 
gpcr_drd2_6luq_protein_autoprepared_prepared

>  <s_lp_Force_Field>  (1) 
S-OPLS

>  <s_lp_Variant>  (1) 
Pocket2Mol_53_num_sample_100-1

>  <s_m_source_file>  (1) 
generated__ligand_Pocket2Mol_2026-05-06_prepared.sdf

>  <GenAI_Model>  (1) 
Pocket2Mol

>  <Protein>  (1) 
generic_title2

$$$$
Pocket2Mol_61_num_sample_100
     RDKit          3D

  0  0  0  0  0  0  0  0  0  0999 V3000
M  V30 BEGIN CTAB
M  V30 COUNTS 18 19 0 0 1
M  V30 BEGIN ATOM
M  V30 1 C 11.135657 8.765092 -5.714898 0
M  V30 2 O 12.166027 9.000629 -6.603982 0
M  V30 3 C 11.758689 8.526335 -7.827018 0
M  V30 4 C 10.465689 7.996293 -7.714171 0
M  V30 5 C 9.883701 7.467301 -8.894829 0
M  V30 6 C 10.590459 7.492093 -10.126654 0
M  V30 7 C 10.071062 8.150625 -6.348545 0
M  V30 8 N 9.976861 6.992353 -11.287969 0
M  V30 9 C 11.901681 8.034182 -10.179066 0
M  V30 10 C 12.485086 8.551357 -9.016413 0
M  V30 11 O 10.870474 6.569301 -12.291650 0
M  V30 12 H 11.307853 9.084128 -4.697234 0
M  V30 13 H 8.888443 7.049937 -8.855605 0
M  V30 14 H 9.128963 7.846673 -5.913962 0
M  V30 15 H 9.192673 6.358886 -11.193576 0
M  V30 16 H 12.447488 8.056741 -11.106956 0
M  V30 17 H 13.479713 8.969292 -9.042529 0
M  V30 18 H 11.034626 5.647269 -12.146423 0
M  V30 END ATOM
M  V30 BEGIN BOND
M  V30 1 1 2 1
M  V30 2 1 3 2
M  V30 3 1 4 3
M  V30 4 2 5 4
M  V30 5 1 6 5
M  V30 6 2 7 1
M  V30 7 1 7 4
M  V30 8 1 8 6
M  V30 9 2 9 6
M  V30 10 2 10 3
M  V30 11 1 10 9
M  V30 12 1 11 8
M  V30 13 1 12 1
M  V30 14 1 13 5
M  V30 15 1 14 7
M  V30 16 1 15 8
M  V30 17 1 16 9
M  V30 18 1 17 10
M  V30 19 1 18 11
M  V30 END BOND
M  V30 END CTAB
M  END
>  <i_epik_Tot_Q>  (1) 
0

>  <i_epik_Tot_abs_Q>  (1) 
0

>  <i_i_glide_confnum>  (1) 
1

>  <i_i_glide_lignum>  (1) 
68

>  <i_i_glide_posenum>  (1) 
309

>  <i_i_glide_rotatable_bonds>  (1) 
2

>  <i_lp_mmshare_version>  (1) 
72125

>  <i_m_source_file_index>  (1) 
62

>  <i_f3d_flags>  (1) 
0

>  <num_sample>  (1) 
100

>  <b_lp_Chiralities_Consistent>  (1) 
1

>  <r_epik_Charging_Adjusted_Penalty>  (1) 
0

>  <r_epik_Ionization_Penalty>  (1) 
0.00016546089717554426

>  <r_epik_Ionization_Penalty_Charging>  (1) 
0

>  <r_epik_Ionization_Penalty_Neutral>  (1) 
0.00016546089717554426

>  <r_epik_State_Penalty>  (1) 
-0

>  <r_glide_ring_energy>  (1) 
0

>  <r_i_docking_score>  (1) 
-5.6821938058408268

>  <r_i_glide_ecoul>  (1) 
-3.3531189727506421

>  <r_i_glide_eff_state_penalty>  (1) 
-0

>  <r_i_glide_einternal>  (1) 
1.2994638191483014

>  <r_i_glide_emodel>  (1) 
-31.597543237335529

>  <r_i_glide_emodel_strain>  (1) 
0.060303045962427859

>  <r_i_glide_energy>  (1) 
-22.904875098795465

>  <r_i_glide_erotb>  (1) 
0

>  <r_i_glide_esite>  (1) 
-0.04208534557380067

>  <r_i_glide_evdw>  (1) 
-19.551756126044822

>  <r_i_glide_gscore>  (1) 
-5.6821938058408268

>  <r_i_glide_gscore_strain>  (1) 
0

>  <r_i_glide_hbond>  (1) 
-0.0086023186185508645

>  <r_i_glide_ligand_efficiency>  (1) 
-0.51656307325825701

>  <r_i_glide_ligand_efficiency_ln>  (1) 
-1.6722686691756685

>  <r_i_glide_ligand_efficiency_sa>  (1) 
-1.1488259904496625

>  <r_i_glide_lipo>  (1) 
-1.2446740513876793

>  <r_i_glide_metal>  (1) 
-0

>  <r_i_glide_rewards>  (1) 
-2.9062764380459583

>  <r_lp_Energy>  (1) 
13.798807999999999

>  <r_lp_tautomer_probability>  (1) 
1

>  <s_epik_Chemistry_Notes>  (1) 
This compound has a N-S or N-O group and may undergo hydrolysis at high or low pH.

>  <s_epik_cmdline>  (1) 
J2VwaWtfcHl0aG9uJywgJy1waHQnLCAnMS4wJywgJy1waCcsICc3LjQnLCAnLXRuJywgJzgnLCAnLW1hJywgJzUwMCcsICctaW1hZScsICc8aW5maWxlLm1hZT4nLCAnLW9tYWUnLCAnPG91dGZpbGUubWFlPic=

>  <s_epik_input>  (1) 
bzFbY0hdW2NIXWMoYzEyKVtjSF1jKFtOSF1bT0hdKVtjSF1bY0hdMg==

>  <s_glide_docking_method>  (1) 
confgen

>  <s_i_glide_gridfile>  (1) 
gpcr_drd2_6luq_protein_autoprepared_prepared

>  <s_lp_Force_Field>  (1) 
S-OPLS

>  <s_lp_Variant>  (1) 
Pocket2Mol_61_num_sample_100-1

>  <s_m_source_file>  (1) 
generated__ligand_Pocket2Mol_2026-05-06_prepared.sdf

>  <GenAI_Model>  (1) 
Pocket2Mol

>  <Protein>  (1) 
generic_title2

$$$$
Pocket2Mol_97_num_sample_100
     RDKit          3D

  0  0  0  0  0  0  0  0  0  0999 V3000
M  V30 BEGIN CTAB
M  V30 COUNTS 24 25 0 0 1
M  V30 BEGIN ATOM
M  V30 1 C 9.165060 5.377501 -9.720562 0
M  V30 2 O 9.402384 5.097945 -8.349864 0
M  V30 3 C 9.692433 6.762962 -10.121956 0
M  V30 4 O 10.973102 6.969301 -9.560913 0
M  V30 5 C 9.050859 6.171539 -7.497147 0
M  V30 6 C 11.079218 7.499349 -8.297419 0
M  V30 7 C 12.128688 8.379408 -8.032663 0
M  V30 8 C 10.161976 7.167195 -7.262787 0
M  V30 9 C 13.144782 8.655791 -9.109578 0
M  V30 10 C 12.241345 8.991353 -6.769275 0
M  V30 11 C 11.320068 8.690848 -5.755865 0
M  V30 12 F 11.434854 9.276608 -4.540244 0
M  V30 13 C 10.289660 7.770655 -5.998178 0
M  V30 14 H 8.097470 5.307901 -9.933625 0
M  V30 15 H 9.655173 4.600968 -10.307838 0
M  V30 16 H 9.034839 7.579310 -9.832910 0
M  V30 17 H 9.771562 6.820232 -11.207511 0
M  V30 18 H 8.720490 5.769302 -6.540973 0
M  V30 19 H 8.234839 6.738033 -7.891662 0
M  V30 20 H 12.748982 9.369301 -9.825892 0
M  V30 21 H 14.097971 8.969301 -8.691667 0
M  V30 22 H 13.358605 7.746325 -9.665698 0
M  V30 23 H 13.048236 9.682120 -6.573577 0
M  V30 24 H 9.594414 7.525175 -5.214937 0
M  V30 END ATOM
M  V30 BEGIN BOND
M  V30 1 1 2 1
M  V30 2 1 3 1
M  V30 3 1 4 3
M  V30 4 1 5 2
M  V30 5 1 6 4
M  V30 6 2 7 6
M  V30 7 1 8 5
M  V30 8 1 8 6
M  V30 9 1 9 7
M  V30 10 1 10 7
M  V30 11 2 11 10
M  V30 12 1 12 11
M  V30 13 2 13 8
M  V30 14 1 13 11
M  V30 15 1 14 1
M  V30 16 1 15 1
M  V30 17 1 16 3
M  V30 18 1 17 3
M  V30 19 1 18 5
M  V30 20 1 19 5
M  V30 21 1 20 9
M  V30 22 1 21 9
M  V30 23 1 22 9
M  V30 24 1 23 10
M  V30 25 1 24 13
M  V30 END BOND
M  V30 END CTAB
M  END
>  <i_epik_Tot_Q>  (1) 
0

>  <i_epik_Tot_abs_Q>  (1) 
0

>  <i_i_glide_confnum>  (1) 
2

>  <i_i_glide_lignum>  (1) 
106

>  <i_i_glide_posenum>  (1) 
67

>  <i_i_glide_rotatable_bonds>  (1) 
0

>  <i_lp_mmshare_version>  (1) 
72125

>  <i_m_source_file_index>  (1) 
98

>  <i_f3d_flags>  (1) 
0

>  <num_sample>  (1) 
100

>  <b_lp_Chiralities_Consistent>  (1) 
1

>  <r_epik_Charging_Adjusted_Penalty>  (1) 
0

>  <r_epik_Ionization_Penalty>  (1) 
1.3261073421285308e-13

>  <r_epik_Ionization_Penalty_Charging>  (1) 
0

>  <r_epik_Ionization_Penalty_Neutral>  (1) 
1.3261073421285308e-13

>  <r_epik_State_Penalty>  (1) 
-0

>  <r_glide_ring_energy>  (1) 
1.7623001670689571

>  <r_i_docking_score>  (1) 
-5.6741042845598972

>  <r_i_glide_ecoul>  (1) 
-2.3145240592008665

>  <r_i_glide_eff_state_penalty>  (1) 
-0

>  <r_i_glide_einternal>  (1) 
0

>  <r_i_glide_emodel>  (1) 
-27.206394809383617

>  <r_i_glide_emodel_strain>  (1) 
0.022352628987285073

>  <r_i_glide_energy>  (1) 
-19.811736690429747

>  <r_i_glide_erotb>  (1) 
0

>  <r_i_glide_esite>  (1) 
0

>  <r_i_glide_evdw>  (1) 
-17.49721263122888

>  <r_i_glide_gscore>  (1) 
-5.6741042845598972

>  <r_i_glide_gscore_strain>  (1) 
0

>  <r_i_glide_hbond>  (1) 
0

>  <r_i_glide_ligand_efficiency>  (1) 
-0.43646956035076134

>  <r_i_glide_ligand_efficiency_ln>  (1) 
-1.5916367150304229

>  <r_i_glide_ligand_efficiency_sa>  (1) 
-1.0262860173869739

>  <r_i_glide_lipo>  (1) 
-0.99701594258137916

>  <r_i_glide_metal>  (1) 
-0

>  <r_i_glide_rewards>  (1) 
-3.455049101536944

>  <r_lp_Energy>  (1) 
15.481259999999999

>  <r_lp_tautomer_probability>  (1) 
1

>  <s_epik_cmdline>  (1) 
J2VwaWtfcHl0aG9uJywgJy1waHQnLCAnMS4wJywgJy1waCcsICc3LjQnLCAnLXRuJywgJzgnLCAnLW1hJywgJzUwMCcsICctaW1hZScsICc8aW5maWxlLm1hZT4nLCAnLW9tYWUnLCAnPG91dGZpbGUubWFlPic=

>  <s_epik_input>  (1) 
TzFbQ0gyXVtDSDJdT1tDSDJdYyhjMTIpW2NIXWMoRilbY0hdYzJbQ0gzXQ==

>  <s_glide_docking_method>  (1) 
confgen

>  <s_i_glide_gridfile>  (1) 
gpcr_drd2_6luq_protein_autoprepared_prepared

>  <s_lp_Force_Field>  (1) 
S-OPLS

>  <s_lp_Variant>  (1) 
Pocket2Mol_97_num_sample_100-1

>  <s_m_source_file>  (1) 
generated__ligand_Pocket2Mol_2026-05-06_prepared.sdf

>  <GenAI_Model>  (1) 
Pocket2Mol

>  <Protein>  (1) 
generic_title2

$$$$
Pocket2Mol_68_num_sample_100
     RDKit          3D

  0  0  0  0  0  0  0  0  0  0999 V3000
M  V30 BEGIN CTAB
M  V30 COUNTS 19 20 0 0 1
M  V30 BEGIN ATOM
M  V30 1 C 9.145843 5.336498 -9.015023 0
M  V30 2 O 9.022138 6.082640 -7.815153 0
M  V30 3 C 9.989930 7.035165 -7.603579 0
M  V30 4 C 9.434680 6.281952 -10.181753 0
M  V30 5 O 10.651089 6.969302 -9.942364 0
M  V30 6 C 10.817908 7.475500 -8.672292 0
M  V30 7 C 10.160582 7.576821 -6.315778 0
M  V30 8 C 11.155244 8.543135 -6.082135 0
M  V30 9 C 11.821166 8.435656 -8.431637 0
M  V30 10 O 12.630003 8.847411 -9.458146 0
M  V30 11 C 11.988311 8.969067 -7.135250 0
M  V30 12 H 8.219622 4.789831 -9.188016 0
M  V30 13 H 9.939791 4.598326 -8.906183 0
M  V30 14 H 8.635124 7.003015 -10.315347 0
M  V30 15 H 9.516615 5.727228 -11.116256 0
M  V30 16 H 9.526981 7.246998 -5.503838 0
M  V30 17 H 11.283771 8.954378 -5.091749 0
M  V30 18 H 13.260274 9.534033 -9.273151 0
M  V30 19 H 12.753369 9.704135 -6.947239 0
M  V30 END ATOM
M  V30 BEGIN BOND
M  V30 1 1 2 1
M  V30 2 1 3 2
M  V30 3 1 4 1
M  V30 4 1 5 4
M  V30 5 1 6 3
M  V30 6 1 6 5
M  V30 7 2 7 3
M  V30 8 1 8 7
M  V30 9 2 9 6
M  V30 10 1 10 9
M  V30 11 2 11 8
M  V30 12 1 11 9
M  V30 13 1 12 1
M  V30 14 1 13 1
M  V30 15 1 14 4
M  V30 16 1 15 4
M  V30 17 1 16 7
M  V30 18 1 17 8
M  V30 19 1 18 10
M  V30 20 1 19 11
M  V30 END BOND
M  V30 END CTAB
M  END
>  <i_epik_Tot_Q>  (1) 
0

>  <i_epik_Tot_abs_Q>  (1) 
0

>  <i_i_glide_confnum>  (1) 
1

>  <i_i_glide_lignum>  (1) 
75

>  <i_i_glide_posenum>  (1) 
399

>  <i_i_glide_rotatable_bonds>  (1) 
1

>  <i_lp_mmshare_version>  (1) 
72125

>  <i_m_source_file_index>  (1) 
69

>  <i_f3d_flags>  (1) 
0

>  <num_sample>  (1) 
100

>  <b_lp_Chiralities_Consistent>  (1) 
1

>  <r_epik_Charging_Adjusted_Penalty>  (1) 
0.0030607566555237334

>  <r_epik_Ionization_Penalty>  (1) 
0.0030607566555237659

>  <r_epik_Ionization_Penalty_Charging>  (1) 
0

>  <r_epik_Ionization_Penalty_Neutral>  (1) 
0.0030607566555237659

>  <r_epik_State_Penalty>  (1) 
0.0030607566555237334

>  <r_glide_ring_energy>  (1) 
0

>  <r_i_docking_score>  (1) 
-5.6639902581945778

>  <r_i_glide_ecoul>  (1) 
-3.6954677064190817

>  <r_i_glide_eff_state_penalty>  (1) 
0.0030607566555237334

>  <r_i_glide_einternal>  (1) 
0.020033852221684037

>  <r_i_glide_emodel>  (1) 
-29.488485143185496

>  <r_i_glide_emodel_strain>  (1) 
0

>  <r_i_glide_energy>  (1) 
-21.948304355869656

>  <r_i_glide_erotb>  (1) 
0

>  <r_i_glide_esite>  (1) 
0

>  <r_i_glide_evdw>  (1) 
-18.252836649450575

>  <r_i_glide_gscore>  (1) 
-5.6670510148501014

>  <r_i_glide_gscore_strain>  (1) 
0

>  <r_i_glide_hbond>  (1) 
-0.32000000000000001

>  <r_i_glide_ligand_efficiency>  (1) 
-0.51490820529041614

>  <r_i_glide_ligand_efficiency_ln>  (1) 
-1.6669113682041006

>  <r_i_glide_ligand_efficiency_sa>  (1) 
-1.1451455970366635

>  <r_i_glide_lipo>  (1) 
-1.0114492547667184

>  <r_i_glide_metal>  (1) 
-0

>  <r_i_glide_rewards>  (1) 
-2.8686397716479926

>  <r_lp_Energy>  (1) 
16.942557999999998

>  <r_lp_tautomer_probability>  (1) 
0.99999999996300004

>  <s_epik_cmdline>  (1) 
J2VwaWtfcHl0aG9uJywgJy1waHQnLCAnMS4wJywgJy1waCcsICc3LjQnLCAnLXRuJywgJzgnLCAnLW1hJywgJzUwMCcsICctaW1hZScsICc8aW5maWxlLm1hZT4nLCAnLW9tYWUnLCAnPG91dGZpbGUubWFlPic=

>  <s_epik_input>  (1) 
TzFbQ0gyXVtDSDJdT2MoYzEyKWMoW09IXSlbY0hdW2NIXVtjSF0y

>  <s_glide_docking_method>  (1) 
confgen

>  <s_i_glide_gridfile>  (1) 
gpcr_drd2_6luq_protein_autoprepared_prepared

>  <s_lp_Force_Field>  (1) 
S-OPLS

>  <s_lp_Variant>  (1) 
Pocket2Mol_68_num_sample_100-1

>  <s_m_source_file>  (1) 
generated__ligand_Pocket2Mol_2026-05-06_prepared.sdf

>  <GenAI_Model>  (1) 
Pocket2Mol

>  <Protein>  (1) 
generic_title2

$$$$
Pocket2Mol_81_num_sample_100
     RDKit          3D

  0  0  0  0  0  0  0  0  0  0999 V3000
M  V30 BEGIN CTAB
M  V30 COUNTS 20 21 0 0 1
M  V30 BEGIN ATOM
M  V30 1 C 9.834838 6.694848 -8.115446 0
M  V30 2 O 10.620107 6.103833 -7.091667 0
M  V30 3 C 11.021905 6.961832 -6.095463 0
M  V30 4 C 10.549180 7.956582 -8.601612 0
M  V30 5 O 10.647649 8.881703 -7.527377 0
M  V30 6 C 11.031673 8.360405 -6.313366 0
M  V30 7 C 11.434843 9.225364 -5.281227 0
M  V30 8 O 11.434841 10.569301 -5.491667 0
M  V30 9 C 11.427073 6.445155 -4.851553 0
M  V30 10 C 11.838021 8.699566 -4.033636 0
M  V30 11 O 12.228780 9.534806 -3.030589 0
M  V30 12 C 11.834839 7.309862 -3.823510 0
M  V30 13 H 8.837440 6.927168 -7.738084 0
M  V30 14 H 9.715702 5.982142 -8.931647 0
M  V30 15 H 9.990923 8.419485 -9.415801 0
M  V30 16 H 11.544495 7.720000 -8.980457 0
M  V30 17 H 11.123522 10.774811 -6.360051 0
M  V30 18 H 11.421501 5.381005 -4.685495 0
M  V30 19 H 12.529756 9.101621 -2.247299 0
M  V30 20 H 12.142438 6.905098 -2.870472 0
M  V30 END ATOM
M  V30 BEGIN BOND
M  V30 1 1 2 1
M  V30 2 1 3 2
M  V30 3 1 4 1
M  V30 4 1 5 4
M  V30 5 2 6 3
M  V30 6 1 6 5
M  V30 7 1 7 6
M  V30 8 1 8 7
M  V30 9 1 9 3
M  V30 10 2 10 7
M  V30 11 1 11 10
M  V30 12 2 12 9
M  V30 13 1 12 10
M  V30 14 1 13 1
M  V30 15 1 14 1
M  V30 16 1 15 4
M  V30 17 1 16 4
M  V30 18 1 17 8
M  V30 19 1 18 9
M  V30 20 1 19 11
M  V30 21 1 20 12
M  V30 END BOND
M  V30 END CTAB
M  END
>  <i_epik_Tot_Q>  (1) 
0

>  <i_epik_Tot_abs_Q>  (1) 
0

>  <i_i_glide_confnum>  (1) 
2

>  <i_i_glide_lignum>  (1) 
88

>  <i_i_glide_posenum>  (1) 
45

>  <i_i_glide_rotatable_bonds>  (1) 
2

>  <i_lp_mmshare_version>  (1) 
72125

>  <i_m_source_file_index>  (1) 
82

>  <i_f3d_flags>  (1) 
0

>  <num_sample>  (1) 
100

>  <b_lp_Chiralities_Consistent>  (1) 
1

>  <r_epik_Charging_Adjusted_Penalty>  (1) 
0.0036846811785224438

>  <r_epik_Ionization_Penalty>  (1) 
0.0053862680964110767

>  <r_epik_Ionization_Penalty_Charging>  (1) 
0

>  <r_epik_Ionization_Penalty_Neutral>  (1) 
0.0053862680964110767

>  <r_epik_State_Penalty>  (1) 
0.0036846811785224438

>  <r_glide_ring_energy>  (1) 
0.0030853077569594689

>  <r_i_docking_score>  (1) 
-5.6637229661641877

>  <r_i_glide_ecoul>  (1) 
-1.8277744158260893

>  <r_i_glide_eff_state_penalty>  (1) 
0.0036846811785224438

>  <r_i_glide_einternal>  (1) 
0.003143692762789474

>  <r_i_glide_emodel>  (1) 
-31.800588222998144

>  <r_i_glide_emodel_strain>  (1) 
0

>  <r_i_glide_energy>  (1) 
-21.706454126996714

>  <r_i_glide_erotb>  (1) 
0

>  <r_i_glide_esite>  (1) 
0

>  <r_i_glide_evdw>  (1) 
-19.878679711170626

>  <r_i_glide_gscore>  (1) 
-5.66740764734271

>  <r_i_glide_gscore_strain>  (1) 
0

>  <r_i_glide_hbond>  (1) 
0

>  <r_i_glide_ligand_efficiency>  (1) 
-0.47197691384701562

>  <r_i_glide_ligand_efficiency_ln>  (1) 
-1.6252151163098538

>  <r_i_glide_ligand_efficiency_sa>  (1) 
-1.0805573908740915

>  <r_i_glide_lipo>  (1) 
-1.557689743790073

>  <r_i_glide_metal>  (1) 
-0

>  <r_i_glide_rewards>  (1) 
-2.8416177556201925

>  <r_lp_Energy>  (1) 
18.638769

>  <r_lp_tautomer_probability>  (1) 
0.99999998461580031

>  <s_epik_cmdline>  (1) 
J2VwaWtfcHl0aG9uJywgJy1waHQnLCAnMS4wJywgJy1waCcsICc3LjQnLCAnLXRuJywgJzgnLCAnLW1hJywgJzUwMCcsICctaW1hZScsICc8aW5maWxlLm1hZT4nLCAnLW9tYWUnLCAnPG91dGZpbGUubWFlPic=

>  <s_epik_input>  (1) 
TzFbQ0gyXVtDSDJdT2MoYzEyKWMoW09IXSljKFtPSF0pW2NIXVtjSF0y

>  <s_glide_docking_method>  (1) 
confgen

>  <s_i_glide_gridfile>  (1) 
gpcr_drd2_6luq_protein_autoprepared_prepared

>  <s_lp_Force_Field>  (1) 
S-OPLS

>  <s_lp_Variant>  (1) 
Pocket2Mol_81_num_sample_100-1

>  <s_m_source_file>  (1) 
generated__ligand_Pocket2Mol_2026-05-06_prepared.sdf

>  <GenAI_Model>  (1) 
Pocket2Mol

>  <Protein>  (1) 
generic_title2

$$$$
Pocket2Mol_47_num_sample_100
     RDKit          3D

  0  0  0  0  0  0  0  0  0  0999 V3000
M  V30 BEGIN CTAB
M  V30 COUNTS 16 17 0 0 1
M  V30 BEGIN ATOM
M  V30 1 C 9.768643 6.734502 -7.165364 0
M  V30 2 O 10.453254 6.248413 -6.083072 0
M  V30 3 C 11.034839 7.165308 -5.239140 0
M  V30 4 C 11.035685 8.541636 -5.574339 0
M  V30 5 C 11.635801 9.475229 -4.707083 0
M  V30 6 C 11.634417 6.735757 -4.038006 0
M  V30 7 C 12.234844 7.672850 -3.172440 0
M  V30 8 O 10.450082 8.969302 -6.742426 0
M  V30 9 C 12.234837 9.041113 -3.506630 0
M  V30 10 C 9.767467 8.040311 -7.481785 0
M  V30 11 H 9.246197 5.962405 -7.712292 0
M  V30 12 H 11.635137 10.524810 -4.961775 0
M  V30 13 H 11.634340 5.690296 -3.781008 0
M  V30 14 H 12.692804 7.341718 -2.252420 0
M  V30 15 H 12.694363 9.759408 -2.841892 0
M  V30 16 H 9.243191 8.475661 -8.320913 0
M  V30 END ATOM
M  V30 BEGIN BOND
M  V30 1 1 2 1
M  V30 2 1 3 2
M  V30 3 1 4 3
M  V30 4 2 5 4
M  V30 5 2 6 3
M  V30 6 1 7 6
M  V30 7 1 8 4
M  V30 8 1 9 5
M  V30 9 2 9 7
M  V30 10 2 10 1
M  V30 11 1 10 8
M  V30 12 1 11 1
M  V30 13 1 12 5
M  V30 14 1 13 6
M  V30 15 1 14 7
M  V30 16 1 15 9
M  V30 17 1 16 10
M  V30 END BOND
M  V30 END CTAB
M  END
>  <i_epik_Tot_Q>  (1) 
0

>  <i_epik_Tot_abs_Q>  (1) 
0

>  <i_i_glide_confnum>  (1) 
1

>  <i_i_glide_lignum>  (1) 
53

>  <i_i_glide_posenum>  (1) 
389

>  <i_i_glide_rotatable_bonds>  (1) 
0

>  <i_lp_mmshare_version>  (1) 
72125

>  <i_m_source_file_index>  (1) 
48

>  <i_f3d_flags>  (1) 
0

>  <num_sample>  (1) 
100

>  <b_lp_Chiralities_Consistent>  (1) 
1

>  <r_epik_Charging_Adjusted_Penalty>  (1) 
0

>  <r_epik_Ionization_Penalty>  (1) 
0

>  <r_epik_Ionization_Penalty_Charging>  (1) 
0

>  <r_epik_Ionization_Penalty_Neutral>  (1) 
0

>  <r_epik_State_Penalty>  (1) 
-0

>  <r_glide_ring_energy>  (1) 
0

>  <r_i_docking_score>  (1) 
-5.660185924839082

>  <r_i_glide_ecoul>  (1) 
-0.89800186008339922

>  <r_i_glide_eff_state_penalty>  (1) 
-0

>  <r_i_glide_einternal>  (1) 
0

>  <r_i_glide_emodel>  (1) 
-28.339567416836537

>  <r_i_glide_emodel_strain>  (1) 
0

>  <r_i_glide_energy>  (1) 
-20.982865687098982

>  <r_i_glide_erotb>  (1) 
0

>  <r_i_glide_esite>  (1) 
0

>  <r_i_glide_evdw>  (1) 
-20.084863827015582

>  <r_i_glide_gscore>  (1) 
-5.660185924839082

>  <r_i_glide_gscore_strain>  (1) 
0

>  <r_i_glide_hbond>  (1) 
0

>  <r_i_glide_ligand_efficiency>  (1) 
-0.56601859248390818

>  <r_i_glide_ligand_efficiency_ln>  (1) 
-1.7138652799124974

>  <r_i_glide_ligand_efficiency_sa>  (1) 
-1.2194500908503521

>  <r_i_glide_lipo>  (1) 
-1.7703030426908835

>  <r_i_glide_metal>  (1) 
-0

>  <r_i_glide_rewards>  (1) 
-2.7509394117849091

>  <r_lp_Energy>  (1) 
24.726983000000001

>  <r_lp_tautomer_probability>  (1) 
1

>  <s_epik_cmdline>  (1) 
J2VwaWtfcHl0aG9uJywgJy1waHQnLCAnMS4wJywgJy1waCcsICc3LjQnLCAnLXRuJywgJzgnLCAnLW1hJywgJzUwMCcsICctaW1hZScsICc8aW5maWxlLm1hZT4nLCAnLW9tYWUnLCAnPG91dGZpbGUubWFlPic=

>  <s_epik_input>  (1) 
TzFbQ0hdPVtDSF1PYyhjMTIpW2NIXVtjSF1bY0hdW2NIXTI=

>  <s_glide_docking_method>  (1) 
confgen

>  <s_i_glide_gridfile>  (1) 
gpcr_drd2_6luq_protein_autoprepared_prepared

>  <s_lp_Force_Field>  (1) 
S-OPLS

>  <s_lp_Variant>  (1) 
Pocket2Mol_47_num_sample_100-1

>  <s_m_source_file>  (1) 
generated__ligand_Pocket2Mol_2026-05-06_prepared.sdf

>  <GenAI_Model>  (1) 
Pocket2Mol

>  <Protein>  (1) 
generic_title2

$$$$
Pocket2Mol_92_num_sample_100
     RDKit          3D

  0  0  0  0  0  0  0  0  0  0999 V3000
M  V30 BEGIN CTAB
M  V30 COUNTS 26 27 0 0 1
M  V30 BEGIN ATOM
M  V30 1 C 10.347731 7.274168 -8.651690 0
M  V30 2 O 11.175024 8.312537 -9.145489 0
M  V30 3 C 9.434686 7.818116 -7.542297 0
M  V30 4 O 9.950908 7.903387 -6.221285 0
M  V30 5 C 12.326047 8.569712 -8.362256 0
M  V30 6 C 11.353785 7.963196 -6.048187 0 CFG=2
M  V30 7 C 11.696694 8.045537 -4.564430 0
M  V30 8 C 12.023707 9.039867 -6.926291 0
M  V30 9 C 11.834839 6.864765 -3.806039 0
M  V30 10 N 11.834866 9.290838 -4.040479 0
M  V30 11 C 12.133775 9.369220 -2.719814 0
M  V30 12 C 12.304933 8.246244 -1.892415 0
M  V30 13 C 12.150623 6.969329 -2.445907 0
M  V30 14 H 10.907208 6.386410 -8.354698 0
M  V30 15 H 9.716041 6.966266 -9.485661 0
M  V30 16 H 8.588815 7.142194 -7.463743 0
M  V30 17 H 9.031668 8.788800 -7.832393 0
M  V30 18 H 12.992936 7.710443 -8.358824 0
M  V30 19 H 12.859094 9.368324 -8.880165 0
M  V30 20 H 11.434867 9.955504 -6.916598 0
M  V30 21 H 12.985047 9.312618 -6.488796 0
M  V30 22 H 11.704382 5.895803 -4.266441 0
M  V30 23 H 12.231631 10.361085 -2.307215 0
M  V30 24 H 12.545922 8.369697 -0.848813 0
M  V30 25 H 12.269562 6.084610 -1.837195 0
M  V30 26 H 11.756695 6.998279 -6.358584 0
M  V30 END ATOM
M  V30 BEGIN BOND
M  V30 1 1 2 1
M  V30 2 1 3 1
M  V30 3 1 4 3
M  V30 4 1 5 2
M  V30 5 1 6 4
M  V30 6 1 7 6
M  V30 7 1 8 5
M  V30 8 1 8 6
M  V30 9 1 9 7
M  V30 10 2 10 7
M  V30 11 1 11 10
M  V30 12 2 12 11
M  V30 13 2 13 9
M  V30 14 1 13 12
M  V30 15 1 14 1
M  V30 16 1 15 1
M  V30 17 1 16 3
M  V30 18 1 17 3
M  V30 19 1 18 5
M  V30 20 1 19 5
M  V30 21 1 20 8
M  V30 22 1 21 8
M  V30 23 1 22 9
M  V30 24 1 23 11
M  V30 25 1 24 12
M  V30 26 1 25 13
M  V30 27 1 6 26 CFG=3
M  V30 END BOND
M  V30 END CTAB
M  END
>  <i_epik_Tot_Q>  (1) 
0

>  <i_epik_Tot_abs_Q>  (1) 
0

>  <i_i_glide_confnum>  (1) 
9

>  <i_i_glide_lignum>  (1) 
101

>  <i_i_glide_posenum>  (1) 
174

>  <i_i_glide_rotatable_bonds>  (1) 
1

>  <i_lp_mmshare_version>  (1) 
72125

>  <i_m_source_file_index>  (1) 
93

>  <i_f3d_flags>  (1) 
0

>  <num_sample>  (1) 
100

>  <b_lp_Chiralities_Consistent>  (1) 
1

>  <r_epik_Charging_Adjusted_Penalty>  (1) 
0.0037896276157117258

>  <r_epik_Ionization_Penalty>  (1) 
0.0037896276174286705

>  <r_epik_Ionization_Penalty_Charging>  (1) 
0

>  <r_epik_Ionization_Penalty_Neutral>  (1) 
0.0037896276174286705

>  <r_epik_State_Penalty>  (1) 
0.0037896276157117258

>  <r_glide_ring_energy>  (1) 
0.42012087293804012

>  <r_i_docking_score>  (1) 
-5.6440605098013528

>  <r_i_glide_ecoul>  (1) 
-1.6900298698083183

>  <r_i_glide_eff_state_penalty>  (1) 
0.0037896276157117258

>  <r_i_glide_einternal>  (1) 
2.3935042548241183

>  <r_i_glide_emodel>  (1) 
-30.829202897590605

>  <r_i_glide_emodel_strain>  (1) 
1.6798560325676064

>  <r_i_glide_energy>  (1) 
-25.67466933180388

>  <r_i_glide_erotb>  (1) 
0.4895878840251785

>  <r_i_glide_esite>  (1) 
0

>  <r_i_glide_evdw>  (1) 
-23.984639461995563

>  <r_i_glide_gscore>  (1) 
-5.6478501374170644

>  <r_i_glide_gscore_strain>  (1) 
0

>  <r_i_glide_hbond>  (1) 
0

>  <r_i_glide_ligand_efficiency>  (1) 
-0.43415850075395024

>  <r_i_glide_ligand_efficiency_ln>  (1) 
-1.5832091690133492

>  <r_i_glide_ligand_efficiency_sa>  (1) 
-1.0208519427916019

>  <r_i_glide_lipo>  (1) 
-1.9296744036833875

>  <r_i_glide_metal>  (1) 
-0

>  <r_i_glide_rewards>  (1) 
-2.7550271641878297

>  <r_lp_Energy>  (1) 
20.663057999999999

>  <s_epik_cmdline>  (1) 
J2VwaWtfcHl0aG9uJywgJy1waHQnLCAnMS4wJywgJy1waCcsICc3LjQnLCAnLXRuJywgJzgnLCAnLW1hJywgJzUwMCcsICctaW1hZScsICc8aW5maWxlLm1hZT4nLCAnLW9tYWUnLCAnPG91dGZpbGUubWFlPic=

>  <s_epik_input>  (1) 
W0NIMl0xW0NIMl1PW0NIMl1bQ0gyXU8vQzE9QzJcW0NIXT1bQ0hdW0NIXT1bQ0hdW05IXTI=

>  <s_glide_docking_method>  (1) 
confgen

>  <s_i_glide_gridfile>  (1) 
gpcr_drd2_6luq_protein_autoprepared_prepared

>  <s_lp_Force_Field>  (1) 
S-OPLS

>  <s_lp_Variant>  (1) 
Pocket2Mol_92_num_sample_100-2

>  <s_m_source_file>  (1) 
generated__ligand_Pocket2Mol_2026-05-06_prepared.sdf

>  <GenAI_Model>  (1) 
Pocket2Mol

>  <Protein>  (1) 
generic_title2

$$$$
Pocket2Mol_73_num_sample_100
     RDKit          3D

  0  0  0  0  0  0  0  0  0  0999 V3000
M  V30 BEGIN CTAB
M  V30 COUNTS 20 21 0 0 1
M  V30 BEGIN ATOM
M  V30 1 C 12.073755 7.759159 -2.317695 0
M  V30 2 O 12.223427 9.023990 -3.068355 0
M  V30 3 C 11.834842 8.660340 -4.311100 0
M  V30 4 C 11.451007 7.372933 -4.454733 0
M  V30 5 C 11.034653 6.862519 -5.696459 0
M  V30 6 C 11.523184 6.569087 -3.232066 0
M  V30 7 C 11.835757 9.544904 -5.400165 0
M  V30 8 C 11.027550 7.718692 -6.821774 0
M  V30 9 N 10.631359 7.224940 -8.074000 0
M  V30 10 C 11.434838 9.073469 -6.668241 0
M  V30 11 O 10.224795 8.215147 -8.982200 0
M  V30 12 H 11.386266 7.934311 -1.491308 0
M  V30 13 H 13.034717 7.492349 -1.878440 0
M  V30 14 H 10.735201 5.829132 -5.790950 0
M  V30 15 H 10.555440 6.170787 -2.920868 0
M  V30 16 H 12.234765 5.755306 -3.335220 0
M  V30 17 H 12.147310 10.569337 -5.272527 0
M  V30 18 H 10.003366 6.431052 -8.094299 0
M  V30 19 H 11.439877 9.741411 -7.514495 0
M  V30 20 H 10.815947 8.154168 -9.717264 0
M  V30 END ATOM
M  V30 BEGIN BOND
M  V30 1 1 2 1
M  V30 2 1 3 2
M  V30 3 2 4 3
M  V30 4 1 5 4
M  V30 5 1 6 1
M  V30 6 1 6 4
M  V30 7 1 7 3
M  V30 8 2 8 5
M  V30 9 1 9 8
M  V30 10 2 10 7
M  V30 11 1 10 8
M  V30 12 1 11 9
M  V30 13 1 12 1
M  V30 14 1 13 1
M  V30 15 1 14 5
M  V30 16 1 15 6
M  V30 17 1 16 6
M  V30 18 1 17 7
M  V30 19 1 18 9
M  V30 20 1 19 10
M  V30 21 1 20 11
M  V30 END BOND
M  V30 END CTAB
M  END
>  <i_epik_Tot_Q>  (1) 
0

>  <i_epik_Tot_abs_Q>  (1) 
0

>  <i_i_glide_confnum>  (1) 
1

>  <i_i_glide_lignum>  (1) 
80

>  <i_i_glide_posenum>  (1) 
134

>  <i_i_glide_rotatable_bonds>  (1) 
2

>  <i_lp_mmshare_version>  (1) 
72125

>  <i_m_source_file_index>  (1) 
74

>  <i_f3d_flags>  (1) 
0

>  <num_sample>  (1) 
100

>  <b_lp_Chiralities_Consistent>  (1) 
1

>  <r_epik_Charging_Adjusted_Penalty>  (1) 
0

>  <r_epik_Ionization_Penalty>  (1) 
0.00049506315318442675

>  <r_epik_Ionization_Penalty_Charging>  (1) 
0

>  <r_epik_Ionization_Penalty_Neutral>  (1) 
0.00049506315318442675

>  <r_epik_State_Penalty>  (1) 
-0

>  <r_glide_ring_energy>  (1) 
0

>  <r_i_docking_score>  (1) 
-5.6431013563942649

>  <r_i_glide_ecoul>  (1) 
-0.16893206790128978

>  <r_i_glide_eff_state_penalty>  (1) 
-0

>  <r_i_glide_einternal>  (1) 
0.3408872204733977

>  <r_i_glide_emodel>  (1) 
-31.834312324666744

>  <r_i_glide_emodel_strain>  (1) 
0

>  <r_i_glide_energy>  (1) 
-22.079656636539205

>  <r_i_glide_erotb>  (1) 
0

>  <r_i_glide_esite>  (1) 
-0.013053059544331173

>  <r_i_glide_evdw>  (1) 
-21.910724568637914

>  <r_i_glide_gscore>  (1) 
-5.6431013563942649

>  <r_i_glide_gscore_strain>  (1) 
0

>  <r_i_glide_hbond>  (1) 
0

>  <r_i_glide_ligand_efficiency>  (1) 
-0.51300921421766044

>  <r_i_glide_ligand_efficiency_ln>  (1) 
-1.6607637679624045

>  <r_i_glide_ligand_efficiency_sa>  (1) 
-1.1409222786986859

>  <r_i_glide_lipo>  (1) 
-1.9011324900384972

>  <r_i_glide_metal>  (1) 
-0

>  <r_i_glide_rewards>  (1) 
-2.608039768194347

>  <r_lp_Energy>  (1) 
14.863064999999999

>  <r_lp_tautomer_probability>  (1) 
1

>  <s_epik_Chemistry_Notes>  (1) 
This compound has a N-S or N-O group and may undergo hydrolysis at high or low pH.

>  <s_epik_cmdline>  (1) 
J2VwaWtfcHl0aG9uJywgJy1waHQnLCAnMS4wJywgJy1waCcsICc3LjQnLCAnLXRuJywgJzgnLCAnLW1hJywgJzUwMCcsICctaW1hZScsICc8aW5maWxlLm1hZT4nLCAnLW9tYWUnLCAnPG91dGZpbGUubWFlPic=

>  <s_epik_input>  (1) 
TzFbQ0gyXVtDSDJdYyhjMTIpW2NIXWMoW05IXVtPSF0pW2NIXVtjSF0y

>  <s_glide_docking_method>  (1) 
confgen

>  <s_i_glide_gridfile>  (1) 
gpcr_drd2_6luq_protein_autoprepared_prepared

>  <s_lp_Force_Field>  (1) 
S-OPLS

>  <s_lp_Variant>  (1) 
Pocket2Mol_73_num_sample_100-1

>  <s_m_source_file>  (1) 
generated__ligand_Pocket2Mol_2026-05-06_prepared.sdf

>  <GenAI_Model>  (1) 
Pocket2Mol

>  <Protein>  (1) 
generic_title2

$$$$
Pocket2Mol_70_num_sample_100
     RDKit          3D

  0  0  0  0  0  0  0  0  0  0999 V3000
M  V30 BEGIN CTAB
M  V30 COUNTS 20 21 0 0 1
M  V30 BEGIN ATOM
M  V30 1 C 9.742670 7.066593 -10.706230 0
M  V30 2 O 10.996544 7.437417 -10.149913 0
M  V30 3 C 10.992412 7.636338 -8.788814 0
M  V30 4 C 10.145293 6.870358 -7.950771 0
M  V30 5 C 10.150815 7.088395 -6.558223 0
M  V30 6 C 11.838198 8.609753 -8.224597 0
M  V30 7 C 11.836397 8.828130 -6.832018 0
M  V30 8 C 9.225115 5.818376 -8.545339 0
M  V30 9 F 12.646176 9.769640 -6.291664 0
M  V30 10 C 10.994838 8.066798 -6.000606 0
M  V30 11 C 9.220105 5.768244 -10.080358 0
M  V30 12 H 9.035369 7.882789 -10.560115 0
M  V30 13 H 9.858186 6.945831 -11.783400 0
M  V30 14 H 9.503461 6.506201 -5.917766 0
M  V30 15 H 12.486525 9.193639 -8.861304 0
M  V30 16 H 9.461454 4.837036 -8.134600 0
M  V30 17 H 8.229165 6.068787 -8.195228 0
M  V30 18 H 10.996266 8.233622 -4.933941 0
M  V30 19 H 8.215847 5.551263 -10.446126 0
M  V30 20 H 9.835121 4.936836 -10.416595 0
M  V30 END ATOM
M  V30 BEGIN BOND
M  V30 1 1 2 1
M  V30 2 1 3 2
M  V30 3 2 4 3
M  V30 4 1 5 4
M  V30 5 1 6 3
M  V30 6 2 7 6
M  V30 7 1 8 4
M  V30 8 1 9 7
M  V30 9 2 10 5
M  V30 10 1 10 7
M  V30 11 1 11 1
M  V30 12 1 11 8
M  V30 13 1 12 1
M  V30 14 1 13 1
M  V30 15 1 14 5
M  V30 16 1 15 6
M  V30 17 1 16 8
M  V30 18 1 17 8
M  V30 19 1 18 10
M  V30 20 1 19 11
M  V30 21 1 20 11
M  V30 END BOND
M  V30 END CTAB
M  END
>  <i_epik_Tot_Q>  (1) 
0

>  <i_epik_Tot_abs_Q>  (1) 
0

>  <i_i_glide_confnum>  (1) 
2

>  <i_i_glide_lignum>  (1) 
77

>  <i_i_glide_posenum>  (1) 
229

>  <i_i_glide_rotatable_bonds>  (1) 
0

>  <i_lp_mmshare_version>  (1) 
72125

>  <i_m_source_file_index>  (1) 
71

>  <i_f3d_flags>  (1) 
0

>  <num_sample>  (1) 
100

>  <b_lp_Chiralities_Consistent>  (1) 
1

>  <r_epik_Charging_Adjusted_Penalty>  (1) 
0

>  <r_epik_Ionization_Penalty>  (1) 
0

>  <r_epik_Ionization_Penalty_Charging>  (1) 
0

>  <r_epik_Ionization_Penalty_Neutral>  (1) 
0

>  <r_epik_State_Penalty>  (1) 
-0

>  <r_glide_ring_energy>  (1) 
0.00062641908125231891

>  <r_i_docking_score>  (1) 
-5.6410023065662172

>  <r_i_glide_ecoul>  (1) 
-1.7450833248665178

>  <r_i_glide_eff_state_penalty>  (1) 
-0

>  <r_i_glide_einternal>  (1) 
0

>  <r_i_glide_emodel>  (1) 
-29.082060633753656

>  <r_i_glide_emodel_strain>  (1) 
0.4007219874500958

>  <r_i_glide_energy>  (1) 
-21.998328241370089

>  <r_i_glide_erotb>  (1) 
0

>  <r_i_glide_esite>  (1) 
0

>  <r_i_glide_evdw>  (1) 
-20.253244916503572

>  <r_i_glide_gscore>  (1) 
-5.6410023065662172

>  <r_i_glide_gscore_strain>  (1) 
0

>  <r_i_glide_hbond>  (1) 
0

>  <r_i_glide_ligand_efficiency>  (1) 
-0.51281839150601971

>  <r_i_glide_ligand_efficiency_ln>  (1) 
-1.6601460179555543

>  <r_i_glide_ligand_efficiency_sa>  (1) 
-1.1404978927871685

>  <r_i_glide_lipo>  (1) 
-0.99167830448333427

>  <r_i_glide_metal>  (1) 
-0

>  <r_i_glide_rewards>  (1) 
-3.3748992575277263

>  <r_lp_Energy>  (1) 
13.183325999999999

>  <r_lp_tautomer_probability>  (1) 
1

>  <s_epik_cmdline>  (1) 
J2VwaWtfcHl0aG9uJywgJy1waHQnLCAnMS4wJywgJy1waCcsICc3LjQnLCAnLXRuJywgJzgnLCAnLW1hJywgJzUwMCcsICctaW1hZScsICc8aW5maWxlLm1hZT4nLCAnLW9tYWUnLCAnPG91dGZpbGUubWFlPic=

>  <s_epik_input>  (1) 
TzFbQ0gyXVtDSDJdW0NIMl1jKGMxMilbY0hdW2NIXWMoRilbY0hdMg==

>  <s_glide_docking_method>  (1) 
confgen

>  <s_i_glide_gridfile>  (1) 
gpcr_drd2_6luq_protein_autoprepared_prepared

>  <s_lp_Force_Field>  (1) 
S-OPLS

>  <s_lp_Variant>  (1) 
Pocket2Mol_70_num_sample_100-1

>  <s_m_source_file>  (1) 
generated__ligand_Pocket2Mol_2026-05-06_prepared.sdf

>  <GenAI_Model>  (1) 
Pocket2Mol

>  <Protein>  (1) 
generic_title2

$$$$
Pocket2Mol_38_num_sample_100
     RDKit          3D

  0  0  0  0  0  0  0  0  0  0999 V3000
M  V30 BEGIN CTAB
M  V30 COUNTS 15 16 0 0 1
M  V30 BEGIN ATOM
M  V30 1 C 11.264293 8.915216 -6.521089 0
M  V30 2 O 11.739994 9.675936 -5.465440 0
M  V30 3 C 11.845017 8.832893 -4.384594 0
M  V30 4 C 11.434733 7.545984 -4.758118 0
M  V30 5 C 11.478759 6.546409 -3.760733 0
M  V30 6 C 12.286271 9.162168 -3.099011 0
M  V30 7 C 11.052368 7.608806 -6.130972 0
M  V30 8 C 12.330257 8.159970 -2.119228 0
M  V30 9 C 11.926241 6.847942 -2.449243 0
M  V30 10 H 11.131502 9.431435 -7.455624 0
M  V30 11 H 11.165767 5.543634 -4.002197 0
M  V30 12 H 12.590926 10.169301 -2.863173 0
M  V30 13 H 10.680624 6.792680 -6.733126 0
M  V30 14 H 12.670636 8.389707 -1.120263 0
M  V30 15 H 11.954530 6.068856 -1.699085 0
M  V30 END ATOM
M  V30 BEGIN BOND
M  V30 1 1 2 1
M  V30 2 1 3 2
M  V30 3 1 4 3
M  V30 4 2 5 4
M  V30 5 2 6 3
M  V30 6 2 7 1
M  V30 7 1 7 4
M  V30 8 1 8 6
M  V30 9 1 9 5
M  V30 10 2 9 8
M  V30 11 1 10 1
M  V30 12 1 11 5
M  V30 13 1 12 6
M  V30 14 1 13 7
M  V30 15 1 14 8
M  V30 16 1 15 9
M  V30 END BOND
M  V30 END CTAB
M  END
>  <i_epik_Tot_Q>  (1) 
0

>  <i_epik_Tot_abs_Q>  (1) 
0

>  <i_i_glide_confnum>  (1) 
1

>  <i_i_glide_lignum>  (1) 
43

>  <i_i_glide_posenum>  (1) 
30

>  <i_i_glide_rotatable_bonds>  (1) 
0

>  <i_lp_mmshare_version>  (1) 
72125

>  <i_m_source_file_index>  (1) 
39

>  <i_f3d_flags>  (1) 
0

>  <num_sample>  (1) 
100

>  <b_lp_Chiralities_Consistent>  (1) 
1

>  <r_epik_Charging_Adjusted_Penalty>  (1) 
0

>  <r_epik_Ionization_Penalty>  (1) 
0

>  <r_epik_Ionization_Penalty_Charging>  (1) 
0

>  <r_epik_Ionization_Penalty_Neutral>  (1) 
0

>  <r_epik_State_Penalty>  (1) 
-0

>  <r_glide_ring_energy>  (1) 
0

>  <r_i_docking_score>  (1) 
-5.6396055412168167

>  <r_i_glide_ecoul>  (1) 
-1.2583134727208558

>  <r_i_glide_eff_state_penalty>  (1) 
-0

>  <r_i_glide_einternal>  (1) 
0

>  <r_i_glide_emodel>  (1) 
-26.297870801489609

>  <r_i_glide_emodel_strain>  (1) 
0

>  <r_i_glide_energy>  (1) 
-19.089472048396875

>  <r_i_glide_erotb>  (1) 
0

>  <r_i_glide_esite>  (1) 
0

>  <r_i_glide_evdw>  (1) 
-17.831158575676017

>  <r_i_glide_gscore>  (1) 
-5.6396055412168167

>  <r_i_glide_gscore_strain>  (1) 
0

>  <r_i_glide_hbond>  (1) 
0

>  <r_i_glide_ligand_efficiency>  (1) 
-0.62662283791297968

>  <r_i_glide_ligand_efficiency_ln>  (1) 
-1.763906602368069

>  <r_i_glide_ligand_efficiency_sa>  (1) 
-1.3034280282976645

>  <r_i_glide_lipo>  (1) 
-2.0972918106594869

>  <r_i_glide_metal>  (1) 
-0

>  <r_i_glide_rewards>  (1) 
-2.4620087808654008

>  <r_lp_Energy>  (1) 
12.927653999999999

>  <r_lp_tautomer_probability>  (1) 
1

>  <s_epik_cmdline>  (1) 
J2VwaWtfcHl0aG9uJywgJy1waHQnLCAnMS4wJywgJy1waCcsICc3LjQnLCAnLXRuJywgJzgnLCAnLW1hJywgJzUwMCcsICctaW1hZScsICc8aW5maWxlLm1hZT4nLCAnLW9tYWUnLCAnPG91dGZpbGUubWFlPic=

>  <s_epik_input>  (1) 
bzFbY0hdW2NIXWMoYzEyKVtjSF1bY0hdW2NIXVtjSF0y

>  <s_glide_docking_method>  (1) 
confgen

>  <s_i_glide_gridfile>  (1) 
gpcr_drd2_6luq_protein_autoprepared_prepared

>  <s_lp_Force_Field>  (1) 
S-OPLS

>  <s_lp_Variant>  (1) 
Pocket2Mol_38_num_sample_100-1

>  <s_m_source_file>  (1) 
generated__ligand_Pocket2Mol_2026-05-06_prepared.sdf

>  <GenAI_Model>  (1) 
Pocket2Mol

>  <Protein>  (1) 
generic_title2

$$$$
Pocket2Mol_87_num_sample_100
     RDKit          3D

  0  0  0  0  0  0  0  0  0  0999 V3000
M  V30 BEGIN CTAB
M  V30 COUNTS 21 22 0 0 1
M  V30 BEGIN ATOM
M  V30 1 C 9.750321 6.601410 -8.946144 0
M  V30 2 O 9.834839 7.964502 -8.654562 0
M  V30 3 C 9.409528 5.943526 -7.639067 0
M  V30 4 O 10.642239 5.865921 -6.978075 0
M  V30 5 C 10.927198 8.569291 -8.171099 0
M  V30 6 C 11.042917 6.911769 -6.184998 0
M  V30 7 C 11.359616 6.650093 -4.833617 0
M  V30 8 O 11.586971 9.369286 -8.831033 0
M  V30 9 C 11.210884 8.236913 -6.708753 0
M  V30 10 C 11.685449 9.266636 -5.838225 0
M  V30 11 C 11.834831 7.674245 -3.997064 0
M  V30 12 O 11.834839 10.545138 -6.291652 0
M  V30 13 C 11.989447 8.975626 -4.493208 0
M  V30 14 H 8.945284 6.454873 -9.666818 0
M  V30 15 H 10.666735 6.212195 -9.385736 0
M  V30 16 H 8.642739 6.474897 -7.071196 0
M  V30 17 H 9.048683 4.930291 -7.811630 0
M  V30 18 H 11.246914 5.652216 -4.441791 0
M  V30 19 H 12.076021 7.459221 -2.967368 0
M  V30 20 H 12.082217 11.166227 -5.624266 0
M  V30 21 H 12.346174 9.757869 -3.839001 0
M  V30 END ATOM
M  V30 BEGIN BOND
M  V30 1 1 2 1
M  V30 2 1 3 1
M  V30 3 1 4 3
M  V30 4 1 5 2
M  V30 5 1 6 4
M  V30 6 2 7 6
M  V30 7 2 8 5
M  V30 8 1 9 5
M  V30 9 1 9 6
M  V30 10 2 10 9
M  V30 11 1 11 7
M  V30 12 1 12 10
M  V30 13 1 13 10
M  V30 14 2 13 11
M  V30 15 1 14 1
M  V30 16 1 15 1
M  V30 17 1 16 3
M  V30 18 1 17 3
M  V30 19 1 18 7
M  V30 20 1 19 11
M  V30 21 1 20 12
M  V30 22 1 21 13
M  V30 END BOND
M  V30 END CTAB
M  END
>  <i_epik_Tot_Q>  (1) 
0

>  <i_epik_Tot_abs_Q>  (1) 
0

>  <i_i_glide_confnum>  (1) 
2

>  <i_i_glide_lignum>  (1) 
94

>  <i_i_glide_posenum>  (1) 
203

>  <i_i_glide_rotatable_bonds>  (1) 
1

>  <i_lp_mmshare_version>  (1) 
72125

>  <i_m_source_file_index>  (1) 
88

>  <i_f3d_flags>  (1) 
0

>  <num_sample>  (1) 
100

>  <b_lp_Chiralities_Consistent>  (1) 
1

>  <r_epik_Charging_Adjusted_Penalty>  (1) 
0.011568550508496497

>  <r_epik_Ionization_Penalty>  (1) 
0.011568550508503217

>  <r_epik_Ionization_Penalty_Charging>  (1) 
0

>  <r_epik_Ionization_Penalty_Neutral>  (1) 
0.011568550508503217

>  <r_epik_State_Penalty>  (1) 
0.011568550508496497

>  <r_glide_ring_energy>  (1) 
0.0013752515646527682

>  <r_i_docking_score>  (1) 
-5.6367009843813083

>  <r_i_glide_ecoul>  (1) 
-1.2954463434108474

>  <r_i_glide_eff_state_penalty>  (1) 
0.011568550508496497

>  <r_i_glide_einternal>  (1) 
0.13934552942182665

>  <r_i_glide_emodel>  (1) 
-29.066747676184182

>  <r_i_glide_emodel_strain>  (1) 
7.4909909599796265e-05

>  <r_i_glide_energy>  (1) 
-21.776069359317695

>  <r_i_glide_erotb>  (1) 
0

>  <r_i_glide_esite>  (1) 
0

>  <r_i_glide_evdw>  (1) 
-20.480623015906847

>  <r_i_glide_gscore>  (1) 
-5.6482695348898044

>  <r_i_glide_gscore_strain>  (1) 
0

>  <r_i_glide_hbond>  (1) 
0

>  <r_i_glide_ligand_efficiency>  (1) 
-0.43359238341394679

>  <r_i_glide_ligand_efficiency_ln>  (1) 
-1.5811447566803547

>  <r_i_glide_ligand_efficiency_sa>  (1) 
-1.0195208114527317

>  <r_i_glide_lipo>  (1) 
-1.5860962033412023

>  <r_i_glide_metal>  (1) 
-0

>  <r_i_glide_rewards>  (1) 
-2.8438252292416326

>  <r_lp_Energy>  (1) 
16.036466999999998

>  <s_epik_Chemistry_Notes>  (1) 
This compound has an ester and may undergo hydrolysis at high or low pH.

>  <s_epik_cmdline>  (1) 
J2VwaWtfcHl0aG9uJywgJy1waHQnLCAnMS4wJywgJy1waCcsICc3LjQnLCAnLXRuJywgJzgnLCAnLW1hJywgJzUwMCcsICctaW1hZScsICc8aW5maWxlLm1hZT4nLCAnLW9tYWUnLCAnPG91dGZpbGUubWFlPic=

>  <s_epik_input>  (1) 
TzFbQ0gyXVtDSDJdT0MoPU8pYyhjMTIpYyhbT0hdKVtjSF1bY0hdW2NIXTI=

>  <s_glide_docking_method>  (1) 
confgen

>  <s_i_glide_gridfile>  (1) 
gpcr_drd2_6luq_protein_autoprepared_prepared

>  <s_lp_Force_Field>  (1) 
S-OPLS

>  <s_lp_Variant>  (1) 
Pocket2Mol_87_num_sample_100-1

>  <s_m_source_file>  (1) 
generated__ligand_Pocket2Mol_2026-05-06_prepared.sdf

>  <GenAI_Model>  (1) 
Pocket2Mol

>  <Protein>  (1) 
generic_title2

$$$$
Pocket2Mol_39_num_sample_100
     RDKit          3D

  0  0  0  0  0  0  0  0  0  0999 V3000
M  V30 BEGIN CTAB
M  V30 COUNTS 14 15 0 0 1
M  V30 BEGIN ATOM
M  V30 1 C 9.824713 7.803616 -7.398031 0
M  V30 2 O 10.402433 8.969256 -6.932952 0
M  V30 3 C 11.052382 8.656640 -5.766881 0
M  V30 4 C 10.895556 7.295289 -5.491137 0
M  V30 5 C 11.515816 6.803722 -4.294738 0
M  V30 6 C 11.764236 9.512591 -4.947224 0
M  V30 7 C 10.103152 6.747608 -6.550237 0
M  V30 8 N 12.234201 7.659122 -3.491667 0
M  V30 9 C 12.344417 8.969983 -3.806532 0
M  V30 10 H 9.259762 7.887206 -8.318187 0
M  V30 11 H 11.445258 5.769374 -3.997310 0
M  V30 12 H 11.863226 10.560242 -5.184979 0
M  V30 13 H 9.785829 5.722883 -6.653710 0
M  V30 14 H 12.912679 9.588330 -3.126285 0
M  V30 END ATOM
M  V30 BEGIN BOND
M  V30 1 1 2 1
M  V30 2 1 3 2
M  V30 3 2 4 3
M  V30 4 1 5 4
M  V30 5 1 6 3
M  V30 6 2 7 1
M  V30 7 1 7 4
M  V30 8 2 8 5
M  V30 9 2 9 6
M  V30 10 1 9 8
M  V30 11 1 10 1
M  V30 12 1 11 5
M  V30 13 1 12 6
M  V30 14 1 13 7
M  V30 15 1 14 9
M  V30 END BOND
M  V30 END CTAB
M  END
>  <i_epik_Tot_Q>  (1) 
0

>  <i_epik_Tot_abs_Q>  (1) 
0

>  <i_i_glide_confnum>  (1) 
1

>  <i_i_glide_lignum>  (1) 
44

>  <i_i_glide_posenum>  (1) 
36

>  <i_i_glide_rotatable_bonds>  (1) 
0

>  <i_lp_mmshare_version>  (1) 
72125

>  <i_m_source_file_index>  (1) 
40

>  <i_f3d_flags>  (1) 
0

>  <num_sample>  (1) 
100

>  <b_lp_Chiralities_Consistent>  (1) 
1

>  <r_epik_Charging_Adjusted_Penalty>  (1) 
0

>  <r_epik_Ionization_Penalty>  (1) 
0.00075511756769225586

>  <r_epik_Ionization_Penalty_Charging>  (1) 
0

>  <r_epik_Ionization_Penalty_Neutral>  (1) 
0.00075511756769225586

>  <r_epik_State_Penalty>  (1) 
-0

>  <r_glide_ring_energy>  (1) 
0

>  <r_i_docking_score>  (1) 
-5.6322507545838096

>  <r_i_glide_ecoul>  (1) 
-1.5577834518982361

>  <r_i_glide_eff_state_penalty>  (1) 
-0

>  <r_i_glide_einternal>  (1) 
0

>  <r_i_glide_emodel>  (1) 
-28.232388662523885

>  <r_i_glide_emodel_strain>  (1) 
0

>  <r_i_glide_energy>  (1) 
-20.826221884877121

>  <r_i_glide_erotb>  (1) 
0

>  <r_i_glide_esite>  (1) 
0

>  <r_i_glide_evdw>  (1) 
-19.268438432978886

>  <r_i_glide_gscore>  (1) 
-5.6322507545838096

>  <r_i_glide_gscore_strain>  (1) 
0

>  <r_i_glide_hbond>  (1) 
0

>  <r_i_glide_ligand_efficiency>  (1) 
-0.62580563939820111

>  <r_i_glide_ligand_efficiency_ln>  (1) 
-1.7616062363927973

>  <r_i_glide_ligand_efficiency_sa>  (1) 
-1.3017281868868515

>  <r_i_glide_lipo>  (1) 
-1.6724992518610677

>  <r_i_glide_metal>  (1) 
-0

>  <r_i_glide_rewards>  (1) 
-2.7626620632890613

>  <r_lp_Energy>  (1) 
12.667646999999999

>  <r_lp_tautomer_probability>  (1) 
1

>  <s_epik_cmdline>  (1) 
J2VwaWtfcHl0aG9uJywgJy1waHQnLCAnMS4wJywgJy1waCcsICc3LjQnLCAnLXRuJywgJzgnLCAnLW1hJywgJzUwMCcsICctaW1hZScsICc8aW5maWxlLm1hZT4nLCAnLW9tYWUnLCAnPG91dGZpbGUubWFlPic=

>  <s_epik_input>  (1) 
bzFbY0hdW2NIXWMoYzEyKVtjSF1uW2NIXVtjSF0y

>  <s_glide_docking_method>  (1) 
confgen

>  <s_i_glide_gridfile>  (1) 
gpcr_drd2_6luq_protein_autoprepared_prepared

>  <s_lp_Force_Field>  (1) 
S-OPLS

>  <s_lp_Variant>  (1) 
Pocket2Mol_39_num_sample_100-1

>  <s_m_source_file>  (1) 
generated__ligand_Pocket2Mol_2026-05-06_prepared.sdf

>  <GenAI_Model>  (1) 
Pocket2Mol

>  <Protein>  (1) 
generic_title2

$$$$
Pocket2Mol_68_num_sample_100
     RDKit          3D

  0  0  0  0  0  0  0  0  0  0999 V3000
M  V30 BEGIN CTAB
M  V30 COUNTS 19 20 0 0 1
M  V30 BEGIN ATOM
M  V30 1 C 11.406560 8.734152 -5.078264 0
M  V30 2 O 10.299899 8.233060 -5.816744 0
M  V30 3 C 10.528128 7.951190 -7.143401 0
M  V30 4 C 12.157010 9.769981 -5.911505 0
M  V30 5 O 12.635767 9.145909 -7.091408 0
M  V30 6 C 11.703767 8.416310 -7.788729 0
M  V30 7 C 9.584908 7.200834 -7.866927 0
M  V30 8 C 9.806336 6.910992 -9.226570 0
M  V30 9 C 11.915874 8.124682 -9.153692 0
M  V30 10 O 13.038285 8.569035 -9.785840 0
M  V30 11 C 10.965969 7.374060 -9.868595 0
M  V30 12 H 12.047241 7.913080 -4.758527 0
M  V30 13 H 11.035093 9.208394 -4.171169 0
M  V30 14 H 13.003025 10.169301 -5.354172 0
M  V30 15 H 11.509974 10.609187 -6.168102 0
M  V30 16 H 8.684909 6.848079 -7.379951 0
M  V30 17 H 9.076769 6.337369 -9.779404 0
M  V30 18 H 13.513247 9.252163 -9.328265 0
M  V30 19 H 11.127879 7.152325 -10.913325 0
M  V30 END ATOM
M  V30 BEGIN BOND
M  V30 1 1 2 1
M  V30 2 1 3 2
M  V30 3 1 4 1
M  V30 4 1 5 4
M  V30 5 1 6 3
M  V30 6 1 6 5
M  V30 7 2 7 3
M  V30 8 1 8 7
M  V30 9 2 9 6
M  V30 10 1 10 9
M  V30 11 2 11 8
M  V30 12 1 11 9
M  V30 13 1 12 1
M  V30 14 1 13 1
M  V30 15 1 14 4
M  V30 16 1 15 4
M  V30 17 1 16 7
M  V30 18 1 17 8
M  V30 19 1 18 10
M  V30 20 1 19 11
M  V30 END BOND
M  V30 END CTAB
M  END
>  <i_epik_Tot_Q>  (1) 
0

>  <i_epik_Tot_abs_Q>  (1) 
0

>  <i_i_glide_confnum>  (1) 
2

>  <i_i_glide_lignum>  (1) 
75

>  <i_i_glide_posenum>  (1) 
276

>  <i_i_glide_rotatable_bonds>  (1) 
1

>  <i_lp_mmshare_version>  (1) 
72125

>  <i_m_source_file_index>  (1) 
69

>  <i_f3d_flags>  (1) 
0

>  <num_sample>  (1) 
100

>  <b_lp_Chiralities_Consistent>  (1) 
1

>  <r_epik_Charging_Adjusted_Penalty>  (1) 
0.0030607566555237334

>  <r_epik_Ionization_Penalty>  (1) 
0.0030607566555237659

>  <r_epik_Ionization_Penalty_Charging>  (1) 
0

>  <r_epik_Ionization_Penalty_Neutral>  (1) 
0.0030607566555237659

>  <r_epik_State_Penalty>  (1) 
0.0030607566555237334

>  <r_glide_ring_energy>  (1) 
0.0030878583902879796

>  <r_i_docking_score>  (1) 
-5.6223291601752274

>  <r_i_glide_ecoul>  (1) 
-3.3465831345966355

>  <r_i_glide_eff_state_penalty>  (1) 
0.0030607566555237334

>  <r_i_glide_einternal>  (1) 
0.88049963800083508

>  <r_i_glide_emodel>  (1) 
-28.614107728003958

>  <r_i_glide_emodel_strain>  (1) 
0.00057254070569356941

>  <r_i_glide_energy>  (1) 
-21.560237349654223

>  <r_i_glide_erotb>  (1) 
0

>  <r_i_glide_esite>  (1) 
0

>  <r_i_glide_evdw>  (1) 
-18.213654215057588

>  <r_i_glide_gscore>  (1) 
-5.6253899168307511

>  <r_i_glide_gscore_strain>  (1) 
0

>  <r_i_glide_hbond>  (1) 
-0.23129616058557695

>  <r_i_glide_ligand_efficiency>  (1) 
-0.51112083274320252

>  <r_i_glide_ligand_efficiency_ln>  (1) 
-1.6546505141533989

>  <r_i_glide_ligand_efficiency_sa>  (1) 
-1.1367225558960916

>  <r_i_glide_lipo>  (1) 
-1.1828124272938583

>  <r_i_glide_metal>  (1) 
-0

>  <r_i_glide_rewards>  (1) 
-2.7986111480089413

>  <r_lp_Energy>  (1) 
16.942557999999998

>  <r_lp_tautomer_probability>  (1) 
0.99999999996300004

>  <s_epik_cmdline>  (1) 
J2VwaWtfcHl0aG9uJywgJy1waHQnLCAnMS4wJywgJy1waCcsICc3LjQnLCAnLXRuJywgJzgnLCAnLW1hJywgJzUwMCcsICctaW1hZScsICc8aW5maWxlLm1hZT4nLCAnLW9tYWUnLCAnPG91dGZpbGUubWFlPic=

>  <s_epik_input>  (1) 
TzFbQ0gyXVtDSDJdT2MoYzEyKWMoW09IXSlbY0hdW2NIXVtjSF0y

>  <s_glide_docking_method>  (1) 
confgen

>  <s_i_glide_gridfile>  (1) 
gpcr_drd2_6luq_protein_autoprepared_prepared

>  <s_lp_Force_Field>  (1) 
S-OPLS

>  <s_lp_Variant>  (1) 
Pocket2Mol_68_num_sample_100-1

>  <s_m_source_file>  (1) 
generated__ligand_Pocket2Mol_2026-05-06_prepared.sdf

>  <GenAI_Model>  (1) 
Pocket2Mol

>  <Protein>  (1) 
generic_title2

$$$$
Pocket2Mol_39_num_sample_100
     RDKit          3D

  0  0  0  0  0  0  0  0  0  0999 V3000
M  V30 BEGIN CTAB
M  V30 COUNTS 14 15 0 0 1
M  V30 BEGIN ATOM
M  V30 1 C 12.243175 7.439465 -2.562147 0
M  V30 2 O 11.687272 6.569301 -3.482028 0
M  V30 3 C 11.434839 7.296962 -4.618876 0
M  V30 4 C 11.834839 8.626360 -4.424498 0
M  V30 5 C 11.640984 9.523164 -5.523382 0
M  V30 6 C 10.875701 6.845902 -5.798613 0
M  V30 7 C 12.354857 8.712986 -3.093388 0
M  V30 8 N 11.091304 9.061902 -6.691667 0
M  V30 9 C 10.715511 7.769699 -6.821469 0
M  V30 10 H 12.499042 7.012284 -1.603899 0
M  V30 11 H 11.915350 10.566460 -5.468665 0
M  V30 12 H 10.572591 5.817060 -5.918569 0
M  V30 13 H 12.750427 9.595755 -2.611465 0
M  V30 14 H 10.281417 7.480351 -7.767698 0
M  V30 END ATOM
M  V30 BEGIN BOND
M  V30 1 1 2 1
M  V30 2 1 3 2
M  V30 3 2 4 3
M  V30 4 1 5 4
M  V30 5 1 6 3
M  V30 6 2 7 1
M  V30 7 1 7 4
M  V30 8 2 8 5
M  V30 9 2 9 6
M  V30 10 1 9 8
M  V30 11 1 10 1
M  V30 12 1 11 5
M  V30 13 1 12 6
M  V30 14 1 13 7
M  V30 15 1 14 9
M  V30 END BOND
M  V30 END CTAB
M  END
>  <i_epik_Tot_Q>  (1) 
0

>  <i_epik_Tot_abs_Q>  (1) 
0

>  <i_i_glide_confnum>  (1) 
1

>  <i_i_glide_lignum>  (1) 
44

>  <i_i_glide_posenum>  (1) 
90

>  <i_i_glide_rotatable_bonds>  (1) 
0

>  <i_lp_mmshare_version>  (1) 
72125

>  <i_m_source_file_index>  (1) 
40

>  <i_f3d_flags>  (1) 
0

>  <num_sample>  (1) 
100

>  <b_lp_Chiralities_Consistent>  (1) 
1

>  <r_epik_Charging_Adjusted_Penalty>  (1) 
0

>  <r_epik_Ionization_Penalty>  (1) 
0.00075511756769225586

>  <r_epik_Ionization_Penalty_Charging>  (1) 
0

>  <r_epik_Ionization_Penalty_Neutral>  (1) 
0.00075511756769225586

>  <r_epik_State_Penalty>  (1) 
-0

>  <r_glide_ring_energy>  (1) 
0

>  <r_i_docking_score>  (1) 
-5.6194661989582704

>  <r_i_glide_ecoul>  (1) 
-0.5819256207137623

>  <r_i_glide_eff_state_penalty>  (1) 
-0

>  <r_i_glide_einternal>  (1) 
0

>  <r_i_glide_emodel>  (1) 
-27.734555882272357

>  <r_i_glide_emodel_strain>  (1) 
0

>  <r_i_glide_energy>  (1) 
-20.345200243771661

>  <r_i_glide_erotb>  (1) 
0

>  <r_i_glide_esite>  (1) 
0

>  <r_i_glide_evdw>  (1) 
-19.7632746230579

>  <r_i_glide_gscore>  (1) 
-5.6194661989582704

>  <r_i_glide_gscore_strain>  (1) 
0

>  <r_i_glide_hbond>  (1) 
0

>  <r_i_glide_ligand_efficiency>  (1) 
-0.6243851332175856

>  <r_i_glide_ligand_efficiency_ln>  (1) 
-1.7576075946595378

>  <r_i_glide_ligand_efficiency_sa>  (1) 
-1.2987734149600081

>  <r_i_glide_lipo>  (1) 
-1.8433669620832027

>  <r_i_glide_metal>  (1) 
-0

>  <r_i_glide_rewards>  (1) 
-2.7006466626151089

>  <r_lp_Energy>  (1) 
12.667646999999999

>  <r_lp_tautomer_probability>  (1) 
1

>  <s_epik_cmdline>  (1) 
J2VwaWtfcHl0aG9uJywgJy1waHQnLCAnMS4wJywgJy1waCcsICc3LjQnLCAnLXRuJywgJzgnLCAnLW1hJywgJzUwMCcsICctaW1hZScsICc8aW5maWxlLm1hZT4nLCAnLW9tYWUnLCAnPG91dGZpbGUubWFlPic=

>  <s_epik_input>  (1) 
bzFbY0hdW2NIXWMoYzEyKVtjSF1uW2NIXVtjSF0y

>  <s_glide_docking_method>  (1) 
confgen

>  <s_i_glide_gridfile>  (1) 
gpcr_drd2_6luq_protein_autoprepared_prepared

>  <s_lp_Force_Field>  (1) 
S-OPLS

>  <s_lp_Variant>  (1) 
Pocket2Mol_39_num_sample_100-1

>  <s_m_source_file>  (1) 
generated__ligand_Pocket2Mol_2026-05-06_prepared.sdf

>  <GenAI_Model>  (1) 
Pocket2Mol

>  <Protein>  (1) 
generic_title2

$$$$
Pocket2Mol_75_num_sample_100
     RDKit          3D

  0  0  0  0  0  0  0  0  0  0999 V3000
M  V30 BEGIN CTAB
M  V30 COUNTS 17 18 0 0 1
M  V30 BEGIN ATOM
M  V30 1 C 12.156401 9.364611 -4.585645 0
M  V30 2 O 11.434839 8.196458 -4.475376 0
M  V30 3 C 11.030366 7.844730 -5.739437 0
M  V30 4 C 11.506691 8.787620 -6.658739 0
M  V30 5 C 11.185947 8.569301 -8.026295 0
M  V30 6 C 10.407679 7.439377 -8.419326 0
M  V30 7 C 12.232816 9.769301 -5.904256 0
M  V30 8 N 10.083882 7.220449 -9.845597 0 CHG=1
M  V30 9 C 9.947717 6.524225 -7.440140 0
M  V30 10 O 10.492003 8.047689 -10.653078 0 CHG=-1
M  V30 11 C 10.266288 6.733668 -6.091378 0
M  V30 12 O 9.434839 6.220047 -10.134597 0
M  V30 13 H 12.543074 9.769301 -3.661485 0
M  V30 14 H 11.534787 9.267149 -8.773254 0
M  V30 15 H 12.732860 10.640694 -6.291667 0
M  V30 16 H 9.354826 5.667903 -7.729227 0
M  V30 17 H 9.924164 6.045683 -5.334122 0
M  V30 END ATOM
M  V30 BEGIN BOND
M  V30 1 1 2 1
M  V30 2 1 3 2
M  V30 3 1 4 3
M  V30 4 2 5 4
M  V30 5 1 6 5
M  V30 6 2 7 1
M  V30 7 1 7 4
M  V30 8 1 8 6
M  V30 9 2 9 6
M  V30 10 1 10 8
M  V30 11 2 11 3
M  V30 12 1 11 9
M  V30 13 2 12 8
M  V30 14 1 13 1
M  V30 15 1 14 5
M  V30 16 1 15 7
M  V30 17 1 16 9
M  V30 18 1 17 11
M  V30 END BOND
M  V30 END CTAB
M  END
>  <i_epik_Tot_Q>  (1) 
0

>  <i_epik_Tot_abs_Q>  (1) 
2

>  <i_i_glide_confnum>  (1) 
1

>  <i_i_glide_lignum>  (1) 
82

>  <i_i_glide_posenum>  (1) 
281

>  <i_i_glide_rotatable_bonds>  (1) 
1

>  <i_lp_mmshare_version>  (1) 
72125

>  <i_m_source_file_index>  (1) 
76

>  <i_f3d_flags>  (1) 
0

>  <num_sample>  (1) 
100

>  <b_lp_Chiralities_Consistent>  (1) 
1

>  <r_epik_Charging_Adjusted_Penalty>  (1) 
0

>  <r_epik_Ionization_Penalty>  (1) 
0

>  <r_epik_Ionization_Penalty_Charging>  (1) 
0

>  <r_epik_Ionization_Penalty_Neutral>  (1) 
0

>  <r_epik_State_Penalty>  (1) 
-0

>  <r_glide_ring_energy>  (1) 
0

>  <r_i_docking_score>  (1) 
-5.6057366657004648

>  <r_i_glide_ecoul>  (1) 
-0.46349080711027724

>  <r_i_glide_eff_state_penalty>  (1) 
-0

>  <r_i_glide_einternal>  (1) 
0.012322268550624127

>  <r_i_glide_emodel>  (1) 
-31.596280653823488

>  <r_i_glide_emodel_strain>  (1) 
1.5920633700261533e-09

>  <r_i_glide_energy>  (1) 
-22.411237305371525

>  <r_i_glide_erotb>  (1) 
0

>  <r_i_glide_esite>  (1) 
-0.17436077348826254

>  <r_i_glide_evdw>  (1) 
-21.94774649826125

>  <r_i_glide_gscore>  (1) 
-5.6057366657004648

>  <r_i_glide_gscore_strain>  (1) 
0

>  <r_i_glide_hbond>  (1) 
0

>  <r_i_glide_ligand_efficiency>  (1) 
-0.46714472214170538

>  <r_i_glide_ligand_efficiency_ln>  (1) 
-1.6085758469431262

>  <r_i_glide_ligand_efficiency_sa>  (1) 
-1.069494433538458

>  <r_i_glide_lipo>  (1) 
-1.6227982795659317

>  <r_i_glide_metal>  (1) 
-0

>  <r_i_glide_rewards>  (1) 
-2.6416666666666666

>  <r_lp_Energy>  (1) 
17.097996999999999

>  <r_lp_tautomer_probability>  (1) 
1

>  <s_epik_cmdline>  (1) 
J2VwaWtfcHl0aG9uJywgJy1waHQnLCAnMS4wJywgJy1waCcsICc3LjQnLCAnLXRuJywgJzgnLCAnLW1hJywgJzUwMCcsICctaW1hZScsICc8aW5maWxlLm1hZT4nLCAnLW9tYWUnLCAnPG91dGZpbGUubWFlPic=

>  <s_epik_input>  (1) 
bzFbY0hdW2NIXWMoYzEyKVtjSF1jKFtOK10oW08tXSk9TylbY0hdW2NIXTI=

>  <s_glide_docking_method>  (1) 
confgen

>  <s_i_glide_gridfile>  (1) 
gpcr_drd2_6luq_protein_autoprepared_prepared

>  <s_lp_Force_Field>  (1) 
S-OPLS

>  <s_lp_Variant>  (1) 
Pocket2Mol_75_num_sample_100-1

>  <s_m_source_file>  (1) 
generated__ligand_Pocket2Mol_2026-05-06_prepared.sdf

>  <GenAI_Model>  (1) 
Pocket2Mol

>  <Protein>  (1) 
generic_title2

$$$$
Pocket2Mol_56_num_sample_100
     RDKit          3D

  0  0  0  0  0  0  0  0  0  0999 V3000
M  V30 BEGIN CTAB
M  V30 COUNTS 19 20 0 0 1
M  V30 BEGIN ATOM
M  V30 1 C 10.564106 8.398163 -7.769033 0
M  V30 2 O 10.920192 9.257623 -6.691667 0
M  V30 3 C 11.329839 8.636159 -5.532492 0
M  V30 4 C 11.034834 7.267152 -5.300196 0
M  V30 5 C 11.474548 6.648727 -4.112351 0
M  V30 6 C 12.043640 9.369307 -4.570000 0
M  V30 7 C 12.482060 8.748226 -3.383923 0
M  V30 8 N 10.306724 6.527511 -6.240350 0
M  V30 9 C 9.626027 7.316060 -7.249722 0
M  V30 10 C 12.202777 7.387443 -3.156749 0
M  V30 11 H 10.068808 8.969301 -8.552518 0
M  V30 12 H 11.462181 7.962254 -8.208596 0
M  V30 13 H 11.254032 5.610485 -3.932950 0
M  V30 14 H 12.256024 10.410275 -4.744950 0
M  V30 15 H 13.033240 9.317384 -2.648577 0
M  V30 16 H 9.918717 5.633232 -5.970903 0
M  V30 17 H 8.723848 7.759880 -6.825884 0
M  V30 18 H 9.308832 6.663606 -8.063672 0
M  V30 19 H 12.538560 6.911037 -2.247487 0
M  V30 END ATOM
M  V30 BEGIN BOND
M  V30 1 1 2 1
M  V30 2 1 3 2
M  V30 3 1 4 3
M  V30 4 2 5 4
M  V30 5 2 6 3
M  V30 6 1 7 6
M  V30 7 1 8 4
M  V30 8 1 9 1
M  V30 9 1 9 8
M  V30 10 1 10 5
M  V30 11 2 10 7
M  V30 12 1 11 1
M  V30 13 1 12 1
M  V30 14 1 13 5
M  V30 15 1 14 6
M  V30 16 1 15 7
M  V30 17 1 16 8
M  V30 18 1 17 9
M  V30 19 1 18 9
M  V30 20 1 19 10
M  V30 END BOND
M  V30 END CTAB
M  END
>  <i_epik_Tot_Q>  (1) 
0

>  <i_epik_Tot_abs_Q>  (1) 
0

>  <i_i_glide_confnum>  (1) 
1

>  <i_i_glide_lignum>  (1) 
63

>  <i_i_glide_posenum>  (1) 
194

>  <i_i_glide_rotatable_bonds>  (1) 
0

>  <i_lp_mmshare_version>  (1) 
72125

>  <i_m_source_file_index>  (1) 
57

>  <i_f3d_flags>  (1) 
0

>  <num_sample>  (1) 
100

>  <b_lp_Chiralities_Consistent>  (1) 
1

>  <r_epik_Charging_Adjusted_Penalty>  (1) 
0

>  <r_epik_Ionization_Penalty>  (1) 
0.00026422915675488977

>  <r_epik_Ionization_Penalty_Charging>  (1) 
0

>  <r_epik_Ionization_Penalty_Neutral>  (1) 
0.00026422915675488977

>  <r_epik_State_Penalty>  (1) 
-0

>  <r_glide_ring_energy>  (1) 
0

>  <r_i_docking_score>  (1) 
-5.6011531704409103

>  <r_i_glide_ecoul>  (1) 
-1.7857794957053803

>  <r_i_glide_eff_state_penalty>  (1) 
-0

>  <r_i_glide_einternal>  (1) 
0

>  <r_i_glide_emodel>  (1) 
-28.893209273053518

>  <r_i_glide_emodel_strain>  (1) 
0

>  <r_i_glide_energy>  (1) 
-21.363456936786637

>  <r_i_glide_erotb>  (1) 
0

>  <r_i_glide_esite>  (1) 
0

>  <r_i_glide_evdw>  (1) 
-19.577677441081256

>  <r_i_glide_gscore>  (1) 
-5.6011531704409103

>  <r_i_glide_gscore_strain>  (1) 
0

>  <r_i_glide_hbond>  (1) 
0

>  <r_i_glide_ligand_efficiency>  (1) 
-0.56011531704409101

>  <r_i_glide_ligand_efficiency_ln>  (1) 
-1.6959905688192387

>  <r_i_glide_ligand_efficiency_sa>  (1) 
-1.2067318694579967

>  <r_i_glide_lipo>  (1) 
-1.8414128749287992

>  <r_i_glide_metal>  (1) 
-0

>  <r_i_glide_rewards>  (1) 
-2.5129894991022401

>  <r_lp_Energy>  (1) 
15.245389999999999

>  <r_lp_tautomer_probability>  (1) 
1

>  <s_epik_cmdline>  (1) 
J2VwaWtfcHl0aG9uJywgJy1waHQnLCAnMS4wJywgJy1waCcsICc3LjQnLCAnLXRuJywgJzgnLCAnLW1hJywgJzUwMCcsICctaW1hZScsICc8aW5maWxlLm1hZT4nLCAnLW9tYWUnLCAnPG91dGZpbGUubWFlPic=

>  <s_epik_input>  (1) 
TzFbQ0gyXVtDSDJdW05IXWMoYzEyKVtjSF1bY0hdW2NIXVtjSF0y

>  <s_glide_docking_method>  (1) 
confgen

>  <s_i_glide_gridfile>  (1) 
gpcr_drd2_6luq_protein_autoprepared_prepared

>  <s_lp_Force_Field>  (1) 
S-OPLS

>  <s_lp_Variant>  (1) 
Pocket2Mol_56_num_sample_100-1

>  <s_m_source_file>  (1) 
generated__ligand_Pocket2Mol_2026-05-06_prepared.sdf

>  <GenAI_Model>  (1) 
Pocket2Mol

>  <Protein>  (1) 
generic_title2

$$$$
Pocket2Mol_39_num_sample_100
     RDKit          3D

  0  0  0  0  0  0  0  0  0  0999 V3000
M  V30 BEGIN CTAB
M  V30 COUNTS 14 15 0 0 1
M  V30 BEGIN ATOM
M  V30 1 C 12.539689 8.366892 -2.008047 0
M  V30 2 O 12.262870 9.369301 -2.917314 0
M  V30 3 C 11.834839 8.760212 -4.067579 0
M  V30 4 C 11.834842 7.371406 -3.891669 0
M  V30 5 C 11.405980 6.581900 -5.006067 0
M  V30 6 C 11.441454 9.369301 -5.245340 0
M  V30 7 C 12.289431 7.121706 -2.558165 0
M  V30 8 N 11.024680 7.194244 -6.173611 0
M  V30 9 C 11.036268 8.541720 -6.285397 0
M  V30 10 H 12.894436 8.693102 -1.041459 0
M  V30 11 H 11.371760 5.507050 -4.963553 0
M  V30 12 H 11.446299 10.443283 -5.351053 0
M  V30 13 H 12.408782 6.155408 -2.088111 0
M  V30 14 H 10.715405 8.955454 -7.230429 0
M  V30 END ATOM
M  V30 BEGIN BOND
M  V30 1 1 2 1
M  V30 2 1 3 2
M  V30 3 2 4 3
M  V30 4 1 5 4
M  V30 5 1 6 3
M  V30 6 2 7 1
M  V30 7 1 7 4
M  V30 8 2 8 5
M  V30 9 2 9 6
M  V30 10 1 9 8
M  V30 11 1 10 1
M  V30 12 1 11 5
M  V30 13 1 12 6
M  V30 14 1 13 7
M  V30 15 1 14 9
M  V30 END BOND
M  V30 END CTAB
M  END
>  <i_epik_Tot_Q>  (1) 
0

>  <i_epik_Tot_abs_Q>  (1) 
0

>  <i_i_glide_confnum>  (1) 
1

>  <i_i_glide_lignum>  (1) 
44

>  <i_i_glide_posenum>  (1) 
276

>  <i_i_glide_rotatable_bonds>  (1) 
0

>  <i_lp_mmshare_version>  (1) 
72125

>  <i_m_source_file_index>  (1) 
40

>  <i_f3d_flags>  (1) 
0

>  <num_sample>  (1) 
100

>  <b_lp_Chiralities_Consistent>  (1) 
1

>  <r_epik_Charging_Adjusted_Penalty>  (1) 
0

>  <r_epik_Ionization_Penalty>  (1) 
0.00075511756769225586

>  <r_epik_Ionization_Penalty_Charging>  (1) 
0

>  <r_epik_Ionization_Penalty_Neutral>  (1) 
0.00075511756769225586

>  <r_epik_State_Penalty>  (1) 
-0

>  <r_glide_ring_energy>  (1) 
0

>  <r_i_docking_score>  (1) 
-5.5820603913524698

>  <r_i_glide_ecoul>  (1) 
-0.26878244341290686

>  <r_i_glide_eff_state_penalty>  (1) 
-0

>  <r_i_glide_einternal>  (1) 
0

>  <r_i_glide_emodel>  (1) 
-27.675085381983749

>  <r_i_glide_emodel_strain>  (1) 
0

>  <r_i_glide_energy>  (1) 
-20.334916766868979

>  <r_i_glide_erotb>  (1) 
0

>  <r_i_glide_esite>  (1) 
0

>  <r_i_glide_evdw>  (1) 
-20.066134323456073

>  <r_i_glide_gscore>  (1) 
-5.5820603913524698

>  <r_i_glide_gscore_strain>  (1) 
0

>  <r_i_glide_hbond>  (1) 
0

>  <r_i_glide_ligand_efficiency>  (1) 
-0.62022893237249666

>  <r_i_glide_ligand_efficiency_ln>  (1) 
-1.7459081326101857

>  <r_i_glide_ligand_efficiency_sa>  (1) 
-1.2901281688167838

>  <r_i_glide_lipo>  (1) 
-1.9717696420010637

>  <r_i_glide_metal>  (1) 
-0

>  <r_i_glide_rewards>  (1) 
-2.5666666666666664

>  <r_lp_Energy>  (1) 
12.667646999999999

>  <r_lp_tautomer_probability>  (1) 
1

>  <s_epik_cmdline>  (1) 
J2VwaWtfcHl0aG9uJywgJy1waHQnLCAnMS4wJywgJy1waCcsICc3LjQnLCAnLXRuJywgJzgnLCAnLW1hJywgJzUwMCcsICctaW1hZScsICc8aW5maWxlLm1hZT4nLCAnLW9tYWUnLCAnPG91dGZpbGUubWFlPic=

>  <s_epik_input>  (1) 
bzFbY0hdW2NIXWMoYzEyKVtjSF1uW2NIXVtjSF0y

>  <s_glide_docking_method>  (1) 
confgen

>  <s_i_glide_gridfile>  (1) 
gpcr_drd2_6luq_protein_autoprepared_prepared

>  <s_lp_Force_Field>  (1) 
S-OPLS

>  <s_lp_Variant>  (1) 
Pocket2Mol_39_num_sample_100-1

>  <s_m_source_file>  (1) 
generated__ligand_Pocket2Mol_2026-05-06_prepared.sdf

>  <GenAI_Model>  (1) 
Pocket2Mol

>  <Protein>  (1) 
generic_title2

$$$$
Pocket2Mol_87_num_sample_100
     RDKit          3D

  0  0  0  0  0  0  0  0  0  0999 V3000
M  V30 BEGIN CTAB
M  V30 COUNTS 21 22 0 0 1
M  V30 BEGIN ATOM
M  V30 1 C 9.725260 6.578639 -8.884507 0
M  V30 2 O 9.834870 7.947271 -8.631064 0
M  V30 3 C 9.376983 5.956456 -7.564111 0
M  V30 4 O 10.620997 5.865991 -6.928732 0
M  V30 5 C 10.923040 8.559009 -8.142261 0
M  V30 6 C 11.034837 6.912024 -6.146525 0
M  V30 7 C 11.350968 6.659097 -4.793759 0
M  V30 8 O 11.574743 9.369301 -8.795481 0
M  V30 9 C 11.210127 8.230165 -6.681042 0
M  V30 10 C 11.696929 9.261755 -5.823118 0
M  V30 11 C 11.834839 7.687090 -3.966611 0
M  V30 12 O 11.859351 10.532068 -6.291667 0
M  V30 13 C 12.001139 8.982638 -4.476829 0
M  V30 14 H 8.915264 6.426417 -9.597825 0
M  V30 15 H 10.634854 6.169272 -9.319894 0
M  V30 16 H 8.635188 6.522482 -6.995788 0
M  V30 17 H 8.987148 4.950337 -7.714121 0
M  V30 18 H 11.229661 5.665972 -4.393380 0
M  V30 19 H 12.075167 7.479581 -2.934256 0
M  V30 20 H 11.734275 10.585127 -7.229663 0
M  V30 21 H 12.367513 9.769301 -3.833864 0
M  V30 END ATOM
M  V30 BEGIN BOND
M  V30 1 1 2 1
M  V30 2 1 3 1
M  V30 3 1 4 3
M  V30 4 1 5 2
M  V30 5 1 6 4
M  V30 6 2 7 6
M  V30 7 2 8 5
M  V30 8 1 9 5
M  V30 9 1 9 6
M  V30 10 2 10 9
M  V30 11 1 11 7
M  V30 12 1 12 10
M  V30 13 1 13 10
M  V30 14 2 13 11
M  V30 15 1 14 1
M  V30 16 1 15 1
M  V30 17 1 16 3
M  V30 18 1 17 3
M  V30 19 1 18 7
M  V30 20 1 19 11
M  V30 21 1 20 12
M  V30 22 1 21 13
M  V30 END BOND
M  V30 END CTAB
M  END
>  <i_epik_Tot_Q>  (1) 
0

>  <i_epik_Tot_abs_Q>  (1) 
0

>  <i_i_glide_confnum>  (1) 
2

>  <i_i_glide_lignum>  (1) 
94

>  <i_i_glide_posenum>  (1) 
116

>  <i_i_glide_rotatable_bonds>  (1) 
1

>  <i_lp_mmshare_version>  (1) 
72125

>  <i_m_source_file_index>  (1) 
88

>  <i_f3d_flags>  (1) 
0

>  <num_sample>  (1) 
100

>  <b_lp_Chiralities_Consistent>  (1) 
1

>  <r_epik_Charging_Adjusted_Penalty>  (1) 
0.011568550508496497

>  <r_epik_Ionization_Penalty>  (1) 
0.011568550508503217

>  <r_epik_Ionization_Penalty_Charging>  (1) 
0

>  <r_epik_Ionization_Penalty_Neutral>  (1) 
0.011568550508503217

>  <r_epik_State_Penalty>  (1) 
0.011568550508496497

>  <r_glide_ring_energy>  (1) 
0.0013752515646527682

>  <r_i_docking_score>  (1) 
-5.5792891436042877

>  <r_i_glide_ecoul>  (1) 
-0.87391729776170446

>  <r_i_glide_eff_state_penalty>  (1) 
0.011568550508496497

>  <r_i_glide_einternal>  (1) 
0.0026909546491311609

>  <r_i_glide_emodel>  (1) 
-28.280649985020137

>  <r_i_glide_emodel_strain>  (1) 
0

>  <r_i_glide_energy>  (1) 
-20.996384527480622

>  <r_i_glide_erotb>  (1) 
0

>  <r_i_glide_esite>  (1) 
0

>  <r_i_glide_evdw>  (1) 
-20.122467229718918

>  <r_i_glide_gscore>  (1) 
-5.5908576941127839

>  <r_i_glide_gscore_strain>  (1) 
0

>  <r_i_glide_hbond>  (1) 
0

>  <r_i_glide_ligand_efficiency>  (1) 
-0.42917608796956058

>  <r_i_glide_ligand_efficiency_ln>  (1) 
-1.5650402247444786

>  <r_i_glide_ligand_efficiency_sa>  (1) 
-1.0091366227831233

>  <r_i_glide_lipo>  (1) 
-1.5997231725734422

>  <r_i_glide_metal>  (1) 
-0

>  <r_i_glide_rewards>  (1) 
-2.8539235653891399

>  <r_lp_Energy>  (1) 
16.036466999999998

>  <s_epik_Chemistry_Notes>  (1) 
This compound has an ester and may undergo hydrolysis at high or low pH.

>  <s_epik_cmdline>  (1) 
J2VwaWtfcHl0aG9uJywgJy1waHQnLCAnMS4wJywgJy1waCcsICc3LjQnLCAnLXRuJywgJzgnLCAnLW1hJywgJzUwMCcsICctaW1hZScsICc8aW5maWxlLm1hZT4nLCAnLW9tYWUnLCAnPG91dGZpbGUubWFlPic=

>  <s_epik_input>  (1) 
TzFbQ0gyXVtDSDJdT0MoPU8pYyhjMTIpYyhbT0hdKVtjSF1bY0hdW2NIXTI=

>  <s_glide_docking_method>  (1) 
confgen

>  <s_i_glide_gridfile>  (1) 
gpcr_drd2_6luq_protein_autoprepared_prepared

>  <s_lp_Force_Field>  (1) 
S-OPLS

>  <s_lp_Variant>  (1) 
Pocket2Mol_87_num_sample_100-1

>  <s_m_source_file>  (1) 
generated__ligand_Pocket2Mol_2026-05-06_prepared.sdf

>  <GenAI_Model>  (1) 
Pocket2Mol

>  <Protein>  (1) 
generic_title2

$$$$
Pocket2Mol_68_num_sample_100
     RDKit          3D

  0  0  0  0  0  0  0  0  0  0999 V3000
M  V30 BEGIN CTAB
M  V30 COUNTS 19 20 0 0 1
M  V30 BEGIN ATOM
M  V30 1 C 9.786865 6.630594 -8.104285 0
M  V30 2 O 10.433941 6.065164 -6.966678 0
M  V30 3 C 10.955765 6.987890 -6.089199 0
M  V30 4 C 10.664855 7.743693 -8.697139 0
M  V30 5 O 10.835319 8.782350 -7.735524 0
M  V30 6 C 11.148219 8.342815 -6.469587 0
M  V30 7 C 11.312449 6.569304 -4.792372 0
M  V30 8 C 11.834877 7.493455 -3.866732 0
M  V30 9 C 11.660457 9.264319 -5.535435 0
M  V30 10 O 11.834853 10.569320 -5.891880 0
M  V30 11 C 12.004371 8.841610 -4.236652 0
M  V30 12 H 8.808805 7.018917 -7.820200 0
M  V30 13 H 9.619115 5.846860 -8.843014 0
M  V30 14 H 10.197349 8.159714 -9.589588 0
M  V30 15 H 11.636906 7.351892 -8.996654 0
M  V30 16 H 11.177284 5.537694 -4.502698 0
M  V30 17 H 12.101761 7.168228 -2.872046 0
M  V30 18 H 11.572031 10.752357 -6.780196 0
M  V30 19 H 12.401659 9.551252 -3.526039 0
M  V30 END ATOM
M  V30 BEGIN BOND
M  V30 1 1 2 1
M  V30 2 1 3 2
M  V30 3 1 4 1
M  V30 4 1 5 4
M  V30 5 1 6 3
M  V30 6 1 6 5
M  V30 7 2 7 3
M  V30 8 1 8 7
M  V30 9 2 9 6
M  V30 10 1 10 9
M  V30 11 2 11 8
M  V30 12 1 11 9
M  V30 13 1 12 1
M  V30 14 1 13 1
M  V30 15 1 14 4
M  V30 16 1 15 4
M  V30 17 1 16 7
M  V30 18 1 17 8
M  V30 19 1 18 10
M  V30 20 1 19 11
M  V30 END BOND
M  V30 END CTAB
M  END
>  <i_epik_Tot_Q>  (1) 
0

>  <i_epik_Tot_abs_Q>  (1) 
0

>  <i_i_glide_confnum>  (1) 
2

>  <i_i_glide_lignum>  (1) 
75

>  <i_i_glide_posenum>  (1) 
243

>  <i_i_glide_rotatable_bonds>  (1) 
1

>  <i_lp_mmshare_version>  (1) 
72125

>  <i_m_source_file_index>  (1) 
69

>  <i_f3d_flags>  (1) 
0

>  <num_sample>  (1) 
100

>  <b_lp_Chiralities_Consistent>  (1) 
1

>  <r_epik_Charging_Adjusted_Penalty>  (1) 
0.0030607566555237334

>  <r_epik_Ionization_Penalty>  (1) 
0.0030607566555237659

>  <r_epik_Ionization_Penalty_Charging>  (1) 
0

>  <r_epik_Ionization_Penalty_Neutral>  (1) 
0.0030607566555237659

>  <r_epik_State_Penalty>  (1) 
0.0030607566555237334

>  <r_glide_ring_energy>  (1) 
0.0030878583902879796

>  <r_i_docking_score>  (1) 
-5.5772972697998293

>  <r_i_glide_ecoul>  (1) 
-0.852828919005717

>  <r_i_glide_eff_state_penalty>  (1) 
0.0030607566555237334

>  <r_i_glide_einternal>  (1) 
0.00021794789779407131

>  <r_i_glide_emodel>  (1) 
-27.658456916973009

>  <r_i_glide_emodel_strain>  (1) 
5.7229598837693629e-10

>  <r_i_glide_energy>  (1) 
-20.223869026927527

>  <r_i_glide_erotb>  (1) 
0

>  <r_i_glide_esite>  (1) 
0

>  <r_i_glide_evdw>  (1) 
-19.371040107921811

>  <r_i_glide_gscore>  (1) 
-5.5803580264553529

>  <r_i_glide_gscore_strain>  (1) 
0

>  <r_i_glide_hbond>  (1) 
0

>  <r_i_glide_ligand_efficiency>  (1) 
-0.50702702452725723

>  <r_i_glide_ligand_efficiency_ln>  (1) 
-1.6413976364864802

>  <r_i_glide_ligand_efficiency_sa>  (1) 
-1.1276180079292202

>  <r_i_glide_lipo>  (1) 
-1.6390561683710192

>  <r_i_glide_metal>  (1) 
-0

>  <r_i_glide_rewards>  (1) 
-2.8448255148373862

>  <r_lp_Energy>  (1) 
16.942557999999998

>  <r_lp_tautomer_probability>  (1) 
0.99999999996300004

>  <s_epik_cmdline>  (1) 
J2VwaWtfcHl0aG9uJywgJy1waHQnLCAnMS4wJywgJy1waCcsICc3LjQnLCAnLXRuJywgJzgnLCAnLW1hJywgJzUwMCcsICctaW1hZScsICc8aW5maWxlLm1hZT4nLCAnLW9tYWUnLCAnPG91dGZpbGUubWFlPic=

>  <s_epik_input>  (1) 
TzFbQ0gyXVtDSDJdT2MoYzEyKWMoW09IXSlbY0hdW2NIXVtjSF0y

>  <s_glide_docking_method>  (1) 
confgen

>  <s_i_glide_gridfile>  (1) 
gpcr_drd2_6luq_protein_autoprepared_prepared

>  <s_lp_Force_Field>  (1) 
S-OPLS

>  <s_lp_Variant>  (1) 
Pocket2Mol_68_num_sample_100-1

>  <s_m_source_file>  (1) 
generated__ligand_Pocket2Mol_2026-05-06_prepared.sdf

>  <GenAI_Model>  (1) 
Pocket2Mol

>  <Protein>  (1) 
generic_title2

$$$$
Pocket2Mol_59_num_sample_100
     RDKit          3D

  0  0  0  0  0  0  0  0  0  0999 V3000
M  V30 BEGIN CTAB
M  V30 COUNTS 17 18 0 0 1
M  V30 BEGIN ATOM
M  V30 1 C 10.970213 7.769301 -10.450432 0
M  V30 2 O 10.173374 6.790077 -9.689297 0
M  V30 3 C 10.442586 7.151893 -8.418015 0
M  V30 4 C 11.303112 8.156849 -8.261289 0
M  V30 5 C 11.657337 8.624806 -6.987566 0
M  V30 6 N 11.117408 8.038561 -5.858829 0 CHG=1
M  V30 7 C 11.834731 8.718252 -9.500827 0
M  V30 8 O 11.434850 8.455910 -4.687303 0 CHG=-1
M  V30 9 C 10.228223 6.986540 -6.023938 0
M  V30 10 C 9.876538 6.534926 -7.315763 0
M  V30 11 H 10.277655 8.366645 -11.044323 0
M  V30 12 H 11.615316 7.246444 -11.156635 0
M  V30 13 H 12.344875 9.432641 -6.795365 0
M  V30 14 H 11.594535 9.775533 -9.605074 0
M  V30 15 H 12.908740 8.551824 -9.590692 0
M  V30 16 H 9.844926 6.569301 -5.106032 0
M  V30 17 H 9.177803 5.721576 -7.442539 0
M  V30 END ATOM
M  V30 BEGIN BOND
M  V30 1 1 2 1
M  V30 2 1 3 2
M  V30 3 2 4 3
M  V30 4 1 5 4
M  V30 5 2 6 5
M  V30 6 1 7 1
M  V30 7 1 7 4
M  V30 8 1 8 6
M  V30 9 1 9 6
M  V30 10 1 10 3
M  V30 11 2 10 9
M  V30 12 1 11 1
M  V30 13 1 12 1
M  V30 14 1 13 5
M  V30 15 1 14 7
M  V30 16 1 15 7
M  V30 17 1 16 9
M  V30 18 1 17 10
M  V30 END BOND
M  V30 END CTAB
M  END
>  <i_epik_Tot_Q>  (1) 
0

>  <i_epik_Tot_abs_Q>  (1) 
2

>  <i_i_glide_confnum>  (1) 
1

>  <i_i_glide_lignum>  (1) 
66

>  <i_i_glide_posenum>  (1) 
376

>  <i_i_glide_rotatable_bonds>  (1) 
0

>  <i_lp_mmshare_version>  (1) 
72125

>  <i_m_source_file_index>  (1) 
60

>  <i_f3d_flags>  (1) 
0

>  <num_sample>  (1) 
100

>  <b_lp_Chiralities_Consistent>  (1) 
1

>  <r_epik_Charging_Adjusted_Penalty>  (1) 
1.5203065777176405e-06

>  <r_epik_Ionization_Penalty>  (1) 
1.5203065777176405e-06

>  <r_epik_Ionization_Penalty_Charging>  (1) 
1.5203065777176405e-06

>  <r_epik_Ionization_Penalty_Neutral>  (1) 
0

>  <r_epik_State_Penalty>  (1) 
-0

>  <r_glide_ring_energy>  (1) 
0

>  <r_i_docking_score>  (1) 
-5.5734790860984642

>  <r_i_glide_ecoul>  (1) 
-2.4713885838852336

>  <r_i_glide_eff_state_penalty>  (1) 
-0

>  <r_i_glide_einternal>  (1) 
0

>  <r_i_glide_emodel>  (1) 
-27.320868709987053

>  <r_i_glide_emodel_strain>  (1) 
0

>  <r_i_glide_energy>  (1) 
-18.996992909012185

>  <r_i_glide_erotb>  (1) 
0

>  <r_i_glide_esite>  (1) 
0

>  <r_i_glide_evdw>  (1) 
-16.525604325126952

>  <r_i_glide_gscore>  (1) 
-5.5734790860984642

>  <r_i_glide_gscore_strain>  (1) 
0

>  <r_i_glide_hbond>  (1) 
0

>  <r_i_glide_ligand_efficiency>  (1) 
-0.5573479086098464

>  <r_i_glide_ligand_efficiency_ln>  (1) 
-1.6876110468498722

>  <r_i_glide_ligand_efficiency_sa>  (1) 
-1.2007696687257732

>  <r_i_glide_lipo>  (1) 
-1.0717354421140357

>  <r_i_glide_metal>  (1) 
-0

>  <r_i_glide_rewards>  (1) 
-3.3047551401452964

>  <r_lp_Energy>  (1) 
12.910414999999999

>  <r_lp_tautomer_probability>  (1) 
1

>  <s_epik_cmdline>  (1) 
J2VwaWtfcHl0aG9uJywgJy1waHQnLCAnMS4wJywgJy1waCcsICc3LjQnLCAnLXRuJywgJzgnLCAnLW1hJywgJzUwMCcsICctaW1hZScsICc8aW5maWxlLm1hZT4nLCAnLW9tYWUnLCAnPG91dGZpbGUubWFlPic=

>  <s_epik_input>  (1) 
TzFbQ0gyXVtDSDJdYyhjMTIpW2NIXVtuK10oW08tXSlbY0hdW2NIXTI=

>  <s_glide_docking_method>  (1) 
confgen

>  <s_i_glide_gridfile>  (1) 
gpcr_drd2_6luq_protein_autoprepared_prepared

>  <s_lp_Force_Field>  (1) 
S-OPLS

>  <s_lp_Variant>  (1) 
Pocket2Mol_59_num_sample_100-1

>  <s_m_source_file>  (1) 
generated__ligand_Pocket2Mol_2026-05-06_prepared.sdf

>  <GenAI_Model>  (1) 
Pocket2Mol

>  <Protein>  (1) 
generic_title2

$$$$
Pocket2Mol_39_num_sample_100
     RDKit          3D

  0  0  0  0  0  0  0  0  0  0999 V3000
M  V30 BEGIN CTAB
M  V30 COUNTS 14 15 0 0 1
M  V30 BEGIN ATOM
M  V30 1 C 11.218574 8.949208 -6.601688 0
M  V30 2 O 11.055585 7.655183 -6.147464 0
M  V30 3 C 11.434839 7.645224 -4.828206 0
M  V30 4 C 11.834838 8.928764 -4.441845 0
M  V30 5 C 12.260452 9.087935 -3.082501 0
M  V30 6 C 11.434843 6.569302 -3.966010 0
M  V30 7 C 11.691257 9.769860 -5.591604 0
M  V30 8 N 12.264178 8.009122 -2.234206 0
M  V30 9 C 11.861496 6.792262 -2.664228 0
M  V30 10 H 10.960437 9.120584 -7.636637 0
M  V30 11 H 12.584816 10.039589 -2.691665 0
M  V30 12 H 11.113591 5.593406 -4.291667 0
M  V30 13 H 11.908427 10.825820 -5.649580 0
M  V30 14 H 11.883137 5.987821 -1.942934 0
M  V30 END ATOM
M  V30 BEGIN BOND
M  V30 1 1 2 1
M  V30 2 1 3 2
M  V30 3 2 4 3
M  V30 4 1 5 4
M  V30 5 1 6 3
M  V30 6 2 7 1
M  V30 7 1 7 4
M  V30 8 2 8 5
M  V30 9 2 9 6
M  V30 10 1 9 8
M  V30 11 1 10 1
M  V30 12 1 11 5
M  V30 13 1 12 6
M  V30 14 1 13 7
M  V30 15 1 14 9
M  V30 END BOND
M  V30 END CTAB
M  END
>  <i_epik_Tot_Q>  (1) 
0

>  <i_epik_Tot_abs_Q>  (1) 
0

>  <i_i_glide_confnum>  (1) 
1

>  <i_i_glide_lignum>  (1) 
44

>  <i_i_glide_posenum>  (1) 
62

>  <i_i_glide_rotatable_bonds>  (1) 
0

>  <i_lp_mmshare_version>  (1) 
72125

>  <i_m_source_file_index>  (1) 
40

>  <i_f3d_flags>  (1) 
0

>  <num_sample>  (1) 
100

>  <b_lp_Chiralities_Consistent>  (1) 
1

>  <r_epik_Charging_Adjusted_Penalty>  (1) 
0

>  <r_epik_Ionization_Penalty>  (1) 
0.00075511756769225586

>  <r_epik_Ionization_Penalty_Charging>  (1) 
0

>  <r_epik_Ionization_Penalty_Neutral>  (1) 
0.00075511756769225586

>  <r_epik_State_Penalty>  (1) 
-0

>  <r_glide_ring_energy>  (1) 
0

>  <r_i_docking_score>  (1) 
-5.5723198615459504

>  <r_i_glide_ecoul>  (1) 
-0.9555249050378205

>  <r_i_glide_eff_state_penalty>  (1) 
-0

>  <r_i_glide_einternal>  (1) 
0

>  <r_i_glide_emodel>  (1) 
-27.931250793001375

>  <r_i_glide_emodel_strain>  (1) 
0

>  <r_i_glide_energy>  (1) 
-20.603890554394173

>  <r_i_glide_erotb>  (1) 
0

>  <r_i_glide_esite>  (1) 
0

>  <r_i_glide_evdw>  (1) 
-19.648365649356354

>  <r_i_glide_gscore>  (1) 
-5.5723198615459504

>  <r_i_glide_gscore_strain>  (1) 
0

>  <r_i_glide_hbond>  (1) 
0

>  <r_i_glide_ligand_efficiency>  (1) 
-0.61914665128288338

>  <r_i_glide_ligand_efficiency_ln>  (1) 
-1.7428615747063194

>  <r_i_glide_ligand_efficiency_sa>  (1) 
-1.2878769334302844

>  <r_i_glide_lipo>  (1) 
-1.8965728433224602

>  <r_i_glide_metal>  (1) 
-0

>  <r_i_glide_rewards>  (1) 
-2.5499999999999998

>  <r_lp_Energy>  (1) 
12.667646999999999

>  <r_lp_tautomer_probability>  (1) 
1

>  <s_epik_cmdline>  (1) 
J2VwaWtfcHl0aG9uJywgJy1waHQnLCAnMS4wJywgJy1waCcsICc3LjQnLCAnLXRuJywgJzgnLCAnLW1hJywgJzUwMCcsICctaW1hZScsICc8aW5maWxlLm1hZT4nLCAnLW9tYWUnLCAnPG91dGZpbGUubWFlPic=

>  <s_epik_input>  (1) 
bzFbY0hdW2NIXWMoYzEyKVtjSF1uW2NIXVtjSF0y

>  <s_glide_docking_method>  (1) 
confgen

>  <s_i_glide_gridfile>  (1) 
gpcr_drd2_6luq_protein_autoprepared_prepared

>  <s_lp_Force_Field>  (1) 
S-OPLS

>  <s_lp_Variant>  (1) 
Pocket2Mol_39_num_sample_100-1

>  <s_m_source_file>  (1) 
generated__ligand_Pocket2Mol_2026-05-06_prepared.sdf

>  <GenAI_Model>  (1) 
Pocket2Mol

>  <Protein>  (1) 
generic_title2

$$$$
Pocket2Mol_61_num_sample_100
     RDKit          3D

  0  0  0  0  0  0  0  0  0  0999 V3000
M  V30 BEGIN CTAB
M  V30 COUNTS 18 19 0 0 1
M  V30 BEGIN ATOM
M  V30 1 C 10.306772 7.253977 -5.895859 0
M  V30 2 O 11.434855 7.821488 -6.455134 0
M  V30 3 C 11.294346 7.733786 -7.819727 0
M  V30 4 C 10.070130 7.121764 -8.122330 0
M  V30 5 C 9.760815 6.948696 -9.494731 0
M  V30 6 C 10.663268 7.369507 -10.501745 0
M  V30 7 C 9.435727 6.821378 -6.877475 0
M  V30 8 N 10.330021 7.176215 -11.851101 0
M  V30 9 C 11.893353 7.984050 -10.140901 0
M  V30 10 C 12.204230 8.169258 -8.786063 0
M  V30 11 O 11.437662 6.969295 -12.691618 0
M  V30 12 H 10.273684 7.235040 -4.815697 0
M  V30 13 H 8.821904 6.488979 -9.771735 0
M  V30 14 H 8.473406 6.346195 -6.744821 0
M  V30 15 H 9.585646 6.525660 -12.066324 0
M  V30 16 H 12.586624 8.308436 -10.901474 0
M  V30 17 H 13.134940 8.633968 -8.495277 0
M  V30 18 H 11.551140 6.028156 -12.749627 0
M  V30 END ATOM
M  V30 BEGIN BOND
M  V30 1 1 2 1
M  V30 2 1 3 2
M  V30 3 1 4 3
M  V30 4 2 5 4
M  V30 5 1 6 5
M  V30 6 2 7 1
M  V30 7 1 7 4
M  V30 8 1 8 6
M  V30 9 2 9 6
M  V30 10 2 10 3
M  V30 11 1 10 9
M  V30 12 1 11 8
M  V30 13 1 12 1
M  V30 14 1 13 5
M  V30 15 1 14 7
M  V30 16 1 15 8
M  V30 17 1 16 9
M  V30 18 1 17 10
M  V30 19 1 18 11
M  V30 END BOND
M  V30 END CTAB
M  END
>  <i_epik_Tot_Q>  (1) 
0

>  <i_epik_Tot_abs_Q>  (1) 
0

>  <i_i_glide_confnum>  (1) 
1

>  <i_i_glide_lignum>  (1) 
68

>  <i_i_glide_posenum>  (1) 
289

>  <i_i_glide_rotatable_bonds>  (1) 
2

>  <i_lp_mmshare_version>  (1) 
72125

>  <i_m_source_file_index>  (1) 
62

>  <i_f3d_flags>  (1) 
0

>  <num_sample>  (1) 
100

>  <b_lp_Chiralities_Consistent>  (1) 
1

>  <r_epik_Charging_Adjusted_Penalty>  (1) 
0

>  <r_epik_Ionization_Penalty>  (1) 
0.00016546089717554426

>  <r_epik_Ionization_Penalty_Charging>  (1) 
0

>  <r_epik_Ionization_Penalty_Neutral>  (1) 
0.00016546089717554426

>  <r_epik_State_Penalty>  (1) 
-0

>  <r_glide_ring_energy>  (1) 
0

>  <r_i_docking_score>  (1) 
-5.5590863151786323

>  <r_i_glide_ecoul>  (1) 
-4.0076114959976952

>  <r_i_glide_eff_state_penalty>  (1) 
-0

>  <r_i_glide_einternal>  (1) 
1.3850659416158999

>  <r_i_glide_emodel>  (1) 
-30.255121917501416

>  <r_i_glide_emodel_strain>  (1) 
0.096622062220689031

>  <r_i_glide_energy>  (1) 
-21.84528798921734

>  <r_i_glide_erotb>  (1) 
0

>  <r_i_glide_esite>  (1) 
0

>  <r_i_glide_evdw>  (1) 
-17.837676493219647

>  <r_i_glide_gscore>  (1) 
-5.5590863151786323

>  <r_i_glide_gscore_strain>  (1) 
0

>  <r_i_glide_hbond>  (1) 
-0.19843554272667355

>  <r_i_glide_ligand_efficiency>  (1) 
-0.50537148319805747

>  <r_i_glide_ligand_efficiency_ln>  (1) 
-1.6360381556434467

>  <r_i_glide_ligand_efficiency_sa>  (1) 
-1.1239361169739652

>  <r_i_glide_lipo>  (1) 
-0.93499663272115674

>  <r_i_glide_metal>  (1) 
-0

>  <r_i_glide_rewards>  (1) 
-2.9326285906701646

>  <r_lp_Energy>  (1) 
13.798807999999999

>  <r_lp_tautomer_probability>  (1) 
1

>  <s_epik_Chemistry_Notes>  (1) 
This compound has a N-S or N-O group and may undergo hydrolysis at high or low pH.

>  <s_epik_cmdline>  (1) 
J2VwaWtfcHl0aG9uJywgJy1waHQnLCAnMS4wJywgJy1waCcsICc3LjQnLCAnLXRuJywgJzgnLCAnLW1hJywgJzUwMCcsICctaW1hZScsICc8aW5maWxlLm1hZT4nLCAnLW9tYWUnLCAnPG91dGZpbGUubWFlPic=

>  <s_epik_input>  (1) 
bzFbY0hdW2NIXWMoYzEyKVtjSF1jKFtOSF1bT0hdKVtjSF1bY0hdMg==

>  <s_glide_docking_method>  (1) 
confgen

>  <s_i_glide_gridfile>  (1) 
gpcr_drd2_6luq_protein_autoprepared_prepared

>  <s_lp_Force_Field>  (1) 
S-OPLS

>  <s_lp_Variant>  (1) 
Pocket2Mol_61_num_sample_100-1

>  <s_m_source_file>  (1) 
generated__ligand_Pocket2Mol_2026-05-06_prepared.sdf

>  <GenAI_Model>  (1) 
Pocket2Mol

>  <Protein>  (1) 
generic_title2

$$$$
Pocket2Mol_57_num_sample_100
     RDKit          3D

  0  0  0  0  0  0  0  0  0  0999 V3000
M  V30 BEGIN CTAB
M  V30 COUNTS 18 19 0 0 1
M  V30 BEGIN ATOM
M  V30 1 C 11.832366 9.369291 -5.328497 0
M  V30 2 O 12.257688 9.369302 -6.662722 0
M  V30 3 C 11.583600 8.503670 -7.490205 0
M  V30 4 C 10.856319 7.431847 -6.941449 0
M  V30 5 C 10.149032 6.552016 -7.782139 0
M  V30 6 C 11.618492 8.687660 -8.886754 0
M  V30 7 C 10.912744 7.806857 -9.729835 0
M  V30 8 C 10.835856 7.239729 -5.444756 0
M  V30 9 C 10.174775 6.741671 -9.176743 0
M  V30 10 O 11.772802 8.086825 -4.781589 0
M  V30 11 H 12.549143 9.947697 -4.746684 0
M  V30 12 H 10.858576 9.857637 -5.252879 0
M  V30 13 H 9.585122 5.733957 -7.358296 0
M  V30 14 H 12.180246 9.507013 -9.310866 0
M  V30 15 H 10.933806 7.950007 -10.799623 0
M  V30 16 H 9.834801 7.463700 -5.091714 0
M  V30 17 H 11.045788 6.199770 -5.191611 0
M  V30 18 H 9.629661 6.069079 -9.823063 0
M  V30 END ATOM
M  V30 BEGIN BOND
M  V30 1 1 2 1
M  V30 2 1 3 2
M  V30 3 1 4 3
M  V30 4 2 5 4
M  V30 5 2 6 3
M  V30 6 1 7 6
M  V30 7 1 8 4
M  V30 8 1 9 5
M  V30 9 2 9 7
M  V30 10 1 10 1
M  V30 11 1 10 8
M  V30 12 1 11 1
M  V30 13 1 12 1
M  V30 14 1 13 5
M  V30 15 1 14 6
M  V30 16 1 15 7
M  V30 17 1 16 8
M  V30 18 1 17 8
M  V30 19 1 18 9
M  V30 END BOND
M  V30 END CTAB
M  END
>  <i_epik_Tot_Q>  (1) 
0

>  <i_epik_Tot_abs_Q>  (1) 
0

>  <i_i_glide_confnum>  (1) 
1

>  <i_i_glide_lignum>  (1) 
64

>  <i_i_glide_posenum>  (1) 
300

>  <i_i_glide_rotatable_bonds>  (1) 
0

>  <i_lp_mmshare_version>  (1) 
72125

>  <i_m_source_file_index>  (1) 
58

>  <i_f3d_flags>  (1) 
0

>  <num_sample>  (1) 
100

>  <b_lp_Chiralities_Consistent>  (1) 
1

>  <r_epik_Charging_Adjusted_Penalty>  (1) 
0

>  <r_epik_Ionization_Penalty>  (1) 
5.7885637950061117e-15

>  <r_epik_Ionization_Penalty_Charging>  (1) 
0

>  <r_epik_Ionization_Penalty_Neutral>  (1) 
5.7885637950061117e-15

>  <r_epik_State_Penalty>  (1) 
-0

>  <r_glide_ring_energy>  (1) 
0

>  <r_i_docking_score>  (1) 
-5.5363327387250312

>  <r_i_glide_ecoul>  (1) 
-0.8189490881990118

>  <r_i_glide_eff_state_penalty>  (1) 
-0

>  <r_i_glide_einternal>  (1) 
0

>  <r_i_glide_emodel>  (1) 
-27.395509504715289

>  <r_i_glide_emodel_strain>  (1) 
0

>  <r_i_glide_energy>  (1) 
-20.17269012455591

>  <r_i_glide_erotb>  (1) 
0

>  <r_i_glide_esite>  (1) 
0

>  <r_i_glide_evdw>  (1) 
-19.353741036356897

>  <r_i_glide_gscore>  (1) 
-5.5363327387250312

>  <r_i_glide_gscore_strain>  (1) 
0

>  <r_i_glide_hbond>  (1) 
0

>  <r_i_glide_ligand_efficiency>  (1) 
-0.55363327387250316

>  <r_i_glide_ligand_efficiency_ln>  (1) 
-1.6763633889311607

>  <r_i_glide_ligand_efficiency_sa>  (1) 
-1.1927667307868435

>  <r_i_glide_lipo>  (1) 
-1.0350779483854504

>  <r_i_glide_metal>  (1) 
-0

>  <r_i_glide_rewards>  (1) 
-3.410725375291884

>  <r_lp_Energy>  (1) 
18.330197999999999

>  <r_lp_tautomer_probability>  (1) 
1

>  <s_epik_Chemistry_Notes>  (1) 
This compound contains an acetal/aminal-like group ( X-CH(R)-Y where X, Y are N, S, or O) that may be acid/base labile, releasing an aldehyde.

>  <s_epik_cmdline>  (1) 
J2VwaWtfcHl0aG9uJywgJy1waHQnLCAnMS4wJywgJy1waCcsICc3LjQnLCAnLXRuJywgJzgnLCAnLW1hJywgJzUwMCcsICctaW1hZScsICc8aW5maWxlLm1hZT4nLCAnLW9tYWUnLCAnPG91dGZpbGUubWFlPic=

>  <s_epik_input>  (1) 
TzFbQ0gyXU9bQ0gyXWMoYzEyKVtjSF1bY0hdW2NIXVtjSF0y

>  <s_glide_docking_method>  (1) 
confgen

>  <s_i_glide_gridfile>  (1) 
gpcr_drd2_6luq_protein_autoprepared_prepared

>  <s_lp_Force_Field>  (1) 
S-OPLS

>  <s_lp_Variant>  (1) 
Pocket2Mol_57_num_sample_100-1

>  <s_m_source_file>  (1) 
generated__ligand_Pocket2Mol_2026-05-06_prepared.sdf

>  <GenAI_Model>  (1) 
Pocket2Mol

>  <Protein>  (1) 
generic_title2

$$$$
Pocket2Mol_95_num_sample_100
     RDKit          3D

  0  0  0  0  0  0  0  0  0  0999 V3000
M  V30 BEGIN CTAB
M  V30 COUNTS 23 24 0 0 1
M  V30 BEGIN ATOM
M  V30 1 C 9.970410 7.377191 -8.108464 0
M  V30 2 O 10.555928 8.569287 -7.603935 0
M  V30 3 C 11.134370 8.473154 -6.357470 0
M  V30 4 C 9.141035 6.731441 -6.998490 0
M  V30 5 O 10.022549 6.362260 -5.949147 0
M  V30 6 C 10.870748 7.355960 -5.524904 0
M  V30 7 C 11.477474 7.264039 -4.252431 0
M  V30 8 O 11.216026 6.169299 -3.457436 0
M  V30 9 C 12.350612 8.297212 -3.814508 0
M  V30 10 O 12.964990 8.228969 -2.594596 0
M  V30 11 C 11.993390 9.489244 -5.910559 0
M  V30 12 C 12.601187 9.395671 -4.645845 0
M  V30 13 C 11.034917 6.312039 -2.048543 0
M  V30 14 H 10.747746 6.697775 -8.461396 0
M  V30 15 H 9.343707 7.625928 -8.964313 0
M  V30 16 H 8.621268 5.845836 -7.364092 0
M  V30 17 H 8.388204 7.424653 -6.621838 0
M  V30 18 H 13.395394 9.033847 -2.342147 0
M  V30 19 H 12.194324 10.340253 -6.542726 0
M  V30 20 H 13.269159 10.169300 -4.314602 0
M  V30 21 H 10.140316 5.769302 -1.749254 0
M  V30 22 H 11.883495 5.882243 -1.515040 0
M  V30 23 H 10.886700 7.332730 -1.699827 0
M  V30 END ATOM
M  V30 BEGIN BOND
M  V30 1 1 2 1
M  V30 2 1 3 2
M  V30 3 1 4 1
M  V30 4 1 5 4
M  V30 5 2 6 3
M  V30 6 1 6 5
M  V30 7 1 7 6
M  V30 8 1 8 7
M  V30 9 2 9 7
M  V30 10 1 10 9
M  V30 11 1 11 3
M  V30 12 1 12 9
M  V30 13 2 12 11
M  V30 14 1 13 8
M  V30 15 1 14 1
M  V30 16 1 15 1
M  V30 17 1 16 4
M  V30 18 1 17 4
M  V30 19 1 18 10
M  V30 20 1 19 11
M  V30 21 1 20 12
M  V30 22 1 21 13
M  V30 23 1 22 13
M  V30 24 1 23 13
M  V30 END BOND
M  V30 END CTAB
M  END
>  <i_epik_Tot_Q>  (1) 
0

>  <i_epik_Tot_abs_Q>  (1) 
0

>  <i_i_glide_confnum>  (1) 
2

>  <i_i_glide_lignum>  (1) 
104

>  <i_i_glide_posenum>  (1) 
146

>  <i_i_glide_rotatable_bonds>  (1) 
2

>  <i_lp_mmshare_version>  (1) 
72125

>  <i_m_source_file_index>  (1) 
96

>  <i_f3d_flags>  (1) 
0

>  <num_sample>  (1) 
100

>  <b_lp_Chiralities_Consistent>  (1) 
1

>  <r_epik_Charging_Adjusted_Penalty>  (1) 
0

>  <r_epik_Ionization_Penalty>  (1) 
0.0014130578134093086

>  <r_epik_Ionization_Penalty_Charging>  (1) 
0

>  <r_epik_Ionization_Penalty_Neutral>  (1) 
0.0014130578134093086

>  <r_epik_State_Penalty>  (1) 
-0

>  <r_glide_ring_energy>  (1) 
0.003085301398031638

>  <r_i_docking_score>  (1) 
-5.5335060418223199

>  <r_i_glide_ecoul>  (1) 
-0.84683921811690244

>  <r_i_glide_eff_state_penalty>  (1) 
-0

>  <r_i_glide_einternal>  (1) 
3.0641460865455921

>  <r_i_glide_emodel>  (1) 
-26.144074860630681

>  <r_i_glide_emodel_strain>  (1) 
0.34174124591159227

>  <r_i_glide_energy>  (1) 
-20.38537407758616

>  <r_i_glide_erotb>  (1) 
0

>  <r_i_glide_esite>  (1) 
0

>  <r_i_glide_evdw>  (1) 
-19.538534859469259

>  <r_i_glide_gscore>  (1) 
-5.5335060418223199

>  <r_i_glide_gscore_strain>  (1) 
0

>  <r_i_glide_hbond>  (1) 
-0.017286607470081438

>  <r_i_glide_ligand_efficiency>  (1) 
-0.42565431090940919

>  <r_i_glide_ligand_efficiency_ln>  (1) 
-1.5521976575180627

>  <r_i_glide_ligand_efficiency_sa>  (1) 
-1.0008557462191701

>  <r_i_glide_lipo>  (1) 
-1.7137120006441171

>  <r_i_glide_metal>  (1) 
-0

>  <r_i_glide_rewards>  (1) 
-2.698554808017124

>  <r_lp_Energy>  (1) 
25.525124999999999

>  <r_lp_tautomer_probability>  (1) 
1

>  <s_epik_cmdline>  (1) 
J2VwaWtfcHl0aG9uJywgJy1waHQnLCAnMS4wJywgJy1waCcsICc3LjQnLCAnLXRuJywgJzgnLCAnLW1hJywgJzUwMCcsICctaW1hZScsICc8aW5maWxlLm1hZT4nLCAnLW9tYWUnLCAnPG91dGZpbGUubWFlPic=

>  <s_epik_input>  (1) 
TzFbQ0gyXVtDSDJdT2MoYzEyKWMoT1tDSDNdKWMoW09IXSlbY0hdW2NIXTI=

>  <s_glide_docking_method>  (1) 
confgen

>  <s_i_glide_gridfile>  (1) 
gpcr_drd2_6luq_protein_autoprepared_prepared

>  <s_lp_Force_Field>  (1) 
S-OPLS

>  <s_lp_Variant>  (1) 
Pocket2Mol_95_num_sample_100-1

>  <s_m_source_file>  (1) 
generated__ligand_Pocket2Mol_2026-05-06_prepared.sdf

>  <GenAI_Model>  (1) 
Pocket2Mol

>  <Protein>  (1) 
generic_title2

$$$$
Pocket2Mol_43_num_sample_100
     RDKit          3D

  0  0  0  0  0  0  0  0  0  0999 V3000
M  V30 BEGIN CTAB
M  V30 COUNTS 16 17 0 0 1
M  V30 BEGIN ATOM
M  V30 1 C 11.241504 8.969442 -6.576113 0
M  V30 2 O 11.759742 9.787759 -5.423269 0
M  V30 3 C 11.834842 8.870919 -4.388404 0
M  V30 4 C 11.434839 7.654542 -4.728573 0
M  V30 5 C 11.463297 6.569301 -3.851362 0
M  V30 6 C 12.302577 9.152582 -3.096350 0
M  V30 7 C 12.349725 8.097393 -2.149665 0
M  V30 8 C 11.928566 6.790300 -2.532264 0
M  V30 9 N 11.034836 7.640003 -5.988942 0
M  V30 10 H 10.285980 9.353058 -6.934607 0
M  V30 11 H 11.973966 8.905828 -7.381729 0
M  V30 12 H 11.134082 5.593235 -4.168230 0
M  V30 13 H 12.625090 10.146586 -2.829241 0
M  V30 14 H 12.706922 8.283052 -1.147346 0
M  V30 15 H 11.961776 5.975762 -1.822860 0
M  V30 16 H 11.284272 6.838436 -6.550866 0
M  V30 END ATOM
M  V30 BEGIN BOND
M  V30 1 1 2 1
M  V30 2 1 3 2
M  V30 3 1 4 3
M  V30 4 2 5 4
M  V30 5 2 6 3
M  V30 6 1 7 6
M  V30 7 1 8 5
M  V30 8 2 8 7
M  V30 9 1 9 1
M  V30 10 1 9 4
M  V30 11 1 10 1
M  V30 12 1 11 1
M  V30 13 1 12 5
M  V30 14 1 13 6
M  V30 15 1 14 7
M  V30 16 1 15 8
M  V30 17 1 16 9
M  V30 END BOND
M  V30 END CTAB
M  END
>  <i_epik_Tot_Q>  (1) 
0

>  <i_epik_Tot_abs_Q>  (1) 
0

>  <i_i_glide_confnum>  (1) 
1

>  <i_i_glide_lignum>  (1) 
48

>  <i_i_glide_posenum>  (1) 
268

>  <i_i_glide_rotatable_bonds>  (1) 
0

>  <i_lp_mmshare_version>  (1) 
72125

>  <i_m_source_file_index>  (1) 
44

>  <i_f3d_flags>  (1) 
0

>  <num_sample>  (1) 
100

>  <b_lp_Chiralities_Consistent>  (1) 
1

>  <r_epik_Charging_Adjusted_Penalty>  (1) 
0

>  <r_epik_Ionization_Penalty>  (1) 
3.929707007381515e-06

>  <r_epik_Ionization_Penalty_Charging>  (1) 
0

>  <r_epik_Ionization_Penalty_Neutral>  (1) 
3.929707007381515e-06

>  <r_epik_State_Penalty>  (1) 
-0

>  <r_glide_ring_energy>  (1) 
0

>  <r_i_docking_score>  (1) 
-5.515680225470712

>  <r_i_glide_ecoul>  (1) 
-1.1853606852617555

>  <r_i_glide_eff_state_penalty>  (1) 
-0

>  <r_i_glide_einternal>  (1) 
0

>  <r_i_glide_emodel>  (1) 
-26.934972385843864

>  <r_i_glide_emodel_strain>  (1) 
0

>  <r_i_glide_energy>  (1) 
-19.84850847789626

>  <r_i_glide_erotb>  (1) 
0

>  <r_i_glide_esite>  (1) 
0

>  <r_i_glide_evdw>  (1) 
-18.663147792634504

>  <r_i_glide_gscore>  (1) 
-5.515680225470712

>  <r_i_glide_gscore_strain>  (1) 
0

>  <r_i_glide_hbond>  (1) 
0

>  <r_i_glide_ligand_efficiency>  (1) 
-0.61285335838563471

>  <r_i_glide_ligand_efficiency_ln>  (1) 
-1.7251463236486575

>  <r_i_glide_ligand_efficiency_sa>  (1) 
-1.2747863566809898

>  <r_i_glide_lipo>  (1) 
-1.5680972956920733

>  <r_i_glide_metal>  (1) 
-0

>  <r_i_glide_rewards>  (1) 
-2.8366214373576497

>  <r_lp_Energy>  (1) 
10.457737999999999

>  <r_lp_tautomer_probability>  (1) 
1

>  <s_epik_Chemistry_Notes>  (1) 
This compound contains an acetal/aminal-like group ( X-CH(R)-Y where X, Y are N, S, or O) that may be acid/base labile, releasing an aldehyde.

>  <s_epik_cmdline>  (1) 
J2VwaWtfcHl0aG9uJywgJy1waHQnLCAnMS4wJywgJy1waCcsICc3LjQnLCAnLXRuJywgJzgnLCAnLW1hJywgJzUwMCcsICctaW1hZScsICc8aW5maWxlLm1hZT4nLCAnLW9tYWUnLCAnPG91dGZpbGUubWFlPic=

>  <s_epik_input>  (1) 
TzFbQ0gyXVtOSF1jKGMxMilbY0hdW2NIXVtjSF1bY0hdMg==

>  <s_glide_docking_method>  (1) 
confgen

>  <s_i_glide_gridfile>  (1) 
gpcr_drd2_6luq_protein_autoprepared_prepared

>  <s_lp_Force_Field>  (1) 
S-OPLS

>  <s_lp_Variant>  (1) 
Pocket2Mol_43_num_sample_100-1

>  <s_m_source_file>  (1) 
generated__ligand_Pocket2Mol_2026-05-06_prepared.sdf

>  <GenAI_Model>  (1) 
Pocket2Mol

>  <Protein>  (1) 
generic_title2

$$$$
Pocket2Mol_26_num_sample_100
     RDKit          3D

  0  0  0  0  0  0  0  0  0  0999 V3000
M  V30 BEGIN CTAB
M  V30 COUNTS 15 15 0 0 1
M  V30 BEGIN ATOM
M  V30 1 C 10.767020 7.291223 -5.556040 0
M  V30 2 O 10.635014 8.713468 -5.491720 0
M  V30 3 C 11.815094 9.430673 -5.124832 0
M  V30 4 C 12.380077 9.002426 -3.743317 0 CFG=1
M  V30 5 O 11.835298 9.769326 -2.694360 0
M  V30 6 C 11.434839 6.760730 -4.307440 0
M  V30 7 C 12.162389 7.531753 -3.491670 0
M  V30 8 H 11.349532 6.999661 -6.429987 0
M  V30 9 H 9.776201 6.848338 -5.657404 0
M  V30 10 H 11.608883 10.501290 -5.146832 0
M  V30 11 H 12.562330 9.251323 -5.898658 0
M  V30 12 H 13.442110 9.208690 -3.746116 0
M  V30 13 H 12.511580 9.941617 -2.052050 0
M  V30 14 H 11.307833 5.713902 -4.090750 0
M  V30 15 H 12.622018 7.107774 -2.611075 0
M  V30 END ATOM
M  V30 BEGIN BOND
M  V30 1 1 2 1
M  V30 2 1 3 2
M  V30 3 1 4 3
M  V30 4 1 5 4
M  V30 5 1 6 1
M  V30 6 1 7 4
M  V30 7 2 7 6
M  V30 8 1 8 1
M  V30 9 1 9 1
M  V30 10 1 10 3
M  V30 11 1 11 3
M  V30 12 1 4 12 CFG=3
M  V30 13 1 13 5
M  V30 14 1 14 6
M  V30 15 1 15 7
M  V30 END BOND
M  V30 END CTAB
M  END
>  <i_epik_Tot_Q>  (1) 
0

>  <i_epik_Tot_abs_Q>  (1) 
0

>  <i_i_glide_confnum>  (1) 
2

>  <i_i_glide_lignum>  (1) 
30

>  <i_i_glide_posenum>  (1) 
28

>  <i_i_glide_rotatable_bonds>  (1) 
1

>  <i_lp_mmshare_version>  (1) 
72125

>  <i_m_source_file_index>  (1) 
27

>  <i_f3d_flags>  (1) 
0

>  <num_sample>  (1) 
100

>  <b_lp_Chiralities_Consistent>  (1) 
1

>  <r_epik_Charging_Adjusted_Penalty>  (1) 
0

>  <r_epik_Ionization_Penalty>  (1) 
7.567869706951744e-07

>  <r_epik_Ionization_Penalty_Charging>  (1) 
0

>  <r_epik_Ionization_Penalty_Neutral>  (1) 
7.567869706951744e-07

>  <r_epik_State_Penalty>  (1) 
-0

>  <r_glide_ring_energy>  (1) 
0.3802776858136746

>  <r_i_docking_score>  (1) 
-5.5115317335765512

>  <r_i_glide_ecoul>  (1) 
-3.0277508447107877

>  <r_i_glide_eff_state_penalty>  (1) 
-0

>  <r_i_glide_einternal>  (1) 
0.51825131652553114

>  <r_i_glide_emodel>  (1) 
-25.088420234789474

>  <r_i_glide_emodel_strain>  (1) 
0.1269910192799788

>  <r_i_glide_energy>  (1) 
-18.353631431971227

>  <r_i_glide_erotb>  (1) 
0

>  <r_i_glide_esite>  (1) 
0

>  <r_i_glide_evdw>  (1) 
-15.325880587260439

>  <r_i_glide_gscore>  (1) 
-5.5115317335765512

>  <r_i_glide_gscore_strain>  (1) 
0

>  <r_i_glide_hbond>  (1) 
-0.2526882243268655

>  <r_i_glide_ligand_efficiency>  (1) 
-0.78736167622522157

>  <r_i_glide_ligand_efficiency_ln>  (1) 
-1.8709096526056554

>  <r_i_glide_ligand_efficiency_sa>  (1) 
-1.5061687025711641

>  <r_i_glide_lipo>  (1) 
-1.5297323944059462

>  <r_i_glide_metal>  (1) 
-0

>  <r_i_glide_rewards>  (1) 
-2.5086544587741

>  <r_lp_Energy>  (1) 
2.4739009999999997

>  <r_lp_tautomer_probability>  (1) 
1

>  <s_epik_cmdline>  (1) 
J2VwaWtfcHl0aG9uJywgJy1waHQnLCAnMS4wJywgJy1waCcsICc3LjQnLCAnLXRuJywgJzgnLCAnLW1hJywgJzUwMCcsICctaW1hZScsICc8aW5maWxlLm1hZT4nLCAnLW9tYWUnLCAnPG91dGZpbGUubWFlPic=

>  <s_epik_input>  (1) 
W0NIXTE9W0NIXVtDSDJdT1tDSDJdW0NASF0xW09IXQ==

>  <s_glide_docking_method>  (1) 
confgen

>  <s_i_glide_gridfile>  (1) 
gpcr_drd2_6luq_protein_autoprepared_prepared

>  <s_lp_Force_Field>  (1) 
S-OPLS

>  <s_lp_Variant>  (1) 
Pocket2Mol_26_num_sample_100-1

>  <s_m_source_file>  (1) 
generated__ligand_Pocket2Mol_2026-05-06_prepared.sdf

>  <GenAI_Model>  (1) 
Pocket2Mol

>  <Protein>  (1) 
generic_title2

$$$$
Pocket2Mol_23_num_sample_100
     RDKit          3D

  0  0  0  0  0  0  0  0  0  0999 V3000
M  V30 BEGIN CTAB
M  V30 COUNTS 11 11 0 0 1
M  V30 BEGIN ATOM
M  V30 1 N 11.834839 9.600731 -4.833339 0
M  V30 2 C 12.311573 8.969302 -3.731728 0
M  V30 3 C 12.137851 7.592416 -3.491667 0
M  V30 4 C 11.161457 8.846620 -5.736653 0
M  V30 5 C 10.938230 7.464024 -5.580930 0
M  V30 6 F 12.634839 7.019833 -2.370055 0
M  V30 7 C 11.434839 6.825174 -4.434074 0
M  V30 8 H 12.846580 9.583219 -3.022463 0
M  V30 9 H 10.788825 9.363893 -6.608464 0
M  V30 10 H 10.392309 6.906816 -6.328818 0
M  V30 11 H 11.280343 5.769301 -4.280601 0
M  V30 END ATOM
M  V30 BEGIN BOND
M  V30 1 2 2 1
M  V30 2 1 3 2
M  V30 3 1 4 1
M  V30 4 2 5 4
M  V30 5 1 6 3
M  V30 6 2 7 3
M  V30 7 1 7 5
M  V30 8 1 8 2
M  V30 9 1 9 4
M  V30 10 1 10 5
M  V30 11 1 11 7
M  V30 END BOND
M  V30 END CTAB
M  END
>  <i_epik_Tot_Q>  (1) 
0

>  <i_epik_Tot_abs_Q>  (1) 
0

>  <i_i_glide_confnum>  (1) 
1

>  <i_i_glide_lignum>  (1) 
27

>  <i_i_glide_posenum>  (1) 
394

>  <i_i_glide_rotatable_bonds>  (1) 
0

>  <i_lp_mmshare_version>  (1) 
72125

>  <i_m_source_file_index>  (1) 
24

>  <i_f3d_flags>  (1) 
0

>  <num_sample>  (1) 
100

>  <b_lp_Chiralities_Consistent>  (1) 
1

>  <r_epik_Charging_Adjusted_Penalty>  (1) 
0

>  <r_epik_Ionization_Penalty>  (1) 
7.3223601380878174e-05

>  <r_epik_Ionization_Penalty_Charging>  (1) 
0

>  <r_epik_Ionization_Penalty_Neutral>  (1) 
7.3223601380878174e-05

>  <r_epik_State_Penalty>  (1) 
-0

>  <r_glide_ring_energy>  (1) 
0

>  <r_i_docking_score>  (1) 
-5.4966192383322054

>  <r_i_glide_ecoul>  (1) 
-1.0568959979630557

>  <r_i_glide_eff_state_penalty>  (1) 
-0

>  <r_i_glide_einternal>  (1) 
0

>  <r_i_glide_emodel>  (1) 
-21.798650474702985

>  <r_i_glide_emodel_strain>  (1) 
0

>  <r_i_glide_energy>  (1) 
-16.136421545698514

>  <r_i_glide_erotb>  (1) 
0

>  <r_i_glide_esite>  (1) 
0

>  <r_i_glide_evdw>  (1) 
-15.079525547735457

>  <r_i_glide_gscore>  (1) 
-5.4966192383322054

>  <r_i_glide_gscore_strain>  (1) 
0

>  <r_i_glide_hbond>  (1) 
0

>  <r_i_glide_ligand_efficiency>  (1) 
-0.78523131976174365

>  <r_i_glide_ligand_efficiency_ln>  (1) 
-1.8658475514247597

>  <r_i_glide_ligand_efficiency_sa>  (1) 
-1.5020934772617565

>  <r_i_glide_lipo>  (1) 
-1.5251651191586373

>  <r_i_glide_metal>  (1) 
-0

>  <r_i_glide_rewards>  (1) 
-3.0589434420923372

>  <r_lp_Energy>  (1) 
10.789624

>  <r_lp_tautomer_probability>  (1) 
1

>  <s_epik_cmdline>  (1) 
J2VwaWtfcHl0aG9uJywgJy1waHQnLCAnMS4wJywgJy1waCcsICc3LjQnLCAnLXRuJywgJzgnLCAnLW1hJywgJzUwMCcsICctaW1hZScsICc8aW5maWxlLm1hZT4nLCAnLW9tYWUnLCAnPG91dGZpbGUubWFlPic=

>  <s_epik_input>  (1) 
W2NIXTFbY0hdW2NIXW5bY0hdYzFG

>  <s_glide_docking_method>  (1) 
confgen

>  <s_i_glide_gridfile>  (1) 
gpcr_drd2_6luq_protein_autoprepared_prepared

>  <s_lp_Force_Field>  (1) 
S-OPLS

>  <s_lp_Variant>  (1) 
Pocket2Mol_23_num_sample_100-1

>  <s_m_source_file>  (1) 
generated__ligand_Pocket2Mol_2026-05-06_prepared.sdf

>  <GenAI_Model>  (1) 
Pocket2Mol

>  <Protein>  (1) 
generic_title2

$$$$
Pocket2Mol_97_num_sample_100
     RDKit          3D

  0  0  0  0  0  0  0  0  0  0999 V3000
M  V30 BEGIN CTAB
M  V30 COUNTS 24 25 0 0 1
M  V30 BEGIN ATOM
M  V30 1 C 8.919704 5.286228 -11.682643 0
M  V30 2 O 9.083665 4.615006 -10.445792 0
M  V30 3 C 9.142841 6.799108 -11.565855 0
M  V30 4 O 10.365456 7.057093 -10.898583 0
M  V30 5 C 8.560153 5.315461 -9.332619 0
M  V30 6 C 10.406471 7.109385 -9.515441 0
M  V30 7 C 11.331714 7.979264 -8.889719 0
M  V30 8 C 9.552842 6.293293 -8.706117 0
M  V30 9 C 12.257937 8.836584 -9.727766 0
M  V30 10 C 11.400283 8.049584 -7.485827 0
M  V30 11 C 10.555712 7.254857 -6.694693 0
M  V30 12 F 10.634797 7.325165 -5.345392 0
M  V30 13 C 9.634787 6.381525 -7.300285 0
M  V30 14 H 7.918603 5.090337 -12.068148 0
M  V30 15 H 9.624073 4.852750 -12.393418 0
M  V30 16 H 8.309176 7.315394 -11.091676 0
M  V30 17 H 9.209233 7.224659 -12.566974 0
M  V30 18 H 8.335703 4.565429 -8.576091 0
M  V30 19 H 7.596726 5.769261 -9.556145 0
M  V30 20 H 11.825238 9.821706 -9.891662 0
M  V30 21 H 13.210392 8.969301 -9.214800 0
M  V30 22 H 12.472283 8.378572 -10.691690 0
M  V30 23 H 12.107634 8.715031 -7.013905 0
M  V30 24 H 8.991869 5.769422 -6.684888 0
M  V30 END ATOM
M  V30 BEGIN BOND
M  V30 1 1 2 1
M  V30 2 1 3 1
M  V30 3 1 4 3
M  V30 4 1 5 2
M  V30 5 1 6 4
M  V30 6 2 7 6
M  V30 7 1 8 5
M  V30 8 1 8 6
M  V30 9 1 9 7
M  V30 10 1 10 7
M  V30 11 2 11 10
M  V30 12 1 12 11
M  V30 13 2 13 8
M  V30 14 1 13 11
M  V30 15 1 14 1
M  V30 16 1 15 1
M  V30 17 1 16 3
M  V30 18 1 17 3
M  V30 19 1 18 5
M  V30 20 1 19 5
M  V30 21 1 20 9
M  V30 22 1 21 9
M  V30 23 1 22 9
M  V30 24 1 23 10
M  V30 25 1 24 13
M  V30 END BOND
M  V30 END CTAB
M  END
>  <i_epik_Tot_Q>  (1) 
0

>  <i_epik_Tot_abs_Q>  (1) 
0

>  <i_i_glide_confnum>  (1) 
2

>  <i_i_glide_lignum>  (1) 
106

>  <i_i_glide_posenum>  (1) 
158

>  <i_i_glide_rotatable_bonds>  (1) 
0

>  <i_lp_mmshare_version>  (1) 
72125

>  <i_m_source_file_index>  (1) 
98

>  <i_f3d_flags>  (1) 
0

>  <num_sample>  (1) 
100

>  <b_lp_Chiralities_Consistent>  (1) 
1

>  <r_epik_Charging_Adjusted_Penalty>  (1) 
0

>  <r_epik_Ionization_Penalty>  (1) 
1.3261073421285308e-13

>  <r_epik_Ionization_Penalty_Charging>  (1) 
0

>  <r_epik_Ionization_Penalty_Neutral>  (1) 
1.3261073421285308e-13

>  <r_epik_State_Penalty>  (1) 
-0

>  <r_glide_ring_energy>  (1) 
1.7623001670689571

>  <r_i_docking_score>  (1) 
-5.4812424957263053

>  <r_i_glide_ecoul>  (1) 
-1.2896466237117592

>  <r_i_glide_eff_state_penalty>  (1) 
-0

>  <r_i_glide_einternal>  (1) 
0

>  <r_i_glide_emodel>  (1) 
-29.267846999469182

>  <r_i_glide_emodel_strain>  (1) 
0.10300965190863209

>  <r_i_glide_energy>  (1) 
-22.205948770939184

>  <r_i_glide_erotb>  (1) 
0

>  <r_i_glide_esite>  (1) 
0

>  <r_i_glide_evdw>  (1) 
-20.916302147227423

>  <r_i_glide_gscore>  (1) 
-5.4812424957263053

>  <r_i_glide_gscore_strain>  (1) 
0

>  <r_i_glide_hbond>  (1) 
0

>  <r_i_glide_ligand_efficiency>  (1) 
-0.42163403813279271

>  <r_i_glide_ligand_efficiency_ln>  (1) 
-1.53753726802708

>  <r_i_glide_ligand_efficiency_sa>  (1) 
-0.99140273938541223

>  <r_i_glide_lipo>  (1) 
-0.96348224484999534

>  <r_i_glide_metal>  (1) 
-0

>  <r_i_glide_rewards>  (1) 
-3.2784981499581751

>  <r_lp_Energy>  (1) 
15.481259999999999

>  <r_lp_tautomer_probability>  (1) 
1

>  <s_epik_cmdline>  (1) 
J2VwaWtfcHl0aG9uJywgJy1waHQnLCAnMS4wJywgJy1waCcsICc3LjQnLCAnLXRuJywgJzgnLCAnLW1hJywgJzUwMCcsICctaW1hZScsICc8aW5maWxlLm1hZT4nLCAnLW9tYWUnLCAnPG91dGZpbGUubWFlPic=

>  <s_epik_input>  (1) 
TzFbQ0gyXVtDSDJdT1tDSDJdYyhjMTIpW2NIXWMoRilbY0hdYzJbQ0gzXQ==

>  <s_glide_docking_method>  (1) 
confgen

>  <s_i_glide_gridfile>  (1) 
gpcr_drd2_6luq_protein_autoprepared_prepared

>  <s_lp_Force_Field>  (1) 
S-OPLS

>  <s_lp_Variant>  (1) 
Pocket2Mol_97_num_sample_100-1

>  <s_m_source_file>  (1) 
generated__ligand_Pocket2Mol_2026-05-06_prepared.sdf

>  <GenAI_Model>  (1) 
Pocket2Mol

>  <Protein>  (1) 
generic_title2

$$$$
Pocket2Mol_86_num_sample_100
     RDKit          3D

  0  0  0  0  0  0  0  0  0  0999 V3000
M  V30 BEGIN CTAB
M  V30 COUNTS 25 26 0 0 1
M  V30 BEGIN ATOM
M  V30 1 C 12.082061 9.655982 -4.726454 0
M  V30 2 O 11.434842 8.363949 -4.432726 0
M  V30 3 C 11.075213 7.947035 -5.666750 0
M  V30 4 C 11.485526 8.723039 -6.686978 0
M  V30 5 C 11.190380 8.404570 -8.022697 0
M  V30 6 C 12.262918 9.896673 -6.291662 0
M  V30 7 C 10.332688 6.781291 -5.891640 0
M  V30 8 C 10.437398 7.229733 -8.303350 0
M  V30 9 N 10.127291 6.870315 -9.643867 0
M  V30 10 C 10.009216 6.413471 -7.215079 0
M  V30 11 C 10.239482 7.932925 -10.631986 0
M  V30 12 C 9.112911 5.835157 -9.820071 0
M  V30 13 H 11.434839 10.432747 -4.317456 0
M  V30 14 H 13.036846 9.729259 -4.204508 0
M  V30 15 H 11.538722 9.043846 -8.818557 0
M  V30 16 H 13.298581 9.769303 -6.609367 0
M  V30 17 H 11.834836 10.835475 -6.644508 0
M  V30 18 H 10.013176 6.169301 -5.061339 0
M  V30 19 H 9.440834 5.514571 -7.392376 0
M  V30 20 H 11.286767 8.169302 -10.815849 0
M  V30 21 H 9.799932 7.630622 -11.582864 0
M  V30 22 H 9.709054 8.823303 -10.291671 0
M  V30 23 H 9.509095 4.854619 -9.554244 0
M  V30 24 H 8.234830 6.039546 -9.209388 0
M  V30 25 H 8.783192 5.783902 -10.857734 0
M  V30 END ATOM
M  V30 BEGIN BOND
M  V30 1 1 2 1
M  V30 2 1 3 2
M  V30 3 2 4 3
M  V30 4 1 5 4
M  V30 5 1 6 1
M  V30 6 1 6 4
M  V30 7 1 7 3
M  V30 8 2 8 5
M  V30 9 1 9 8
M  V30 10 2 10 7
M  V30 11 1 10 8
M  V30 12 1 11 9
M  V30 13 1 12 9
M  V30 14 1 13 1
M  V30 15 1 14 1
M  V30 16 1 15 5
M  V30 17 1 16 6
M  V30 18 1 17 6
M  V30 19 1 18 7
M  V30 20 1 19 10
M  V30 21 1 20 11
M  V30 22 1 21 11
M  V30 23 1 22 11
M  V30 24 1 23 12
M  V30 25 1 24 12
M  V30 26 1 25 12
M  V30 END BOND
M  V30 END CTAB
M  END
>  <i_epik_Tot_Q>  (1) 
0

>  <i_epik_Tot_abs_Q>  (1) 
0

>  <i_i_glide_confnum>  (1) 
1

>  <i_i_glide_lignum>  (1) 
93

>  <i_i_glide_posenum>  (1) 
350

>  <i_i_glide_rotatable_bonds>  (1) 
1

>  <i_lp_mmshare_version>  (1) 
72125

>  <i_m_source_file_index>  (1) 
87

>  <i_f3d_flags>  (1) 
0

>  <num_sample>  (1) 
100

>  <b_lp_Chiralities_Consistent>  (1) 
1

>  <r_epik_Charging_Adjusted_Penalty>  (1) 
0.017477600144237933

>  <r_epik_Ionization_Penalty>  (1) 
0.017477600144237951

>  <r_epik_Ionization_Penalty_Charging>  (1) 
0

>  <r_epik_Ionization_Penalty_Neutral>  (1) 
0.017477600144237951

>  <r_epik_State_Penalty>  (1) 
0.017477600144237933

>  <r_glide_ring_energy>  (1) 
0

>  <r_i_docking_score>  (1) 
-5.4759546268479253

>  <r_i_glide_ecoul>  (1) 
-0.16303835803859462

>  <r_i_glide_eff_state_penalty>  (1) 
0.017477600144237933

>  <r_i_glide_einternal>  (1) 
0.012985801003133401

>  <r_i_glide_emodel>  (1) 
-29.893048688249035

>  <r_i_glide_emodel_strain>  (1) 
0

>  <r_i_glide_energy>  (1) 
-21.074382566249245

>  <r_i_glide_erotb>  (1) 
0

>  <r_i_glide_esite>  (1) 
-0.065035763339930427

>  <r_i_glide_evdw>  (1) 
-20.91134420821065

>  <r_i_glide_gscore>  (1) 
-5.4934322269921632

>  <r_i_glide_gscore_strain>  (1) 
0

>  <r_i_glide_hbond>  (1) 
0

>  <r_i_glide_ligand_efficiency>  (1) 
-0.45632955223732713

>  <r_i_glide_ligand_efficiency_ln>  (1) 
-1.5713346660752154

>  <r_i_glide_ligand_efficiency_sa>  (1) 
-1.0447338754881061

>  <r_i_glide_lipo>  (1) 
-1.6995478480713848

>  <r_i_glide_metal>  (1) 
-0

>  <r_i_glide_rewards>  (1) 
-2.6588256514645261

>  <r_lp_Energy>  (1) 
28.069341999999999

>  <r_lp_tautomer_probability>  (1) 
1

>  <s_epik_cmdline>  (1) 
J2VwaWtfcHl0aG9uJywgJy1waHQnLCAnMS4wJywgJy1waCcsICc3LjQnLCAnLXRuJywgJzgnLCAnLW1hJywgJzUwMCcsICctaW1hZScsICc8aW5maWxlLm1hZT4nLCAnLW9tYWUnLCAnPG91dGZpbGUubWFlPic=

>  <s_epik_input>  (1) 
TzFbQ0gyXVtDSDJdYyhjMTIpW2NIXWMoTihbQ0gzXSlbQ0gzXSlbY0hdW2NIXTI=

>  <s_glide_docking_method>  (1) 
confgen

>  <s_i_glide_gridfile>  (1) 
gpcr_drd2_6luq_protein_autoprepared_prepared

>  <s_lp_Force_Field>  (1) 
S-OPLS

>  <s_lp_Variant>  (1) 
Pocket2Mol_86_num_sample_100-1

>  <s_m_source_file>  (1) 
generated__ligand_Pocket2Mol_2026-05-06_prepared.sdf

>  <GenAI_Model>  (1) 
Pocket2Mol

>  <Protein>  (1) 
generic_title2

$$$$
Pocket2Mol_81_num_sample_100
     RDKit          3D

  0  0  0  0  0  0  0  0  0  0999 V3000
M  V30 BEGIN CTAB
M  V30 COUNTS 20 21 0 0 1
M  V30 BEGIN ATOM
M  V30 1 C 11.538258 8.742963 -4.944650 0
M  V30 2 O 10.396125 8.156516 -5.546130 0
M  V30 3 C 10.467357 7.885418 -6.893779 0
M  V30 4 C 12.180805 9.761127 -5.887398 0
M  V30 5 O 12.547777 9.112009 -7.091667 0
M  V30 6 C 11.548409 8.373452 -7.674562 0
M  V30 7 C 11.596157 8.099906 -9.057712 0
M  V30 8 O 12.634840 8.569301 -9.813292 0
M  V30 9 C 9.455146 7.122819 -7.501156 0
M  V30 10 C 10.568796 7.345778 -9.661729 0
M  V30 11 O 10.601391 7.093643 -11.004701 0
M  V30 12 C 9.506303 6.851039 -8.880943 0
M  V30 13 H 12.234839 7.953749 -4.670463 0
M  V30 14 H 11.238878 9.235107 -4.019465 0
M  V30 15 H 13.082261 10.169301 -5.435058 0
M  V30 16 H 11.504158 10.590958 -6.095824 0
M  V30 17 H 13.198225 9.182224 -9.360394 0
M  V30 18 H 8.632055 6.750000 -6.909050 0
M  V30 19 H 9.814631 6.668123 -11.310010 0
M  V30 20 H 8.719956 6.271000 -9.342609 0
M  V30 END ATOM
M  V30 BEGIN BOND
M  V30 1 1 2 1
M  V30 2 1 3 2
M  V30 3 1 4 1
M  V30 4 1 5 4
M  V30 5 2 6 3
M  V30 6 1 6 5
M  V30 7 1 7 6
M  V30 8 1 8 7
M  V30 9 1 9 3
M  V30 10 2 10 7
M  V30 11 1 11 10
M  V30 12 2 12 9
M  V30 13 1 12 10
M  V30 14 1 13 1
M  V30 15 1 14 1
M  V30 16 1 15 4
M  V30 17 1 16 4
M  V30 18 1 17 8
M  V30 19 1 18 9
M  V30 20 1 19 11
M  V30 21 1 20 12
M  V30 END BOND
M  V30 END CTAB
M  END
>  <i_epik_Tot_Q>  (1) 
0

>  <i_epik_Tot_abs_Q>  (1) 
0

>  <i_i_glide_confnum>  (1) 
2

>  <i_i_glide_lignum>  (1) 
88

>  <i_i_glide_posenum>  (1) 
151

>  <i_i_glide_rotatable_bonds>  (1) 
2

>  <i_lp_mmshare_version>  (1) 
72125

>  <i_m_source_file_index>  (1) 
82

>  <i_f3d_flags>  (1) 
0

>  <num_sample>  (1) 
100

>  <b_lp_Chiralities_Consistent>  (1) 
1

>  <r_epik_Charging_Adjusted_Penalty>  (1) 
0.0036846811785224438

>  <r_epik_Ionization_Penalty>  (1) 
0.0053862680964110767

>  <r_epik_Ionization_Penalty_Charging>  (1) 
0

>  <r_epik_Ionization_Penalty_Neutral>  (1) 
0.0053862680964110767

>  <r_epik_State_Penalty>  (1) 
0.0036846811785224438

>  <r_glide_ring_energy>  (1) 
0.0030853077569594689

>  <r_i_docking_score>  (1) 
-5.4757573094570917

>  <r_i_glide_ecoul>  (1) 
-3.7737197323556706

>  <r_i_glide_eff_state_penalty>  (1) 
0.0036846811785224438

>  <r_i_glide_einternal>  (1) 
0.074796376986200785

>  <r_i_glide_emodel>  (1) 
-32.998970422372203

>  <r_i_glide_emodel_strain>  (1) 
0

>  <r_i_glide_energy>  (1) 
-23.275497590454517

>  <r_i_glide_erotb>  (1) 
0

>  <r_i_glide_esite>  (1) 
0

>  <r_i_glide_evdw>  (1) 
-19.501777858098848

>  <r_i_glide_gscore>  (1) 
-5.479441990635614

>  <r_i_glide_gscore_strain>  (1) 
0

>  <r_i_glide_hbond>  (1) 
-0.16305624914925673

>  <r_i_glide_ligand_efficiency>  (1) 
-0.45631310912142431

>  <r_i_glide_ligand_efficiency_ln>  (1) 
-1.5712780455081063

>  <r_i_glide_ligand_efficiency_sa>  (1) 
-1.0446962301501743

>  <r_i_glide_lipo>  (1) 
-1.1011708956384874

>  <r_i_glide_metal>  (1) 
-0

>  <r_i_glide_rewards>  (1) 
-2.6740679930895768

>  <r_lp_Energy>  (1) 
18.638769

>  <r_lp_tautomer_probability>  (1) 
0.99999998461580031

>  <s_epik_cmdline>  (1) 
J2VwaWtfcHl0aG9uJywgJy1waHQnLCAnMS4wJywgJy1waCcsICc3LjQnLCAnLXRuJywgJzgnLCAnLW1hJywgJzUwMCcsICctaW1hZScsICc8aW5maWxlLm1hZT4nLCAnLW9tYWUnLCAnPG91dGZpbGUubWFlPic=

>  <s_epik_input>  (1) 
TzFbQ0gyXVtDSDJdT2MoYzEyKWMoW09IXSljKFtPSF0pW2NIXVtjSF0y

>  <s_glide_docking_method>  (1) 
confgen

>  <s_i_glide_gridfile>  (1) 
gpcr_drd2_6luq_protein_autoprepared_prepared

>  <s_lp_Force_Field>  (1) 
S-OPLS

>  <s_lp_Variant>  (1) 
Pocket2Mol_81_num_sample_100-1

>  <s_m_source_file>  (1) 
generated__ligand_Pocket2Mol_2026-05-06_prepared.sdf

>  <GenAI_Model>  (1) 
Pocket2Mol

>  <Protein>  (1) 
generic_title2

$$$$
Pocket2Mol_43_num_sample_100
     RDKit          3D

  0  0  0  0  0  0  0  0  0  0999 V3000
M  V30 BEGIN CTAB
M  V30 COUNTS 16 17 0 0 1
M  V30 BEGIN ATOM
M  V30 1 C 9.867310 7.575773 -7.276955 0
M  V30 2 O 10.369697 8.905169 -6.784274 0
M  V30 3 C 11.034911 8.586102 -5.614651 0
M  V30 4 C 11.034778 7.289989 -5.340594 0
M  V30 5 C 11.607135 6.755495 -4.181131 0
M  V30 6 C 11.637954 9.516467 -4.756522 0
M  V30 7 C 12.252193 9.041235 -3.567003 0
M  V30 8 C 12.234839 7.646439 -3.275576 0
M  V30 9 N 10.401026 6.621381 -6.291444 0
M  V30 10 H 8.775779 7.536443 -7.272001 0
M  V30 11 H 10.264379 7.341857 -8.265267 0
M  V30 12 H 11.576147 5.697025 -3.984379 0
M  V30 13 H 11.627858 10.569315 -4.991781 0
M  V30 14 H 12.723485 9.733455 -2.884109 0
M  V30 15 H 12.692874 7.272022 -2.371877 0
M  V30 16 H 9.788663 5.872513 -5.997586 0
M  V30 END ATOM
M  V30 BEGIN BOND
M  V30 1 1 2 1
M  V30 2 1 3 2
M  V30 3 1 4 3
M  V30 4 2 5 4
M  V30 5 2 6 3
M  V30 6 1 7 6
M  V30 7 1 8 5
M  V30 8 2 8 7
M  V30 9 1 9 1
M  V30 10 1 9 4
M  V30 11 1 10 1
M  V30 12 1 11 1
M  V30 13 1 12 5
M  V30 14 1 13 6
M  V30 15 1 14 7
M  V30 16 1 15 8
M  V30 17 1 16 9
M  V30 END BOND
M  V30 END CTAB
M  END
>  <i_epik_Tot_Q>  (1) 
0

>  <i_epik_Tot_abs_Q>  (1) 
0

>  <i_i_glide_confnum>  (1) 
1

>  <i_i_glide_lignum>  (1) 
48

>  <i_i_glide_posenum>  (1) 
54

>  <i_i_glide_rotatable_bonds>  (1) 
0

>  <i_lp_mmshare_version>  (1) 
72125

>  <i_m_source_file_index>  (1) 
44

>  <i_f3d_flags>  (1) 
0

>  <num_sample>  (1) 
100

>  <b_lp_Chiralities_Consistent>  (1) 
1

>  <r_epik_Charging_Adjusted_Penalty>  (1) 
0

>  <r_epik_Ionization_Penalty>  (1) 
3.929707007381515e-06

>  <r_epik_Ionization_Penalty_Charging>  (1) 
0

>  <r_epik_Ionization_Penalty_Neutral>  (1) 
3.929707007381515e-06

>  <r_epik_State_Penalty>  (1) 
-0

>  <r_glide_ring_energy>  (1) 
0

>  <r_i_docking_score>  (1) 
-5.4693527351572273

>  <r_i_glide_ecoul>  (1) 
-1.9369989495149338

>  <r_i_glide_eff_state_penalty>  (1) 
-0

>  <r_i_glide_einternal>  (1) 
0

>  <r_i_glide_emodel>  (1) 
-28.01662872042915

>  <r_i_glide_emodel_strain>  (1) 
3.9581493638252141e-10

>  <r_i_glide_energy>  (1) 
-20.989685683310761

>  <r_i_glide_erotb>  (1) 
0

>  <r_i_glide_esite>  (1) 
-0.04918440187244396

>  <r_i_glide_evdw>  (1) 
-19.052686733795827

>  <r_i_glide_gscore>  (1) 
-5.4693527351572273

>  <r_i_glide_gscore_strain>  (1) 
0

>  <r_i_glide_hbond>  (1) 
0

>  <r_i_glide_ligand_efficiency>  (1) 
-0.60770585946191413

>  <r_i_glide_ligand_efficiency_ln>  (1) 
-1.7106564155446473

>  <r_i_glide_ligand_efficiency_sa>  (1) 
-1.2640791274405818

>  <r_i_glide_lipo>  (1) 
-1.7863728233030924

>  <r_i_glide_metal>  (1) 
-0

>  <r_i_glide_rewards>  (1) 
-2.3906113308646595

>  <r_lp_Energy>  (1) 
10.457737999999999

>  <r_lp_tautomer_probability>  (1) 
1

>  <s_epik_Chemistry_Notes>  (1) 
This compound contains an acetal/aminal-like group ( X-CH(R)-Y where X, Y are N, S, or O) that may be acid/base labile, releasing an aldehyde.

>  <s_epik_cmdline>  (1) 
J2VwaWtfcHl0aG9uJywgJy1waHQnLCAnMS4wJywgJy1waCcsICc3LjQnLCAnLXRuJywgJzgnLCAnLW1hJywgJzUwMCcsICctaW1hZScsICc8aW5maWxlLm1hZT4nLCAnLW9tYWUnLCAnPG91dGZpbGUubWFlPic=

>  <s_epik_input>  (1) 
TzFbQ0gyXVtOSF1jKGMxMilbY0hdW2NIXVtjSF1bY0hdMg==

>  <s_glide_docking_method>  (1) 
confgen

>  <s_i_glide_gridfile>  (1) 
gpcr_drd2_6luq_protein_autoprepared_prepared

>  <s_lp_Force_Field>  (1) 
S-OPLS

>  <s_lp_Variant>  (1) 
Pocket2Mol_43_num_sample_100-1

>  <s_m_source_file>  (1) 
generated__ligand_Pocket2Mol_2026-05-06_prepared.sdf

>  <GenAI_Model>  (1) 
Pocket2Mol

>  <Protein>  (1) 
generic_title2

$$$$
Pocket2Mol_90_num_sample_100
     RDKit          3D

  0  0  0  0  0  0  0  0  0  0999 V3000
M  V30 BEGIN CTAB
M  V30 COUNTS 23 24 0 0 1
M  V30 BEGIN ATOM
M  V30 1 C 11.807829 8.998820 -5.397224 0
M  V30 2 O 12.442765 9.369299 -6.680727 0
M  V30 3 C 11.764100 8.591547 -7.555629 0
M  V30 4 C 10.895275 7.718899 -7.009620 0
M  V30 5 C 10.107832 6.868414 -7.802385 0
M  V30 6 C 10.841220 7.736306 -5.549252 0
M  V30 7 C 11.932736 8.678061 -8.946459 0
M  V30 8 C 10.234839 6.925054 -9.209948 0
M  V30 9 N 9.407910 6.045551 -10.007657 0
M  V30 10 C 11.167887 7.844017 -9.788581 0
M  V30 11 C 9.422378 5.940398 -11.359969 0
M  V30 12 O 10.159893 6.569301 -12.108558 0
M  V30 13 N 8.533010 5.055431 -11.802263 0
M  V30 14 H 12.565022 8.827758 -4.631598 0
M  V30 15 H 11.224671 9.859538 -5.066151 0
M  V30 16 H 9.411729 6.181458 -7.342369 0
M  V30 17 H 9.834839 7.899567 -5.177843 0
M  V30 18 H 11.265934 6.821739 -5.133836 0
M  V30 19 H 12.634847 9.377513 -9.368904 0
M  V30 20 H 8.754128 5.468956 -9.502264 0
M  V30 21 H 11.298097 7.921555 -10.846469 0
M  V30 22 H 7.943200 4.561073 -11.151989 0
M  V30 23 H 8.450943 4.884986 -12.792521 0
M  V30 END ATOM
M  V30 BEGIN BOND
M  V30 1 1 2 1
M  V30 2 1 3 2
M  V30 3 2 4 3
M  V30 4 1 5 4
M  V30 5 1 6 1
M  V30 6 1 6 4
M  V30 7 1 7 3
M  V30 8 2 8 5
M  V30 9 1 9 8
M  V30 10 2 10 7
M  V30 11 1 10 8
M  V30 12 1 11 9
M  V30 13 2 12 11
M  V30 14 1 13 11
M  V30 15 1 14 1
M  V30 16 1 15 1
M  V30 17 1 16 5
M  V30 18 1 17 6
M  V30 19 1 18 6
M  V30 20 1 19 7
M  V30 21 1 20 9
M  V30 22 1 21 10
M  V30 23 1 22 13
M  V30 24 1 23 13
M  V30 END BOND
M  V30 END CTAB
M  END
>  <i_epik_Tot_Q>  (1) 
0

>  <i_epik_Tot_abs_Q>  (1) 
0

>  <i_i_glide_confnum>  (1) 
1

>  <i_i_glide_lignum>  (1) 
97

>  <i_i_glide_posenum>  (1) 
331

>  <i_i_glide_rotatable_bonds>  (1) 
2

>  <i_lp_mmshare_version>  (1) 
72125

>  <i_m_source_file_index>  (1) 
91

>  <i_f3d_flags>  (1) 
0

>  <num_sample>  (1) 
100

>  <b_lp_Chiralities_Consistent>  (1) 
1

>  <r_epik_Charging_Adjusted_Penalty>  (1) 
0

>  <r_epik_Ionization_Penalty>  (1) 
1.9038757045197726e-05

>  <r_epik_Ionization_Penalty_Charging>  (1) 
0

>  <r_epik_Ionization_Penalty_Neutral>  (1) 
1.9038757045197726e-05

>  <r_epik_State_Penalty>  (1) 
-0

>  <r_glide_ring_energy>  (1) 
0

>  <r_i_docking_score>  (1) 
-5.4692932418115427

>  <r_i_glide_ecoul>  (1) 
-1.2507266032241366

>  <r_i_glide_eff_state_penalty>  (1) 
-0

>  <r_i_glide_einternal>  (1) 
0.23658215969152785

>  <r_i_glide_emodel>  (1) 
-34.580100889230764

>  <r_i_glide_emodel_strain>  (1) 
0

>  <r_i_glide_energy>  (1) 
-25.057506600108741

>  <r_i_glide_erotb>  (1) 
0

>  <r_i_glide_esite>  (1) 
-0.094358842473087332

>  <r_i_glide_evdw>  (1) 
-23.806779996884604

>  <r_i_glide_gscore>  (1) 
-5.4692932418115427

>  <r_i_glide_gscore_strain>  (1) 
0

>  <r_i_glide_hbond>  (1) 
0

>  <r_i_glide_ligand_efficiency>  (1) 
-0.42071486475473407

>  <r_i_glide_ligand_efficiency_ln>  (1) 
-1.5341853960321097

>  <r_i_glide_ligand_efficiency_sa>  (1) 
-0.98924145513755346

>  <r_i_glide_lipo>  (1) 
-1.2926457214610287

>  <r_i_glide_metal>  (1) 
-0

>  <r_i_glide_rewards>  (1) 
-2.7043406875495766

>  <r_lp_Energy>  (1) 
13.450968999999999

>  <r_lp_tautomer_probability>  (1) 
1

>  <s_epik_cmdline>  (1) 
J2VwaWtfcHl0aG9uJywgJy1waHQnLCAnMS4wJywgJy1waCcsICc3LjQnLCAnLXRuJywgJzgnLCAnLW1hJywgJzUwMCcsICctaW1hZScsICc8aW5maWxlLm1hZT4nLCAnLW9tYWUnLCAnPG91dGZpbGUubWFlPic=

>  <s_epik_input>  (1) 
TzFbQ0gyXVtDSDJdYyhjMTIpW2NIXWMoW2NIXVtjSF0yKVtOSF1DKD1PKVtOSDJd

>  <s_glide_docking_method>  (1) 
confgen

>  <s_i_glide_gridfile>  (1) 
gpcr_drd2_6luq_protein_autoprepared_prepared

>  <s_lp_Force_Field>  (1) 
S-OPLS

>  <s_lp_Variant>  (1) 
Pocket2Mol_90_num_sample_100-1

>  <s_m_source_file>  (1) 
generated__ligand_Pocket2Mol_2026-05-06_prepared.sdf

>  <GenAI_Model>  (1) 
Pocket2Mol

>  <Protein>  (1) 
generic_title2

$$$$
Pocket2Mol_96_num_sample_100
     RDKit          3D

  0  0  0  0  0  0  0  0  0  0999 V3000
M  V30 BEGIN CTAB
M  V30 COUNTS 20 21 0 0 1
M  V30 BEGIN ATOM
M  V30 1 C 8.711485 6.304996 -11.277216 0
M  V30 2 O 9.262031 5.409609 -10.330677 0
M  V30 3 C 9.492735 7.614032 -11.281478 0
M  V30 4 O 10.782573 7.369381 -10.743934 0
M  V30 5 C 9.139655 5.627041 -9.012373 0
M  V30 6 C 10.838503 7.530506 -9.382117 0
M  V30 7 C 11.689960 8.517220 -8.845796 0
M  V30 8 O 8.392733 4.969343 -8.291724 0
M  V30 9 C 10.045668 6.724354 -8.501435 0
M  V30 10 C 11.754742 8.719019 -7.454957 0
M  V30 11 C 10.968497 7.939138 -6.588904 0
M  V30 12 F 11.034839 8.141167 -5.251846 0
M  V30 13 C 10.117527 6.946553 -7.107097 0
M  V30 14 H 8.791866 5.833623 -12.256799 0
M  V30 15 H 7.650807 6.476238 -11.091770 0
M  V30 16 H 9.586599 7.997497 -12.296599 0
M  V30 17 H 8.970205 8.382830 -10.708368 0
M  V30 18 H 12.292231 9.125248 -9.506538 0
M  V30 19 H 12.407071 9.477163 -7.050953 0
M  V30 20 H 9.522442 6.346529 -6.432877 0
M  V30 END ATOM
M  V30 BEGIN BOND
M  V30 1 1 2 1
M  V30 2 1 3 1
M  V30 3 1 4 3
M  V30 4 1 5 2
M  V30 5 1 6 4
M  V30 6 1 7 6
M  V30 7 2 8 5
M  V30 8 1 9 5
M  V30 9 2 9 6
M  V30 10 2 10 7
M  V30 11 1 11 10
M  V30 12 1 12 11
M  V30 13 1 13 9
M  V30 14 2 13 11
M  V30 15 1 14 1
M  V30 16 1 15 1
M  V30 17 1 16 3
M  V30 18 1 17 3
M  V30 19 1 18 7
M  V30 20 1 19 10
M  V30 21 1 20 13
M  V30 END BOND
M  V30 END CTAB
M  END
>  <i_epik_Tot_Q>  (1) 
0

>  <i_epik_Tot_abs_Q>  (1) 
0

>  <i_i_glide_confnum>  (1) 
6

>  <i_i_glide_lignum>  (1) 
105

>  <i_i_glide_posenum>  (1) 
358

>  <i_i_glide_rotatable_bonds>  (1) 
0

>  <i_lp_mmshare_version>  (1) 
72125

>  <i_m_source_file_index>  (1) 
97

>  <i_f3d_flags>  (1) 
0

>  <num_sample>  (1) 
100

>  <b_lp_Chiralities_Consistent>  (1) 
1

>  <r_epik_Charging_Adjusted_Penalty>  (1) 
0

>  <r_epik_Ionization_Penalty>  (1) 
0

>  <r_epik_Ionization_Penalty_Charging>  (1) 
0

>  <r_epik_Ionization_Penalty_Neutral>  (1) 
0

>  <r_epik_State_Penalty>  (1) 
-0

>  <r_glide_ring_energy>  (1) 
1.0398180339394281

>  <r_i_docking_score>  (1) 
-5.4681805665592869

>  <r_i_glide_ecoul>  (1) 
-2.058203837188513

>  <r_i_glide_eff_state_penalty>  (1) 
-0

>  <r_i_glide_einternal>  (1) 
0

>  <r_i_glide_emodel>  (1) 
-33.430186509401601

>  <r_i_glide_emodel_strain>  (1) 
0.74331069382612469

>  <r_i_glide_energy>  (1) 
-25.74826408213427

>  <r_i_glide_erotb>  (1) 
0

>  <r_i_glide_esite>  (1) 
-0.060764543189754196

>  <r_i_glide_evdw>  (1) 
-23.690060244945755

>  <r_i_glide_gscore>  (1) 
-5.4681805665592869

>  <r_i_glide_gscore_strain>  (1) 
0

>  <r_i_glide_hbond>  (1) 
0

>  <r_i_glide_ligand_efficiency>  (1) 
-0.4206292743507144

>  <r_i_glide_ligand_efficiency_ln>  (1) 
-1.5338732807281639

>  <r_i_glide_ligand_efficiency_sa>  (1) 
-0.98904020345164601

>  <r_i_glide_lipo>  (1) 
-0.87465491046985522

>  <r_i_glide_metal>  (1) 
-0

>  <r_i_glide_rewards>  (1) 
-3.0395275250741123

>  <r_lp_Energy>  (1) 
17.467690999999999

>  <r_lp_tautomer_probability>  (1) 
1

>  <s_epik_Chemistry_Notes>  (1) 
This compound has an ester and may undergo hydrolysis at high or low pH.

>  <s_epik_cmdline>  (1) 
J2VwaWtfcHl0aG9uJywgJy1waHQnLCAnMS4wJywgJy1waCcsICc3LjQnLCAnLXRuJywgJzgnLCAnLW1hJywgJzUwMCcsICctaW1hZScsICc8aW5maWxlLm1hZT4nLCAnLW9tYWUnLCAnPG91dGZpbGUubWFlPic=

>  <s_epik_input>  (1) 
TzFbQ0gyXVtDSDJdT0MoPU8pYyhjMTIpW2NIXWMoRilbY0hdW2NIXTI=

>  <s_glide_docking_method>  (1) 
confgen

>  <s_i_glide_gridfile>  (1) 
gpcr_drd2_6luq_protein_autoprepared_prepared

>  <s_lp_Force_Field>  (1) 
S-OPLS

>  <s_lp_Variant>  (1) 
Pocket2Mol_96_num_sample_100-1

>  <s_m_source_file>  (1) 
generated__ligand_Pocket2Mol_2026-05-06_prepared.sdf

>  <GenAI_Model>  (1) 
Pocket2Mol

>  <Protein>  (1) 
generic_title2

$$$$
Pocket2Mol_95_num_sample_100
     RDKit          3D

  0  0  0  0  0  0  0  0  0  0999 V3000
M  V30 BEGIN CTAB
M  V30 COUNTS 23 24 0 0 1
M  V30 BEGIN ATOM
M  V30 1 C 12.496517 9.769302 -5.391838 0
M  V30 2 O 13.074229 9.369301 -6.623207 0
M  V30 3 C 12.236504 8.709274 -7.491668 0
M  V30 4 C 11.653721 8.640858 -4.803065 0
M  V30 5 O 10.634815 8.292292 -5.717309 0
M  V30 6 C 11.009608 8.171544 -7.037372 0
M  V30 7 C 10.158938 7.513402 -7.937218 0
M  V30 8 O 8.984040 6.993419 -7.472596 0
M  V30 9 C 10.518257 7.409650 -9.306806 0
M  V30 10 O 9.674314 6.822707 -10.202013 0
M  V30 11 C 12.606757 8.569301 -8.842788 0
M  V30 12 C 11.746212 7.928741 -9.749128 0
M  V30 13 C 8.618312 5.671084 -7.839948 0
M  V30 14 H 11.888709 10.662622 -5.544174 0
M  V30 15 H 13.297652 10.019186 -4.698851 0
M  V30 16 H 11.196297 8.982791 -3.877069 0
M  V30 17 H 12.234839 7.754205 -4.559409 0
M  V30 18 H 8.771274 6.906283 -9.907628 0
M  V30 19 H 13.547018 8.969301 -9.186866 0
M  V30 20 H 12.025157 7.842353 -10.788495 0
M  V30 21 H 7.925760 5.295687 -7.091667 0
M  V30 22 H 8.068937 5.640396 -8.779588 0
M  V30 23 H 9.475636 4.998462 -7.891667 0
M  V30 END ATOM
M  V30 BEGIN BOND
M  V30 1 1 2 1
M  V30 2 1 3 2
M  V30 3 1 4 1
M  V30 4 1 5 4
M  V30 5 2 6 3
M  V30 6 1 6 5
M  V30 7 1 7 6
M  V30 8 1 8 7
M  V30 9 2 9 7
M  V30 10 1 10 9
M  V30 11 1 11 3
M  V30 12 1 12 9
M  V30 13 2 12 11
M  V30 14 1 13 8
M  V30 15 1 14 1
M  V30 16 1 15 1
M  V30 17 1 16 4
M  V30 18 1 17 4
M  V30 19 1 18 10
M  V30 20 1 19 11
M  V30 21 1 20 12
M  V30 22 1 21 13
M  V30 23 1 22 13
M  V30 24 1 23 13
M  V30 END BOND
M  V30 END CTAB
M  END
>  <i_epik_Tot_Q>  (1) 
0

>  <i_epik_Tot_abs_Q>  (1) 
0

>  <i_i_glide_confnum>  (1) 
2

>  <i_i_glide_lignum>  (1) 
104

>  <i_i_glide_posenum>  (1) 
150

>  <i_i_glide_rotatable_bonds>  (1) 
2

>  <i_lp_mmshare_version>  (1) 
72125

>  <i_m_source_file_index>  (1) 
96

>  <i_f3d_flags>  (1) 
0

>  <num_sample>  (1) 
100

>  <b_lp_Chiralities_Consistent>  (1) 
1

>  <r_epik_Charging_Adjusted_Penalty>  (1) 
0

>  <r_epik_Ionization_Penalty>  (1) 
0.0014130578134093086

>  <r_epik_Ionization_Penalty_Charging>  (1) 
0

>  <r_epik_Ionization_Penalty_Neutral>  (1) 
0.0014130578134093086

>  <r_epik_State_Penalty>  (1) 
-0

>  <r_glide_ring_energy>  (1) 
0.003085301398031638

>  <r_i_docking_score>  (1) 
-5.4485099932486243

>  <r_i_glide_ecoul>  (1) 
-2.3738606730566607

>  <r_i_glide_eff_state_penalty>  (1) 
-0

>  <r_i_glide_einternal>  (1) 
1.0977905364422487

>  <r_i_glide_emodel>  (1) 
-28.579825418642713

>  <r_i_glide_emodel_strain>  (1) 
0.30057513777972744

>  <r_i_glide_energy>  (1) 
-21.914018109149335

>  <r_i_glide_erotb>  (1) 
0

>  <r_i_glide_esite>  (1) 
0

>  <r_i_glide_evdw>  (1) 
-19.540157436092674

>  <r_i_glide_gscore>  (1) 
-5.4485099932486243

>  <r_i_glide_gscore_strain>  (1) 
0

>  <r_i_glide_hbond>  (1) 
0

>  <r_i_glide_ligand_efficiency>  (1) 
-0.41911615332681723

>  <r_i_glide_ligand_efficiency_ln>  (1) 
-1.5283555099723207

>  <r_i_glide_ligand_efficiency_sa>  (1) 
-0.98548234950143709

>  <r_i_glide_lipo>  (1) 
-1.4833568679021549

>  <r_i_glide_metal>  (1) 
-0

>  <r_i_glide_rewards>  (1) 
-2.6320661525833353

>  <r_lp_Energy>  (1) 
25.525124999999999

>  <r_lp_tautomer_probability>  (1) 
1

>  <s_epik_cmdline>  (1) 
J2VwaWtfcHl0aG9uJywgJy1waHQnLCAnMS4wJywgJy1waCcsICc3LjQnLCAnLXRuJywgJzgnLCAnLW1hJywgJzUwMCcsICctaW1hZScsICc8aW5maWxlLm1hZT4nLCAnLW9tYWUnLCAnPG91dGZpbGUubWFlPic=

>  <s_epik_input>  (1) 
TzFbQ0gyXVtDSDJdT2MoYzEyKWMoT1tDSDNdKWMoW09IXSlbY0hdW2NIXTI=

>  <s_glide_docking_method>  (1) 
confgen

>  <s_i_glide_gridfile>  (1) 
gpcr_drd2_6luq_protein_autoprepared_prepared

>  <s_lp_Force_Field>  (1) 
S-OPLS

>  <s_lp_Variant>  (1) 
Pocket2Mol_95_num_sample_100-1

>  <s_m_source_file>  (1) 
generated__ligand_Pocket2Mol_2026-05-06_prepared.sdf

>  <GenAI_Model>  (1) 
Pocket2Mol

>  <Protein>  (1) 
generic_title2

$$$$
Pocket2Mol_46_num_sample_100
     RDKit          3D

  0  0  0  0  0  0  0  0  0  0999 V3000
M  V30 BEGIN CTAB
M  V30 COUNTS 18 19 0 0 1
M  V30 BEGIN ATOM
M  V30 1 C 10.187771 6.987365 -9.238431 0
M  V30 2 O 10.597107 6.351762 -8.038295 0
M  V30 3 C 11.011633 7.212645 -7.049518 0
M  V30 4 C 11.023572 6.780366 -5.711996 0
M  V30 5 C 11.290379 7.958993 -9.665159 0
M  V30 6 C 11.427444 8.533856 -7.368766 0
M  V30 7 O 11.434819 8.969301 -8.676185 0
M  V30 8 C 11.434839 7.655272 -4.691652 0
M  V30 9 C 11.832987 9.407276 -6.339738 0
M  V30 10 C 11.834839 8.969304 -5.002817 0
M  V30 11 H 10.017543 6.231675 -10.005080 0
M  V30 12 H 9.244107 7.510014 -9.080576 0
M  V30 13 H 10.712239 5.775655 -5.467255 0
M  V30 14 H 12.237620 7.436689 -9.805117 0
M  V30 15 H 11.034579 8.428313 -10.614696 0
M  V30 16 H 11.440694 7.318904 -3.665331 0
M  V30 17 H 12.143285 10.412984 -6.577115 0
M  V30 18 H 12.147173 9.639542 -4.215339 0
M  V30 END ATOM
M  V30 BEGIN BOND
M  V30 1 1 2 1
M  V30 2 1 3 2
M  V30 3 2 4 3
M  V30 4 1 5 1
M  V30 5 1 6 3
M  V30 6 1 7 5
M  V30 7 1 7 6
M  V30 8 1 8 4
M  V30 9 2 9 6
M  V30 10 2 10 8
M  V30 11 1 10 9
M  V30 12 1 11 1
M  V30 13 1 12 1
M  V30 14 1 13 4
M  V30 15 1 14 5
M  V30 16 1 15 5
M  V30 17 1 16 8
M  V30 18 1 17 9
M  V30 19 1 18 10
M  V30 END BOND
M  V30 END CTAB
M  END
>  <i_epik_Tot_Q>  (1) 
0

>  <i_epik_Tot_abs_Q>  (1) 
0

>  <i_i_glide_confnum>  (1) 
2

>  <i_i_glide_lignum>  (1) 
52

>  <i_i_glide_posenum>  (1) 
366

>  <i_i_glide_rotatable_bonds>  (1) 
0

>  <i_lp_mmshare_version>  (1) 
72125

>  <i_m_source_file_index>  (1) 
47

>  <i_f3d_flags>  (1) 
0

>  <num_sample>  (1) 
100

>  <b_lp_Chiralities_Consistent>  (1) 
1

>  <r_epik_Charging_Adjusted_Penalty>  (1) 
0

>  <r_epik_Ionization_Penalty>  (1) 
0

>  <r_epik_Ionization_Penalty_Charging>  (1) 
0

>  <r_epik_Ionization_Penalty_Neutral>  (1) 
0

>  <r_epik_State_Penalty>  (1) 
-0

>  <r_glide_ring_energy>  (1) 
0.0030885007139812575

>  <r_i_docking_score>  (1) 
-5.4430932178976565

>  <r_i_glide_ecoul>  (1) 
-0.37842550344608383

>  <r_i_glide_eff_state_penalty>  (1) 
-0

>  <r_i_glide_einternal>  (1) 
0

>  <r_i_glide_emodel>  (1) 
-26.200390381604631

>  <r_i_glide_emodel_strain>  (1) 
0

>  <r_i_glide_energy>  (1) 
-18.87411035227241

>  <r_i_glide_erotb>  (1) 
0

>  <r_i_glide_esite>  (1) 
0

>  <r_i_glide_evdw>  (1) 
-18.495684848826325

>  <r_i_glide_gscore>  (1) 
-5.4430932178976565

>  <r_i_glide_gscore_strain>  (1) 
0

>  <r_i_glide_hbond>  (1) 
0

>  <r_i_glide_ligand_efficiency>  (1) 
-0.54430932178976565

>  <r_i_glide_ligand_efficiency_ln>  (1) 
-1.6481311047652905

>  <r_i_glide_ligand_efficiency_sa>  (1) 
-1.1726788849715988

>  <r_i_glide_lipo>  (1) 
-1.6408354444084066

>  <r_i_glide_metal>  (1) 
-0

>  <r_i_glide_rewards>  (1) 
-2.8207097055310211

>  <r_lp_Energy>  (1) 
16.729797999999999

>  <r_lp_tautomer_probability>  (1) 
1

>  <s_epik_cmdline>  (1) 
J2VwaWtfcHl0aG9uJywgJy1waHQnLCAnMS4wJywgJy1waCcsICc3LjQnLCAnLXRuJywgJzgnLCAnLW1hJywgJzUwMCcsICctaW1hZScsICc8aW5maWxlLm1hZT4nLCAnLW9tYWUnLCAnPG91dGZpbGUubWFlPic=

>  <s_epik_input>  (1) 
TzFbQ0gyXVtDSDJdT2MoYzEyKVtjSF1bY0hdW2NIXVtjSF0y

>  <s_glide_docking_method>  (1) 
confgen

>  <s_i_glide_gridfile>  (1) 
gpcr_drd2_6luq_protein_autoprepared_prepared

>  <s_lp_Force_Field>  (1) 
S-OPLS

>  <s_lp_Variant>  (1) 
Pocket2Mol_46_num_sample_100-1

>  <s_m_source_file>  (1) 
generated__ligand_Pocket2Mol_2026-05-06_prepared.sdf

>  <GenAI_Model>  (1) 
Pocket2Mol

>  <Protein>  (1) 
generic_title2

$$$$
Pocket2Mol_71_num_sample_100
     RDKit          3D

  0  0  0  0  0  0  0  0  0  0999 V3000
M  V30 BEGIN CTAB
M  V30 COUNTS 16 17 0 0 1
M  V30 BEGIN ATOM
M  V30 1 C 10.199511 6.969330 -10.963880 0
M  V30 2 O 11.122400 7.769294 -10.360928 0
M  V30 3 C 11.077599 7.772996 -8.962380 0
M  V30 4 C 10.220703 6.846673 -8.240688 0
M  V30 5 C 10.217726 6.916503 -6.828116 0
M  V30 6 C 11.868871 8.693008 -8.261955 0
M  V30 7 C 11.834825 8.740111 -6.862051 0
M  V30 8 N 9.435901 5.945167 -8.888160 0 CHG=-1
M  V30 9 C 9.434683 6.132091 -10.212706 0
M  V30 10 F 12.598467 9.640878 -6.196991 0
M  V30 11 C 11.015026 7.855360 -6.147588 0
M  V30 12 H 10.159284 7.082571 -12.036334 0
M  V30 13 H 9.589498 6.242445 -6.262516 0
M  V30 14 H 12.504068 9.369287 -8.807403 0
M  V30 15 H 8.702171 5.508718 -10.768382 0
M  V30 16 H 10.995106 7.894276 -5.069276 0
M  V30 END ATOM
M  V30 BEGIN BOND
M  V30 1 1 2 1
M  V30 2 1 3 2
M  V30 3 2 4 3
M  V30 4 1 5 4
M  V30 5 1 6 3
M  V30 6 2 7 6
M  V30 7 1 8 4
M  V30 8 2 9 1
M  V30 9 1 9 8
M  V30 10 1 10 7
M  V30 11 2 11 5
M  V30 12 1 11 7
M  V30 13 1 12 1
M  V30 14 1 13 5
M  V30 15 1 14 6
M  V30 16 1 15 9
M  V30 17 1 16 11
M  V30 END BOND
M  V30 END CTAB
M  END
>  <i_epik_Tot_Q>  (1) 
-1

>  <i_epik_Tot_abs_Q>  (1) 
1

>  <i_i_glide_confnum>  (1) 
1

>  <i_i_glide_lignum>  (1) 
78

>  <i_i_glide_posenum>  (1) 
49

>  <i_i_glide_rotatable_bonds>  (1) 
0

>  <i_lp_mmshare_version>  (1) 
72125

>  <i_m_source_file_index>  (1) 
72

>  <i_f3d_flags>  (1) 
0

>  <num_sample>  (1) 
100

>  <b_lp_Chiralities_Consistent>  (1) 
1

>  <r_epik_Charging_Adjusted_Penalty>  (1) 
0.017639978051431922

>  <r_epik_Ionization_Penalty>  (1) 
0.017639978051431908

>  <r_epik_Ionization_Penalty_Charging>  (1) 
0

>  <r_epik_Ionization_Penalty_Neutral>  (1) 
0.017639978051431908

>  <r_epik_State_Penalty>  (1) 
0.017639978051431922

>  <r_glide_ring_energy>  (1) 
0

>  <r_i_docking_score>  (1) 
-5.4416069415364001

>  <r_i_glide_ecoul>  (1) 
-1.3741900322867591

>  <r_i_glide_eff_state_penalty>  (1) 
0.017639978051431922

>  <r_i_glide_einternal>  (1) 
0

>  <r_i_glide_emodel>  (1) 
-26.677521841707765

>  <r_i_glide_emodel_strain>  (1) 
0

>  <r_i_glide_energy>  (1) 
-18.968680610346414

>  <r_i_glide_erotb>  (1) 
0

>  <r_i_glide_esite>  (1) 
0

>  <r_i_glide_evdw>  (1) 
-17.594490578059656

>  <r_i_glide_gscore>  (1) 
-5.4592469195878319

>  <r_i_glide_gscore_strain>  (1) 
0

>  <r_i_glide_hbond>  (1) 
0

>  <r_i_glide_ligand_efficiency>  (1) 
-0.49469154013967276

>  <r_i_glide_ligand_efficiency_ln>  (1) 
-1.6014639959915276

>  <r_i_glide_ligand_efficiency_sa>  (1) 
-1.1001841362437037

>  <r_i_glide_lipo>  (1) 
-1.0564599211724359

>  <r_i_glide_metal>  (1) 
-0

>  <r_i_glide_rewards>  (1) 
-3.3169339646693992

>  <r_lp_Energy>  (1) 
25.3598

>  <s_epik_Chemistry_Notes>  (1) 
This compound has an imine and may undergo hydrolysis.

>  <s_epik_cmdline>  (1) 
J2VwaWtfcHl0aG9uJywgJy1waHQnLCAnMS4wJywgJy1waCcsICc3LjQnLCAnLXRuJywgJzgnLCAnLW1hJywgJzUwMCcsICctaW1hZScsICc8aW5maWxlLm1hZT4nLCAnLW9tYWUnLCAnPG91dGZpbGUubWFlPic=

>  <s_epik_input>  (1) 
TzFbQ0gyXVtDSF09TmMoYzEyKVtjSF1bY0hdYyhGKVtjSF0y

>  <s_glide_docking_method>  (1) 
confgen

>  <s_i_glide_gridfile>  (1) 
gpcr_drd2_6luq_protein_autoprepared_prepared

>  <s_lp_Force_Field>  (1) 
S-OPLS

>  <s_lp_Variant>  (1) 
Pocket2Mol_71_num_sample_100-1

>  <s_m_source_file>  (1) 
generated__ligand_Pocket2Mol_2026-05-06_prepared.sdf

>  <GenAI_Model>  (1) 
Pocket2Mol

>  <Protein>  (1) 
generic_title2

$$$$
Pocket2Mol_29_num_sample_100
     RDKit          3D

  0  0  0  0  0  0  0  0  0  0999 V3000
M  V30 BEGIN CTAB
M  V30 COUNTS 18 18 0 0 1
M  V30 BEGIN ATOM
M  V30 1 C 10.954721 6.706704 -6.097611 0
M  V30 2 O 9.706436 6.371841 -6.683257 0
M  V30 3 C 9.636555 6.559798 -8.087451 0
M  V30 4 C 9.835051 8.026134 -8.507505 0
M  V30 5 O 9.434871 8.115148 -9.862164 0
M  V30 6 C 11.044614 8.232940 -5.926214 0
M  V30 7 C 11.288742 8.517166 -8.341486 0
M  V30 8 O 11.644862 8.923926 -7.019535 0
M  V30 9 H 10.959543 6.250787 -5.105506 0
M  V30 10 H 11.801108 6.278937 -6.640267 0
M  V30 11 H 8.639446 6.239349 -8.396621 0
M  V30 12 H 10.353788 5.912549 -8.598317 0
M  V30 13 H 9.158285 8.673770 -7.949624 0
M  V30 14 H 8.473338 7.959229 -9.891658 0
M  V30 15 H 10.059872 8.652383 -5.721300 0
M  V30 16 H 11.648747 8.456170 -5.047793 0
M  V30 17 H 11.989544 7.753354 -8.679079 0
M  V30 18 H 11.456210 9.386630 -8.980770 0
M  V30 END ATOM
M  V30 BEGIN BOND
M  V30 1 1 2 1
M  V30 2 1 3 2
M  V30 3 1 4 3
M  V30 4 1 5 4
M  V30 5 1 6 1
M  V30 6 1 7 4
M  V30 7 1 8 6
M  V30 8 1 8 7
M  V30 9 1 9 1
M  V30 10 1 10 1
M  V30 11 1 11 3
M  V30 12 1 12 3
M  V30 13 1 13 4
M  V30 14 1 14 5
M  V30 15 1 15 6
M  V30 16 1 16 6
M  V30 17 1 17 7
M  V30 18 1 18 7
M  V30 END BOND
M  V30 END CTAB
M  END
>  <i_epik_Tot_Q>  (1) 
0

>  <i_epik_Tot_abs_Q>  (1) 
0

>  <i_i_glide_confnum>  (1) 
4

>  <i_i_glide_lignum>  (1) 
33

>  <i_i_glide_posenum>  (1) 
62

>  <i_i_glide_rotatable_bonds>  (1) 
1

>  <i_lp_mmshare_version>  (1) 
72125

>  <i_m_source_file_index>  (1) 
30

>  <i_f3d_flags>  (1) 
0

>  <num_sample>  (1) 
100

>  <b_lp_Chiralities_Consistent>  (1) 
1

>  <r_epik_Charging_Adjusted_Penalty>  (1) 
0

>  <r_epik_Ionization_Penalty>  (1) 
1.4561355789117501e-07

>  <r_epik_Ionization_Penalty_Charging>  (1) 
0

>  <r_epik_Ionization_Penalty_Neutral>  (1) 
1.4561355789117501e-07

>  <r_epik_State_Penalty>  (1) 
-0

>  <r_glide_ring_energy>  (1) 
0.067246547245782246

>  <r_i_docking_score>  (1) 
-5.4281344588461673

>  <r_i_glide_ecoul>  (1) 
-6.9556067529134031

>  <r_i_glide_eff_state_penalty>  (1) 
-0

>  <r_i_glide_einternal>  (1) 
0.33361335579820928

>  <r_i_glide_emodel>  (1) 
-29.791691006774897

>  <r_i_glide_emodel_strain>  (1) 
0

>  <r_i_glide_energy>  (1) 
-22.162340585598024

>  <r_i_glide_erotb>  (1) 
0

>  <r_i_glide_esite>  (1) 
0

>  <r_i_glide_evdw>  (1) 
-15.206733832684622

>  <r_i_glide_gscore>  (1) 
-5.4281344588461673

>  <r_i_glide_gscore_strain>  (1) 
0

>  <r_i_glide_hbond>  (1) 
-0.16

>  <r_i_glide_ligand_efficiency>  (1) 
-0.67851680735577091

>  <r_i_glide_ligand_efficiency_ln>  (1) 
-1.7627009265729134

>  <r_i_glide_ligand_efficiency_sa>  (1) 
-1.357033614711542

>  <r_i_glide_lipo>  (1) 
-0.7778534799397735

>  <r_i_glide_metal>  (1) 
-0

>  <r_i_glide_rewards>  (1) 
-2.6866032743351518

>  <r_lp_Energy>  (1) 
13.809562999999999

>  <r_lp_tautomer_probability>  (1) 
1

>  <s_epik_cmdline>  (1) 
J2VwaWtfcHl0aG9uJywgJy1waHQnLCAnMS4wJywgJy1waCcsICc3LjQnLCAnLXRuJywgJzgnLCAnLW1hJywgJzUwMCcsICctaW1hZScsICc8aW5maWxlLm1hZT4nLCAnLW9tYWUnLCAnPG91dGZpbGUubWFlPic=

>  <s_epik_input>  (1) 
W0NIMl0xT1tDSDJdW0NIMl1PW0NIMl1bQ0hdMVtPSF0=

>  <s_glide_docking_method>  (1) 
confgen

>  <s_i_glide_gridfile>  (1) 
gpcr_drd2_6luq_protein_autoprepared_prepared

>  <s_lp_Force_Field>  (1) 
S-OPLS

>  <s_lp_Variant>  (1) 
Pocket2Mol_29_num_sample_100-1

>  <s_m_source_file>  (1) 
generated__ligand_Pocket2Mol_2026-05-06_prepared.sdf

>  <GenAI_Model>  (1) 
Pocket2Mol

>  <Protein>  (1) 
generic_title2

$$$$
Pocket2Mol_95_num_sample_100
     RDKit          3D

  0  0  0  0  0  0  0  0  0  0999 V3000
M  V30 BEGIN CTAB
M  V30 COUNTS 23 24 0 0 1
M  V30 BEGIN ATOM
M  V30 1 C 8.635835 6.444411 -6.734703 0
M  V30 2 O 9.975609 6.695814 -6.415071 0
M  V30 3 C 10.696591 7.181810 -7.474660 0
M  V30 4 C 8.570942 5.521475 -7.954822 0
M  V30 5 O 9.181379 6.147186 -9.068324 0
M  V30 6 C 10.302911 6.903060 -8.813346 0
M  V30 7 C 11.079851 7.397526 -9.888911 0
M  V30 8 O 10.715510 7.147252 -11.194069 0
M  V30 9 C 12.251565 8.134988 -9.621066 0
M  V30 10 O 13.034512 8.569360 -10.646452 0
M  V30 11 C 11.834840 7.951966 -7.228970 0
M  V30 12 C 12.620427 8.416697 -8.295371 0
M  V30 13 C 9.383675 7.499120 -11.550725 0
M  V30 14 H 8.234840 7.434889 -6.923521 0
M  V30 15 H 8.116767 5.994999 -5.892634 0
M  V30 16 H 7.534441 5.303220 -8.209397 0
M  V30 17 H 9.063019 4.569358 -7.761790 0
M  V30 18 H 13.645816 9.243833 -10.370406 0
M  V30 19 H 12.122834 8.172786 -6.214053 0
M  V30 20 H 13.515300 8.982276 -8.094383 0
M  V30 21 H 9.362383 7.818784 -12.591677 0
M  V30 22 H 8.712150 6.645533 -11.459293 0
M  V30 23 H 8.994531 8.321740 -10.947968 0
M  V30 END ATOM
M  V30 BEGIN BOND
M  V30 1 1 2 1
M  V30 2 1 3 2
M  V30 3 1 4 1
M  V30 4 1 5 4
M  V30 5 2 6 3
M  V30 6 1 6 5
M  V30 7 1 7 6
M  V30 8 1 8 7
M  V30 9 2 9 7
M  V30 10 1 10 9
M  V30 11 1 11 3
M  V30 12 1 12 9
M  V30 13 2 12 11
M  V30 14 1 13 8
M  V30 15 1 14 1
M  V30 16 1 15 1
M  V30 17 1 16 4
M  V30 18 1 17 4
M  V30 19 1 18 10
M  V30 20 1 19 11
M  V30 21 1 20 12
M  V30 22 1 21 13
M  V30 23 1 22 13
M  V30 24 1 23 13
M  V30 END BOND
M  V30 END CTAB
M  END
>  <i_epik_Tot_Q>  (1) 
0

>  <i_epik_Tot_abs_Q>  (1) 
0

>  <i_i_glide_confnum>  (1) 
2

>  <i_i_glide_lignum>  (1) 
104

>  <i_i_glide_posenum>  (1) 
346

>  <i_i_glide_rotatable_bonds>  (1) 
2

>  <i_lp_mmshare_version>  (1) 
72125

>  <i_m_source_file_index>  (1) 
96

>  <i_f3d_flags>  (1) 
0

>  <num_sample>  (1) 
100

>  <b_lp_Chiralities_Consistent>  (1) 
1

>  <r_epik_Charging_Adjusted_Penalty>  (1) 
0

>  <r_epik_Ionization_Penalty>  (1) 
0.0014130578134093086

>  <r_epik_Ionization_Penalty_Charging>  (1) 
0

>  <r_epik_Ionization_Penalty_Neutral>  (1) 
0.0014130578134093086

>  <r_epik_State_Penalty>  (1) 
-0

>  <r_glide_ring_energy>  (1) 
0.003085301398031638

>  <r_i_docking_score>  (1) 
-5.425673413501614

>  <r_i_glide_ecoul>  (1) 
-4.6348410413367684

>  <r_i_glide_eff_state_penalty>  (1) 
-0

>  <r_i_glide_einternal>  (1) 
0.38861926372494882

>  <r_i_glide_emodel>  (1) 
-29.13627611375129

>  <r_i_glide_emodel_strain>  (1) 
0.0023781148197308255

>  <r_i_glide_energy>  (1) 
-21.849185259207843

>  <r_i_glide_erotb>  (1) 
0

>  <r_i_glide_esite>  (1) 
0

>  <r_i_glide_evdw>  (1) 
-17.214344217871076

>  <r_i_glide_gscore>  (1) 
-5.425673413501614

>  <r_i_glide_gscore_strain>  (1) 
0

>  <r_i_glide_hbond>  (1) 
-0.32000000000000001

>  <r_i_glide_ligand_efficiency>  (1) 
-0.41735949334627798

>  <r_i_glide_ligand_efficiency_ln>  (1) 
-1.5219496462538888

>  <r_i_glide_ligand_efficiency_sa>  (1) 
-0.98135185395466429

>  <r_i_glide_lipo>  (1) 
-0.80775947822572691

>  <r_i_glide_metal>  (1) 
-0

>  <r_i_glide_rewards>  (1) 
-2.7419705681818187

>  <r_lp_Energy>  (1) 
25.525124999999999

>  <r_lp_tautomer_probability>  (1) 
1

>  <s_epik_cmdline>  (1) 
J2VwaWtfcHl0aG9uJywgJy1waHQnLCAnMS4wJywgJy1waCcsICc3LjQnLCAnLXRuJywgJzgnLCAnLW1hJywgJzUwMCcsICctaW1hZScsICc8aW5maWxlLm1hZT4nLCAnLW9tYWUnLCAnPG91dGZpbGUubWFlPic=

>  <s_epik_input>  (1) 
TzFbQ0gyXVtDSDJdT2MoYzEyKWMoT1tDSDNdKWMoW09IXSlbY0hdW2NIXTI=

>  <s_glide_docking_method>  (1) 
confgen

>  <s_i_glide_gridfile>  (1) 
gpcr_drd2_6luq_protein_autoprepared_prepared

>  <s_lp_Force_Field>  (1) 
S-OPLS

>  <s_lp_Variant>  (1) 
Pocket2Mol_95_num_sample_100-1

>  <s_m_source_file>  (1) 
generated__ligand_Pocket2Mol_2026-05-06_prepared.sdf

>  <GenAI_Model>  (1) 
Pocket2Mol

>  <Protein>  (1) 
generic_title2

$$$$
Pocket2Mol_43_num_sample_100
     RDKit          3D

  0  0  0  0  0  0  0  0  0  0999 V3000
M  V30 BEGIN CTAB
M  V30 COUNTS 16 17 0 0 1
M  V30 BEGIN ATOM
M  V30 1 C 11.167041 8.969301 -6.635376 0
M  V30 2 O 11.025628 7.560302 -6.139648 0
M  V30 3 C 11.434840 7.639787 -4.821317 0
M  V30 4 C 11.824279 8.854948 -4.455944 0
M  V30 5 C 12.234839 9.164256 -3.154340 0
M  V30 6 C 11.434841 6.569301 -3.919164 0
M  V30 7 C 11.856443 6.807708 -2.584780 0
M  V30 8 C 12.256471 8.120661 -2.198031 0
M  V30 9 N 11.729005 9.690920 -5.479162 0
M  V30 10 H 11.854986 9.028278 -7.479386 0
M  V30 11 H 10.185146 9.368294 -6.885990 0
M  V30 12 H 12.530733 10.166897 -2.886294 0
M  V30 13 H 11.114817 5.588576 -4.231271 0
M  V30 14 H 11.865121 6.000755 -1.865553 0
M  V30 15 H 12.571501 8.318395 -1.184105 0
M  V30 16 H 11.362464 10.612417 -5.288970 0
M  V30 END ATOM
M  V30 BEGIN BOND
M  V30 1 1 2 1
M  V30 2 1 3 2
M  V30 3 1 4 3
M  V30 4 2 5 4
M  V30 5 2 6 3
M  V30 6 1 7 6
M  V30 7 1 8 5
M  V30 8 2 8 7
M  V30 9 1 9 1
M  V30 10 1 9 4
M  V30 11 1 10 1
M  V30 12 1 11 1
M  V30 13 1 12 5
M  V30 14 1 13 6
M  V30 15 1 14 7
M  V30 16 1 15 8
M  V30 17 1 16 9
M  V30 END BOND
M  V30 END CTAB
M  END
>  <i_epik_Tot_Q>  (1) 
0

>  <i_epik_Tot_abs_Q>  (1) 
0

>  <i_i_glide_confnum>  (1) 
1

>  <i_i_glide_lignum>  (1) 
48

>  <i_i_glide_posenum>  (1) 
1

>  <i_i_glide_rotatable_bonds>  (1) 
0

>  <i_lp_mmshare_version>  (1) 
72125

>  <i_m_source_file_index>  (1) 
44

>  <i_f3d_flags>  (1) 
0

>  <num_sample>  (1) 
100

>  <b_lp_Chiralities_Consistent>  (1) 
1

>  <r_epik_Charging_Adjusted_Penalty>  (1) 
0

>  <r_epik_Ionization_Penalty>  (1) 
3.929707007381515e-06

>  <r_epik_Ionization_Penalty_Charging>  (1) 
0

>  <r_epik_Ionization_Penalty_Neutral>  (1) 
3.929707007381515e-06

>  <r_epik_State_Penalty>  (1) 
-0

>  <r_glide_ring_energy>  (1) 
0

>  <r_i_docking_score>  (1) 
-5.4198130036658405

>  <r_i_glide_ecoul>  (1) 
-0.50402989405224319

>  <r_i_glide_eff_state_penalty>  (1) 
-0

>  <r_i_glide_einternal>  (1) 
0

>  <r_i_glide_emodel>  (1) 
-26.398046614380789

>  <r_i_glide_emodel_strain>  (1) 
0

>  <r_i_glide_energy>  (1) 
-19.43475148698327

>  <r_i_glide_erotb>  (1) 
0

>  <r_i_glide_esite>  (1) 
0

>  <r_i_glide_evdw>  (1) 
-18.930721592931025

>  <r_i_glide_gscore>  (1) 
-5.4198130036658405

>  <r_i_glide_gscore_strain>  (1) 
0

>  <r_i_glide_hbond>  (1) 
0

>  <r_i_glide_ligand_efficiency>  (1) 
-0.60220144485176008

>  <r_i_glide_ligand_efficiency_ln>  (1) 
-1.6951618106793673

>  <r_i_glide_ligand_efficiency_sa>  (1) 
-1.2526294836546297

>  <r_i_glide_lipo>  (1) 
-1.5887949727858592

>  <r_i_glide_metal>  (1) 
-0

>  <r_i_glide_rewards>  (1) 
-2.8088774671255941

>  <r_lp_Energy>  (1) 
10.457737999999999

>  <r_lp_tautomer_probability>  (1) 
1

>  <s_epik_Chemistry_Notes>  (1) 
This compound contains an acetal/aminal-like group ( X-CH(R)-Y where X, Y are N, S, or O) that may be acid/base labile, releasing an aldehyde.

>  <s_epik_cmdline>  (1) 
J2VwaWtfcHl0aG9uJywgJy1waHQnLCAnMS4wJywgJy1waCcsICc3LjQnLCAnLXRuJywgJzgnLCAnLW1hJywgJzUwMCcsICctaW1hZScsICc8aW5maWxlLm1hZT4nLCAnLW9tYWUnLCAnPG91dGZpbGUubWFlPic=

>  <s_epik_input>  (1) 
TzFbQ0gyXVtOSF1jKGMxMilbY0hdW2NIXVtjSF1bY0hdMg==

>  <s_glide_docking_method>  (1) 
confgen

>  <s_i_glide_gridfile>  (1) 
gpcr_drd2_6luq_protein_autoprepared_prepared

>  <s_lp_Force_Field>  (1) 
S-OPLS

>  <s_lp_Variant>  (1) 
Pocket2Mol_43_num_sample_100-1

>  <s_m_source_file>  (1) 
generated__ligand_Pocket2Mol_2026-05-06_prepared.sdf

>  <GenAI_Model>  (1) 
Pocket2Mol

>  <Protein>  (1) 
generic_title2

$$$$
Pocket2Mol_63_num_sample_100
     RDKit          3D

  0  0  0  0  0  0  0  0  0  0999 V3000
M  V30 BEGIN CTAB
M  V30 COUNTS 19 20 0 0 1
M  V30 BEGIN ATOM
M  V30 1 C 10.682384 7.705570 -10.553001 0
M  V30 2 O 9.906583 6.870627 -9.775264 0
M  V30 3 C 10.199584 7.154886 -8.463988 0
M  V30 4 C 11.165387 8.169779 -8.411852 0
M  V30 5 C 11.584749 8.592037 -7.124182 0
M  V30 6 C 11.035218 7.994269 -5.949202 0
M  V30 7 O 11.434839 8.399775 -4.691667 0
M  V30 8 C 9.649281 6.550999 -7.335295 0
M  V30 9 C 11.476541 8.517730 -9.762385 0
M  V30 10 C 10.071544 6.969374 -6.066659 0
M  V30 11 C 12.269086 9.541633 -4.553464 0
M  V30 12 H 10.559903 7.602316 -11.621339 0
M  V30 13 H 12.324862 9.369578 -7.042241 0
M  V30 14 H 8.906369 5.773795 -7.438191 0
M  V30 15 H 12.184467 9.266852 -10.087732 0
M  V30 16 H 9.657253 6.511935 -5.180793 0
M  V30 17 H 12.389711 9.769169 -3.494366 0
M  V30 18 H 13.264829 9.369478 -4.963395 0
M  V30 19 H 11.829239 10.418659 -5.030336 0
M  V30 END ATOM
M  V30 BEGIN BOND
M  V30 1 1 2 1
M  V30 2 1 3 2
M  V30 3 1 4 3
M  V30 4 2 5 4
M  V30 5 1 6 5
M  V30 6 1 7 6
M  V30 7 2 8 3
M  V30 8 2 9 1
M  V30 9 1 9 4
M  V30 10 2 10 6
M  V30 11 1 10 8
M  V30 12 1 11 7
M  V30 13 1 12 1
M  V30 14 1 13 5
M  V30 15 1 14 8
M  V30 16 1 15 9
M  V30 17 1 16 10
M  V30 18 1 17 11
M  V30 19 1 18 11
M  V30 20 1 19 11
M  V30 END BOND
M  V30 END CTAB
M  END
>  <i_epik_Tot_Q>  (1) 
0

>  <i_epik_Tot_abs_Q>  (1) 
0

>  <i_i_glide_confnum>  (1) 
1

>  <i_i_glide_lignum>  (1) 
70

>  <i_i_glide_posenum>  (1) 
380

>  <i_i_glide_rotatable_bonds>  (1) 
1

>  <i_lp_mmshare_version>  (1) 
72125

>  <i_m_source_file_index>  (1) 
64

>  <i_f3d_flags>  (1) 
0

>  <num_sample>  (1) 
100

>  <b_lp_Chiralities_Consistent>  (1) 
1

>  <r_epik_Charging_Adjusted_Penalty>  (1) 
0

>  <r_epik_Ionization_Penalty>  (1) 
0

>  <r_epik_Ionization_Penalty_Charging>  (1) 
0

>  <r_epik_Ionization_Penalty_Neutral>  (1) 
0

>  <r_epik_State_Penalty>  (1) 
-0

>  <r_glide_ring_energy>  (1) 
0

>  <r_i_docking_score>  (1) 
-5.4087859918520378

>  <r_i_glide_ecoul>  (1) 
-0.27836468965495975

>  <r_i_glide_eff_state_penalty>  (1) 
-0

>  <r_i_glide_einternal>  (1) 
0.084566316333592351

>  <r_i_glide_emodel>  (1) 
-29.221570865574481

>  <r_i_glide_emodel_strain>  (1) 
0

>  <r_i_glide_energy>  (1) 
-21.145362832179188

>  <r_i_glide_erotb>  (1) 
0

>  <r_i_glide_esite>  (1) 
0

>  <r_i_glide_evdw>  (1) 
-20.866998142524228

>  <r_i_glide_gscore>  (1) 
-5.4087859918520378

>  <r_i_glide_gscore_strain>  (1) 
0

>  <r_i_glide_hbond>  (1) 
0

>  <r_i_glide_ligand_efficiency>  (1) 
-0.49170781744109432

>  <r_i_glide_ligand_efficiency_ln>  (1) 
-1.5918047960900155

>  <r_i_glide_ligand_efficiency_sa>  (1) 
-1.0935483963662855

>  <r_i_glide_lipo>  (1) 
-1.3703826459098445

>  <r_i_glide_metal>  (1) 
-0

>  <r_i_glide_rewards>  (1) 
-2.9532987353677376

>  <r_lp_Energy>  (1) 
14.639571

>  <r_lp_tautomer_probability>  (1) 
1

>  <s_epik_cmdline>  (1) 
J2VwaWtfcHl0aG9uJywgJy1waHQnLCAnMS4wJywgJy1waCcsICc3LjQnLCAnLXRuJywgJzgnLCAnLW1hJywgJzUwMCcsICctaW1hZScsICc8aW5maWxlLm1hZT4nLCAnLW9tYWUnLCAnPG91dGZpbGUubWFlPic=

>  <s_epik_input>  (1) 
bzFbY0hdW2NIXWMoYzEyKVtjSF1jKE9bQ0gzXSlbY0hdW2NIXTI=

>  <s_glide_docking_method>  (1) 
confgen

>  <s_i_glide_gridfile>  (1) 
gpcr_drd2_6luq_protein_autoprepared_prepared

>  <s_lp_Force_Field>  (1) 
S-OPLS

>  <s_lp_Variant>  (1) 
Pocket2Mol_63_num_sample_100-1

>  <s_m_source_file>  (1) 
generated__ligand_Pocket2Mol_2026-05-06_prepared.sdf

>  <GenAI_Model>  (1) 
Pocket2Mol

>  <Protein>  (1) 
generic_title2

$$$$
Pocket2Mol_45_num_sample_100
     RDKit          3D

  0  0  0  0  0  0  0  0  0  0999 V3000
M  V30 BEGIN CTAB
M  V30 COUNTS 14 15 0 0 1
M  V30 BEGIN ATOM
M  V30 1 C 12.483017 8.567140 -2.082162 0
M  V30 2 O 12.228398 9.664876 -3.013581 0
M  V30 3 C 11.835002 8.958410 -4.072451 0
M  V30 4 C 11.834843 7.648786 -3.891657 0
M  V30 5 C 11.432999 6.786919 -4.922961 0
M  V30 6 N 11.034838 7.245077 -6.142576 0
M  V30 7 C 11.037289 8.602225 -6.309165 0
M  V30 8 C 11.434845 9.504983 -5.293302 0
M  V30 9 O 12.234354 7.254288 -2.679023 0
M  V30 10 H 13.519717 8.620314 -1.750275 0
M  V30 11 H 11.836908 8.690818 -1.211641 0
M  V30 12 H 11.429256 5.720307 -4.779426 0
M  V30 13 H 10.716259 8.969214 -7.272775 0
M  V30 14 H 11.425711 10.572447 -5.455255 0
M  V30 END ATOM
M  V30 BEGIN BOND
M  V30 1 1 2 1
M  V30 2 1 3 2
M  V30 3 2 4 3
M  V30 4 1 5 4
M  V30 5 2 6 5
M  V30 6 1 7 6
M  V30 7 1 8 3
M  V30 8 2 8 7
M  V30 9 1 9 1
M  V30 10 1 9 4
M  V30 11 1 10 1
M  V30 12 1 11 1
M  V30 13 1 12 5
M  V30 14 1 13 7
M  V30 15 1 14 8
M  V30 END BOND
M  V30 END CTAB
M  END
>  <i_epik_Tot_Q>  (1) 
0

>  <i_epik_Tot_abs_Q>  (1) 
0

>  <i_i_glide_confnum>  (1) 
1

>  <i_i_glide_lignum>  (1) 
50

>  <i_i_glide_posenum>  (1) 
173

>  <i_i_glide_rotatable_bonds>  (1) 
0

>  <i_lp_mmshare_version>  (1) 
72125

>  <i_m_source_file_index>  (1) 
46

>  <i_f3d_flags>  (1) 
0

>  <num_sample>  (1) 
100

>  <b_lp_Chiralities_Consistent>  (1) 
1

>  <r_epik_Charging_Adjusted_Penalty>  (1) 
0.069790075728531922

>  <r_epik_Ionization_Penalty>  (1) 
0.069790075728531936

>  <r_epik_Ionization_Penalty_Charging>  (1) 
0

>  <r_epik_Ionization_Penalty_Neutral>  (1) 
0.069790075728531936

>  <r_epik_State_Penalty>  (1) 
0.069790075728531922

>  <r_glide_ring_energy>  (1) 
0

>  <r_i_docking_score>  (1) 
-5.4050739330353288

>  <r_i_glide_ecoul>  (1) 
0.02344468369054048

>  <r_i_glide_eff_state_penalty>  (1) 
0.069790075728531922

>  <r_i_glide_einternal>  (1) 
0

>  <r_i_glide_emodel>  (1) 
-26.656982140243116

>  <r_i_glide_emodel_strain>  (1) 
0

>  <r_i_glide_energy>  (1) 
-19.518297847578427

>  <r_i_glide_erotb>  (1) 
0

>  <r_i_glide_esite>  (1) 
0

>  <r_i_glide_evdw>  (1) 
-19.541742531268969

>  <r_i_glide_gscore>  (1) 
-5.4748640087638609

>  <r_i_glide_gscore_strain>  (1) 
0

>  <r_i_glide_hbond>  (1) 
0

>  <r_i_glide_ligand_efficiency>  (1) 
-0.60056377033725872

>  <r_i_glide_ligand_efficiency_ln>  (1) 
-1.6905518528005898

>  <r_i_glide_ligand_efficiency_sa>  (1) 
-1.2492229833895911

>  <r_i_glide_lipo>  (1) 
-1.3762935847539941

>  <r_i_glide_metal>  (1) 
-0

>  <r_i_glide_rewards>  (1) 
-3.125

>  <r_lp_Energy>  (1) 
21.238785

>  <r_lp_tautomer_probability>  (1) 
1

>  <s_epik_Chemistry_Notes>  (1) 
This compound contains an acetal/aminal-like group ( X-CH(R)-Y where X, Y are N, S, or O) that may be acid/base labile, releasing an aldehyde.

>  <s_epik_cmdline>  (1) 
J2VwaWtfcHl0aG9uJywgJy1waHQnLCAnMS4wJywgJy1waCcsICc3LjQnLCAnLXRuJywgJzgnLCAnLW1hJywgJzUwMCcsICctaW1hZScsICc8aW5maWxlLm1hZT4nLCAnLW9tYWUnLCAnPG91dGZpbGUubWFlPic=

>  <s_epik_input>  (1) 
TzFbQ0gyXU9jKGMxMilbY0hdbltjSF1bY0hdMg==

>  <s_glide_docking_method>  (1) 
confgen

>  <s_i_glide_gridfile>  (1) 
gpcr_drd2_6luq_protein_autoprepared_prepared

>  <s_lp_Force_Field>  (1) 
S-OPLS

>  <s_lp_Variant>  (1) 
Pocket2Mol_45_num_sample_100-1

>  <s_m_source_file>  (1) 
generated__ligand_Pocket2Mol_2026-05-06_prepared.sdf

>  <GenAI_Model>  (1) 
Pocket2Mol

>  <Protein>  (1) 
generic_title2

$$$$
Pocket2Mol_82_num_sample_100
     RDKit          3D

  0  0  0  0  0  0  0  0  0  0999 V3000
M  V30 BEGIN CTAB
M  V30 COUNTS 22 23 0 0 1
M  V30 BEGIN ATOM
M  V30 1 C 12.335488 9.354776 -4.533852 0
M  V30 2 O 11.434850 8.196530 -4.393649 0
M  V30 3 C 11.096287 7.947177 -5.675406 0
M  V30 4 C 11.675873 8.740805 -6.599457 0
M  V30 5 C 11.423763 8.576215 -7.970372 0
M  V30 6 C 12.577417 9.764409 -6.059215 0
M  V30 7 C 10.523417 7.556916 -8.385732 0
M  V30 8 O 10.240348 7.353671 -9.717996 0
M  V30 9 C 9.906709 6.738863 -7.410545 0
M  V30 10 O 9.029244 5.769301 -7.790998 0
M  V30 11 C 10.203704 6.930675 -6.044311 0
M  V30 12 C 11.204996 7.769305 -10.665993 0
M  V30 13 H 13.282479 9.147827 -4.035019 0
M  V30 14 H 11.863938 10.169301 -3.991234 0
M  V30 15 H 11.904131 9.220455 -8.689337 0
M  V30 16 H 13.608035 9.614469 -6.382670 0
M  V30 17 H 12.234829 10.773320 -6.291645 0
M  V30 18 H 8.560655 6.026915 -8.575405 0
M  V30 19 H 9.745025 6.306125 -5.292155 0
M  V30 20 H 10.919478 7.410807 -11.655218 0
M  V30 21 H 11.261032 8.854585 -10.691666 0
M  V30 22 H 12.192893 7.369301 -10.434228 0
M  V30 END ATOM
M  V30 BEGIN BOND
M  V30 1 1 2 1
M  V30 2 1 3 2
M  V30 3 1 4 3
M  V30 4 2 5 4
M  V30 5 1 6 1
M  V30 6 1 6 4
M  V30 7 1 7 5
M  V30 8 1 8 7
M  V30 9 2 9 7
M  V30 10 1 10 9
M  V30 11 2 11 3
M  V30 12 1 11 9
M  V30 13 1 12 8
M  V30 14 1 13 1
M  V30 15 1 14 1
M  V30 16 1 15 5
M  V30 17 1 16 6
M  V30 18 1 17 6
M  V30 19 1 18 10
M  V30 20 1 19 11
M  V30 21 1 20 12
M  V30 22 1 21 12
M  V30 23 1 22 12
M  V30 END BOND
M  V30 END CTAB
M  END
>  <i_epik_Tot_Q>  (1) 
0

>  <i_epik_Tot_abs_Q>  (1) 
0

>  <i_i_glide_confnum>  (1) 
1

>  <i_i_glide_lignum>  (1) 
89

>  <i_i_glide_posenum>  (1) 
233

>  <i_i_glide_rotatable_bonds>  (1) 
2

>  <i_lp_mmshare_version>  (1) 
72125

>  <i_m_source_file_index>  (1) 
83

>  <i_f3d_flags>  (1) 
0

>  <num_sample>  (1) 
100

>  <b_lp_Chiralities_Consistent>  (1) 
1

>  <r_epik_Charging_Adjusted_Penalty>  (1) 
0

>  <r_epik_Ionization_Penalty>  (1) 
0.0019697177408658601

>  <r_epik_Ionization_Penalty_Charging>  (1) 
0

>  <r_epik_Ionization_Penalty_Neutral>  (1) 
0.0019697177408658601

>  <r_epik_State_Penalty>  (1) 
-0

>  <r_glide_ring_energy>  (1) 
0

>  <r_i_docking_score>  (1) 
-5.3907732816968963

>  <r_i_glide_ecoul>  (1) 
-0.34590614358999938

>  <r_i_glide_eff_state_penalty>  (1) 
-0

>  <r_i_glide_einternal>  (1) 
0.88157754321137238

>  <r_i_glide_emodel>  (1) 
-28.531702628005188

>  <r_i_glide_emodel_strain>  (1) 
0.37094303575079124

>  <r_i_glide_energy>  (1) 
-21.770742763398882

>  <r_i_glide_erotb>  (1) 
0

>  <r_i_glide_esite>  (1) 
0

>  <r_i_glide_evdw>  (1) 
-21.424836619808882

>  <r_i_glide_gscore>  (1) 
-5.3907732816968963

>  <r_i_glide_gscore_strain>  (1) 
0

>  <r_i_glide_hbond>  (1) 
0

>  <r_i_glide_ligand_efficiency>  (1) 
-0.44923110680807471

>  <r_i_glide_ligand_efficiency_ln>  (1) 
-1.5468917315259612

>  <r_i_glide_ligand_efficiency_sa>  (1) 
-1.0284824923224003

>  <r_i_glide_lipo>  (1) 
-1.7143801128617515

>  <r_i_glide_metal>  (1) 
-0

>  <r_i_glide_rewards>  (1) 
-2.5532654163062007

>  <r_lp_Energy>  (1) 
16.449425999999999

>  <r_lp_tautomer_probability>  (1) 
1

>  <s_epik_cmdline>  (1) 
J2VwaWtfcHl0aG9uJywgJy1waHQnLCAnMS4wJywgJy1waCcsICc3LjQnLCAnLXRuJywgJzgnLCAnLW1hJywgJzUwMCcsICctaW1hZScsICc8aW5maWxlLm1hZT4nLCAnLW9tYWUnLCAnPG91dGZpbGUubWFlPic=

>  <s_epik_input>  (1) 
TzFbQ0gyXVtDSDJdYyhjMTIpW2NIXWMoT1tDSDNdKWMoW09IXSlbY0hdMg==

>  <s_glide_docking_method>  (1) 
confgen

>  <s_i_glide_gridfile>  (1) 
gpcr_drd2_6luq_protein_autoprepared_prepared

>  <s_lp_Force_Field>  (1) 
S-OPLS

>  <s_lp_Variant>  (1) 
Pocket2Mol_82_num_sample_100-1

>  <s_m_source_file>  (1) 
generated__ligand_Pocket2Mol_2026-05-06_prepared.sdf

>  <GenAI_Model>  (1) 
Pocket2Mol

>  <Protein>  (1) 
generic_title2

$$$$
Pocket2Mol_69_num_sample_100
     RDKit          3D

  0  0  0  0  0  0  0  0  0  0999 V3000
M  V30 BEGIN CTAB
M  V30 COUNTS 18 19 0 0 1
M  V30 BEGIN ATOM
M  V30 1 C 11.952324 9.369355 -5.404834 0
M  V30 2 O 11.865700 9.401388 -6.846841 0
M  V30 3 C 11.192407 8.423789 -7.569273 0
M  V30 4 C 10.666873 7.281607 -6.919559 0
M  V30 5 C 9.988320 6.298285 -7.667324 0
M  V30 6 C 11.039852 8.569301 -8.962413 0
M  V30 7 C 10.361058 7.585734 -9.705665 0
M  V30 8 C 10.837463 7.141476 -5.491669 0
M  V30 9 F 10.216831 7.729441 -11.044507 0
M  V30 10 C 11.434842 8.091766 -4.780038 0
M  V30 11 C 9.834651 6.451882 -9.058590 0
M  V30 12 H 11.392249 10.212035 -4.998576 0
M  V30 13 H 12.994769 9.507420 -5.116981 0
M  V30 14 H 9.583454 5.427138 -7.174175 0
M  V30 15 H 11.443729 9.437940 -9.461120 0
M  V30 16 H 10.466707 6.242512 -5.018822 0
M  V30 17 H 11.558899 7.976953 -3.713664 0
M  V30 18 H 9.312355 5.698961 -9.630142 0
M  V30 END ATOM
M  V30 BEGIN BOND
M  V30 1 1 2 1
M  V30 2 1 3 2
M  V30 3 2 4 3
M  V30 4 1 5 4
M  V30 5 1 6 3
M  V30 6 2 7 6
M  V30 7 1 8 4
M  V30 8 1 9 7
M  V30 9 1 10 1
M  V30 10 2 10 8
M  V30 11 2 11 5
M  V30 12 1 11 7
M  V30 13 1 12 1
M  V30 14 1 13 1
M  V30 15 1 14 5
M  V30 16 1 15 6
M  V30 17 1 16 8
M  V30 18 1 17 10
M  V30 19 1 18 11
M  V30 END BOND
M  V30 END CTAB
M  END
>  <i_epik_Tot_Q>  (1) 
0

>  <i_epik_Tot_abs_Q>  (1) 
0

>  <i_i_glide_confnum>  (1) 
1

>  <i_i_glide_lignum>  (1) 
76

>  <i_i_glide_posenum>  (1) 
64

>  <i_i_glide_rotatable_bonds>  (1) 
0

>  <i_lp_mmshare_version>  (1) 
72125

>  <i_m_source_file_index>  (1) 
70

>  <i_f3d_flags>  (1) 
0

>  <num_sample>  (1) 
100

>  <b_lp_Chiralities_Consistent>  (1) 
1

>  <r_epik_Charging_Adjusted_Penalty>  (1) 
0

>  <r_epik_Ionization_Penalty>  (1) 
0

>  <r_epik_Ionization_Penalty_Charging>  (1) 
0

>  <r_epik_Ionization_Penalty_Neutral>  (1) 
0

>  <r_epik_State_Penalty>  (1) 
-0

>  <r_glide_ring_energy>  (1) 
0

>  <r_i_docking_score>  (1) 
-5.3834974529506674

>  <r_i_glide_ecoul>  (1) 
-0.54843673190905484

>  <r_i_glide_eff_state_penalty>  (1) 
-0

>  <r_i_glide_einternal>  (1) 
0

>  <r_i_glide_emodel>  (1) 
-27.797308804204818

>  <r_i_glide_emodel_strain>  (1) 
0

>  <r_i_glide_energy>  (1) 
-20.795926556939996

>  <r_i_glide_erotb>  (1) 
0

>  <r_i_glide_esite>  (1) 
-0.045527922141886411

>  <r_i_glide_evdw>  (1) 
-20.247489825030943

>  <r_i_glide_gscore>  (1) 
-5.3834974529506674

>  <r_i_glide_gscore_strain>  (1) 
0

>  <r_i_glide_hbond>  (1) 
0

>  <r_i_glide_ligand_efficiency>  (1) 
-0.48940885935915157

>  <r_i_glide_ligand_efficiency_ln>  (1) 
-1.5843623833988958

>  <r_i_glide_ligand_efficiency_sa>  (1) 
-1.0884355593629915

>  <r_i_glide_lipo>  (1) 
-1.3010005347784588

>  <r_i_glide_metal>  (1) 
-0

>  <r_i_glide_rewards>  (1) 
-2.9423289949924172

>  <r_lp_Energy>  (1) 
13.322941

>  <r_lp_tautomer_probability>  (1) 
1

>  <s_epik_cmdline>  (1) 
J2VwaWtfcHl0aG9uJywgJy1waHQnLCAnMS4wJywgJy1waCcsICc3LjQnLCAnLXRuJywgJzgnLCAnLW1hJywgJzUwMCcsICctaW1hZScsICc8aW5maWxlLm1hZT4nLCAnLW9tYWUnLCAnPG91dGZpbGUubWFlPic=

>  <s_epik_input>  (1) 
TzFbQ0gyXVtDSF09W0NIXWMoYzEyKVtjSF1bY0hdYyhGKVtjSF0y

>  <s_glide_docking_method>  (1) 
confgen

>  <s_i_glide_gridfile>  (1) 
gpcr_drd2_6luq_protein_autoprepared_prepared

>  <s_lp_Force_Field>  (1) 
S-OPLS

>  <s_lp_Variant>  (1) 
Pocket2Mol_69_num_sample_100-1

>  <s_m_source_file>  (1) 
generated__ligand_Pocket2Mol_2026-05-06_prepared.sdf

>  <GenAI_Model>  (1) 
Pocket2Mol

>  <Protein>  (1) 
generic_title2

$$$$
Pocket2Mol_45_num_sample_100
     RDKit          3D

  0  0  0  0  0  0  0  0  0  0999 V3000
M  V30 BEGIN CTAB
M  V30 COUNTS 14 15 0 0 1
M  V30 BEGIN ATOM
M  V30 1 C 12.482307 8.521386 -2.052768 0
M  V30 2 O 12.234839 7.228124 -2.693542 0
M  V30 3 C 11.834839 7.662977 -3.891667 0
M  V30 4 C 11.834839 8.977782 -4.029590 0
M  V30 5 C 11.434839 9.570184 -5.238132 0
M  V30 6 N 11.033360 8.835358 -6.311345 0
M  V30 7 C 11.032407 7.476521 -6.146865 0
M  V30 8 C 11.431139 6.842770 -4.944751 0
M  V30 9 O 12.228237 9.648469 -2.947168 0
M  V30 10 H 11.834845 8.616350 -1.179711 0
M  V30 11 H 13.518282 8.569307 -1.718163 0
M  V30 12 H 11.430714 10.644016 -5.353698 0
M  V30 13 H 10.709263 6.889520 -6.993935 0
M  V30 14 H 11.420241 5.769301 -4.846676 0
M  V30 END ATOM
M  V30 BEGIN BOND
M  V30 1 1 2 1
M  V30 2 1 3 2
M  V30 3 2 4 3
M  V30 4 1 5 4
M  V30 5 2 6 5
M  V30 6 1 7 6
M  V30 7 1 8 3
M  V30 8 2 8 7
M  V30 9 1 9 1
M  V30 10 1 9 4
M  V30 11 1 10 1
M  V30 12 1 11 1
M  V30 13 1 12 5
M  V30 14 1 13 7
M  V30 15 1 14 8
M  V30 END BOND
M  V30 END CTAB
M  END
>  <i_epik_Tot_Q>  (1) 
0

>  <i_epik_Tot_abs_Q>  (1) 
0

>  <i_i_glide_confnum>  (1) 
1

>  <i_i_glide_lignum>  (1) 
50

>  <i_i_glide_posenum>  (1) 
3

>  <i_i_glide_rotatable_bonds>  (1) 
0

>  <i_lp_mmshare_version>  (1) 
72125

>  <i_m_source_file_index>  (1) 
46

>  <i_f3d_flags>  (1) 
0

>  <num_sample>  (1) 
100

>  <b_lp_Chiralities_Consistent>  (1) 
1

>  <r_epik_Charging_Adjusted_Penalty>  (1) 
0.069790075728531922

>  <r_epik_Ionization_Penalty>  (1) 
0.069790075728531936

>  <r_epik_Ionization_Penalty_Charging>  (1) 
0

>  <r_epik_Ionization_Penalty_Neutral>  (1) 
0.069790075728531936

>  <r_epik_State_Penalty>  (1) 
0.069790075728531922

>  <r_glide_ring_energy>  (1) 
0

>  <r_i_docking_score>  (1) 
-5.3767643201727271

>  <r_i_glide_ecoul>  (1) 
-0.56626228876548856

>  <r_i_glide_eff_state_penalty>  (1) 
0.069790075728531922

>  <r_i_glide_einternal>  (1) 
0

>  <r_i_glide_emodel>  (1) 
-27.298516566630695

>  <r_i_glide_emodel_strain>  (1) 
0

>  <r_i_glide_energy>  (1) 
-20.196745225292315

>  <r_i_glide_erotb>  (1) 
0

>  <r_i_glide_esite>  (1) 
0

>  <r_i_glide_evdw>  (1) 
-19.630482936526825

>  <r_i_glide_gscore>  (1) 
-5.4465543959012592

>  <r_i_glide_gscore_strain>  (1) 
0

>  <r_i_glide_hbond>  (1) 
0

>  <r_i_glide_ligand_efficiency>  (1) 
-0.59741825779696967

>  <r_i_glide_ligand_efficiency_ln>  (1) 
-1.6816974191573366

>  <r_i_glide_ligand_efficiency_sa>  (1) 
-1.242680053639329

>  <r_i_glide_lipo>  (1) 
-1.3384242390934276

>  <r_i_glide_metal>  (1) 
-0

>  <r_i_glide_rewards>  (1) 
-3.041666666666667

>  <r_lp_Energy>  (1) 
21.238785

>  <r_lp_tautomer_probability>  (1) 
1

>  <s_epik_Chemistry_Notes>  (1) 
This compound contains an acetal/aminal-like group ( X-CH(R)-Y where X, Y are N, S, or O) that may be acid/base labile, releasing an aldehyde.

>  <s_epik_cmdline>  (1) 
J2VwaWtfcHl0aG9uJywgJy1waHQnLCAnMS4wJywgJy1waCcsICc3LjQnLCAnLXRuJywgJzgnLCAnLW1hJywgJzUwMCcsICctaW1hZScsICc8aW5maWxlLm1hZT4nLCAnLW9tYWUnLCAnPG91dGZpbGUubWFlPic=

>  <s_epik_input>  (1) 
TzFbQ0gyXU9jKGMxMilbY0hdbltjSF1bY0hdMg==

>  <s_glide_docking_method>  (1) 
confgen

>  <s_i_glide_gridfile>  (1) 
gpcr_drd2_6luq_protein_autoprepared_prepared

>  <s_lp_Force_Field>  (1) 
S-OPLS

>  <s_lp_Variant>  (1) 
Pocket2Mol_45_num_sample_100-1

>  <s_m_source_file>  (1) 
generated__ligand_Pocket2Mol_2026-05-06_prepared.sdf

>  <GenAI_Model>  (1) 
Pocket2Mol

>  <Protein>  (1) 
generic_title2

$$$$
Pocket2Mol_48_num_sample_100
     RDKit          3D

  0  0  0  0  0  0  0  0  0  0999 V3000
M  V30 BEGIN CTAB
M  V30 COUNTS 20 21 0 0 1
M  V30 BEGIN ATOM
M  V30 1 C 9.300337 5.905288 -10.746287 0
M  V30 2 O 10.151035 6.982622 -10.445336 0
M  V30 3 C 10.496110 7.270462 -9.134384 0
M  V30 4 C 9.896529 6.577074 -8.050498 0
M  V30 5 C 10.248785 6.902243 -6.724332 0
M  V30 6 C 11.448126 8.276153 -8.874906 0
M  V30 7 C 11.798550 8.594191 -7.547628 0
M  V30 8 C 8.876987 5.498134 -8.312185 0
M  V30 9 C 11.196875 7.910706 -6.474319 0
M  V30 10 N 8.235203 5.769295 -9.596978 0 CHG=1
M  V30 11 H 8.782964 6.124466 -11.681258 0
M  V30 12 H 9.839069 4.966860 -10.857911 0
M  V30 13 H 9.789301 6.377331 -5.898129 0
M  V30 14 H 11.908510 8.807835 -9.696198 0
M  V30 15 H 12.527482 9.366378 -7.353138 0
M  V30 16 H 9.367791 4.524931 -8.330466 0
M  V30 17 H 8.122250 5.487305 -7.524633 0
M  V30 18 H 11.464929 8.159339 -5.457760 0
M  V30 19 H 7.715366 6.664527 -9.491667 0
M  V30 20 H 7.563781 5.046658 -9.806844 0
M  V30 END ATOM
M  V30 BEGIN BOND
M  V30 1 1 2 1
M  V30 2 1 3 2
M  V30 3 1 4 3
M  V30 4 2 5 4
M  V30 5 2 6 3
M  V30 6 1 7 6
M  V30 7 1 8 4
M  V30 8 1 9 5
M  V30 9 2 9 7
M  V30 10 1 10 1
M  V30 11 1 10 8
M  V30 12 1 11 1
M  V30 13 1 12 1
M  V30 14 1 13 5
M  V30 15 1 14 6
M  V30 16 1 15 7
M  V30 17 1 16 8
M  V30 18 1 17 8
M  V30 19 1 18 9
M  V30 20 1 19 10
M  V30 21 1 20 10
M  V30 END BOND
M  V30 END CTAB
M  END
>  <i_epik_Tot_Q>  (1) 
1

>  <i_epik_Tot_abs_Q>  (1) 
1

>  <i_i_glide_confnum>  (1) 
1

>  <i_i_glide_lignum>  (1) 
55

>  <i_i_glide_posenum>  (1) 
395

>  <i_i_glide_rotatable_bonds>  (1) 
0

>  <i_lp_mmshare_version>  (1) 
72125

>  <i_m_source_file_index>  (1) 
49

>  <i_f3d_flags>  (1) 
0

>  <num_sample>  (1) 
100

>  <b_lp_Chiralities_Consistent>  (1) 
1

>  <r_epik_Charging_Adjusted_Penalty>  (1) 
1.7789378330503367

>  <r_epik_Ionization_Penalty>  (1) 
0.88946891652516835

>  <r_epik_Ionization_Penalty_Charging>  (1) 
0.88946891652516835

>  <r_epik_Ionization_Penalty_Neutral>  (1) 
0

>  <r_epik_State_Penalty>  (1) 
0.88946891652516835

>  <r_glide_ring_energy>  (1) 
0

>  <r_i_docking_score>  (1) 
-5.3683130092434661

>  <r_i_glide_ecoul>  (1) 
-9.2211182661897588

>  <r_i_glide_eff_state_penalty>  (1) 
0.88946891652516835

>  <r_i_glide_einternal>  (1) 
0

>  <r_i_glide_emodel>  (1) 
-40.065934172614071

>  <r_i_glide_emodel_strain>  (1) 
0.010791151208673355

>  <r_i_glide_energy>  (1) 
-25.686011946933959

>  <r_i_glide_erotb>  (1) 
0

>  <r_i_glide_esite>  (1) 
-0.1488923805521469

>  <r_i_glide_evdw>  (1) 
-16.464893680744201

>  <r_i_glide_gscore>  (1) 
-6.2577819257686347

>  <r_i_glide_gscore_strain>  (1) 
0

>  <r_i_glide_hbond>  (1) 
-0.14226300932057928

>  <r_i_glide_ligand_efficiency>  (1) 
-0.53683130092434661

>  <r_i_glide_ligand_efficiency_ln>  (1) 
-1.6254881730773756

>  <r_i_glide_ligand_efficiency_sa>  (1) 
-1.1565679774063578

>  <r_i_glide_lipo>  (1) 
-0.95185137243062712

>  <r_i_glide_metal>  (1) 
-0

>  <r_i_glide_rewards>  (1) 
-2.8083627394996076

>  <r_lp_Energy>  (1) 
22.335957999999998

>  <r_lp_tautomer_probability>  (1) 
1

>  <s_epik_Chemistry_Notes>  (1) 
This compound contains an acetal/aminal-like group ( X-CH(R)-Y where X, Y are N, S, or O) that may be acid/base labile, releasing an aldehyde.

>  <s_epik_cmdline>  (1) 
J2VwaWtfcHl0aG9uJywgJy1waHQnLCAnMS4wJywgJy1waCcsICc3LjQnLCAnLXRuJywgJzgnLCAnLW1hJywgJzUwMCcsICctaW1hZScsICc8aW5maWxlLm1hZT4nLCAnLW9tYWUnLCAnPG91dGZpbGUubWFlPic=

>  <s_epik_input>  (1) 
TzFbQ0gyXVtOSF1bQ0gyXWMoYzEyKVtjSF1bY0hdW2NIXVtjSF0y

>  <s_glide_docking_method>  (1) 
confgen

>  <s_i_glide_gridfile>  (1) 
gpcr_drd2_6luq_protein_autoprepared_prepared

>  <s_lp_Force_Field>  (1) 
S-OPLS

>  <s_lp_Variant>  (1) 
Pocket2Mol_48_num_sample_100-2

>  <s_m_source_file>  (1) 
generated__ligand_Pocket2Mol_2026-05-06_prepared.sdf

>  <GenAI_Model>  (1) 
Pocket2Mol

>  <Protein>  (1) 
generic_title2

$$$$
Pocket2Mol_27_num_sample_100
     RDKit          3D

  0  0  0  0  0  0  0  0  0  0999 V3000
M  V30 BEGIN CTAB
M  V30 COUNTS 15 15 0 0 1
M  V30 BEGIN ATOM
M  V30 1 C 11.434888 6.566284 -4.095536 0
M  V30 2 O 11.371718 7.666248 -5.036263 0
M  V30 3 C 11.834866 8.928622 -4.690994 0
M  V30 4 C 11.685240 9.944667 -5.800041 0
M  V30 5 C 12.037059 6.924948 -2.755007 0
M  V30 6 C 12.358149 9.178045 -3.473279 0
M  V30 7 C 12.460810 8.151214 -2.484098 0
M  V30 8 H 10.429814 6.171434 -3.936286 0
M  V30 9 H 12.015379 5.766808 -4.549811 0
M  V30 10 H 12.024090 10.937476 -5.511966 0
M  V30 11 H 12.247459 9.625487 -6.678540 0
M  V30 12 H 10.635489 10.022671 -6.080400 0
M  V30 13 H 12.109652 6.139840 -2.014167 0
M  V30 14 H 12.708133 10.169300 -3.239421 0
M  V30 15 H 12.884182 8.375051 -1.515521 0
M  V30 END ATOM
M  V30 BEGIN BOND
M  V30 1 1 2 1
M  V30 2 1 3 2
M  V30 3 1 4 3
M  V30 4 1 5 1
M  V30 5 2 6 3
M  V30 6 2 7 5
M  V30 7 1 7 6
M  V30 8 1 8 1
M  V30 9 1 9 1
M  V30 10 1 10 4
M  V30 11 1 11 4
M  V30 12 1 12 4
M  V30 13 1 13 5
M  V30 14 1 14 6
M  V30 15 1 15 7
M  V30 END BOND
M  V30 END CTAB
M  END
>  <i_epik_Tot_Q>  (1) 
0

>  <i_epik_Tot_abs_Q>  (1) 
0

>  <i_i_glide_confnum>  (1) 
1

>  <i_i_glide_lignum>  (1) 
31

>  <i_i_glide_posenum>  (1) 
121

>  <i_i_glide_rotatable_bonds>  (1) 
0

>  <i_lp_mmshare_version>  (1) 
72125

>  <i_m_source_file_index>  (1) 
28

>  <i_f3d_flags>  (1) 
0

>  <num_sample>  (1) 
100

>  <b_lp_Chiralities_Consistent>  (1) 
1

>  <r_epik_Charging_Adjusted_Penalty>  (1) 
0

>  <r_epik_Ionization_Penalty>  (1) 
0

>  <r_epik_Ionization_Penalty_Charging>  (1) 
0

>  <r_epik_Ionization_Penalty_Neutral>  (1) 
0

>  <r_epik_State_Penalty>  (1) 
-0

>  <r_glide_ring_energy>  (1) 
0

>  <r_i_docking_score>  (1) 
-5.3628510823254461

>  <r_i_glide_ecoul>  (1) 
-0.69865236446748358

>  <r_i_glide_eff_state_penalty>  (1) 
-0

>  <r_i_glide_einternal>  (1) 
0

>  <r_i_glide_emodel>  (1) 
-23.562357229600881

>  <r_i_glide_emodel_strain>  (1) 
0.011925617970255153

>  <r_i_glide_energy>  (1) 
-17.66044967241632

>  <r_i_glide_erotb>  (1) 
0

>  <r_i_glide_esite>  (1) 
0

>  <r_i_glide_evdw>  (1) 
-16.961797307948835

>  <r_i_glide_gscore>  (1) 
-5.3628510823254461

>  <r_i_glide_gscore_strain>  (1) 
0

>  <r_i_glide_hbond>  (1) 
0

>  <r_i_glide_ligand_efficiency>  (1) 
-0.76612158318934942

>  <r_i_glide_ligand_efficiency_ln>  (1) 
-1.8204394604652796

>  <r_i_glide_ligand_efficiency_sa>  (1) 
-1.4655378662778575

>  <r_i_glide_lipo>  (1) 
-1.7958488099369114

>  <r_i_glide_metal>  (1) 
-0

>  <r_i_glide_rewards>  (1) 
-2.6141145523209706

>  <r_lp_Energy>  (1) 
4.7929789999999999

>  <r_lp_tautomer_probability>  (1) 
1

>  <s_epik_cmdline>  (1) 
J2VwaWtfcHl0aG9uJywgJy1waHQnLCAnMS4wJywgJy1waCcsICc3LjQnLCAnLXRuJywgJzgnLCAnLW1hJywgJzUwMCcsICctaW1hZScsICc8aW5maWxlLm1hZT4nLCAnLW9tYWUnLCAnPG91dGZpbGUubWFlPic=

>  <s_epik_input>  (1) 
TzFbQ0gyXVtDSF09W0NIXVtDSF09QzFbQ0gzXQ==

>  <s_glide_docking_method>  (1) 
confgen

>  <s_i_glide_gridfile>  (1) 
gpcr_drd2_6luq_protein_autoprepared_prepared

>  <s_lp_Force_Field>  (1) 
S-OPLS

>  <s_lp_Variant>  (1) 
Pocket2Mol_27_num_sample_100-1

>  <s_m_source_file>  (1) 
generated__ligand_Pocket2Mol_2026-05-06_prepared.sdf

>  <GenAI_Model>  (1) 
Pocket2Mol

>  <Protein>  (1) 
generic_title2

$$$$
Pocket2Mol_62_num_sample_100
     RDKit          3D

  0  0  0  0  0  0  0  0  0  0999 V3000
M  V30 BEGIN CTAB
M  V30 COUNTS 21 22 0 0 1
M  V30 BEGIN ATOM
M  V30 1 C 9.354627 6.004827 -9.814302 0
M  V30 2 O 10.234835 7.176598 -10.026236 0
M  V30 3 C 10.570307 7.504720 -8.758307 0
M  V30 4 C 10.023043 6.739600 -7.789160 0
M  V30 5 C 10.292611 6.969325 -6.428649 0
M  V30 6 C 11.156745 8.028082 -6.067625 0
M  V30 7 O 11.434837 8.254612 -4.733474 0
M  V30 8 C 9.141614 5.669734 -8.268143 0
M  V30 9 C 11.433797 8.568697 -8.446789 0
M  V30 10 C 11.732784 8.837710 -7.091546 0
M  V30 11 C 12.172540 9.408021 -4.358188 0
M  V30 12 H 9.803920 5.147254 -10.315863 0
M  V30 13 H 8.392836 6.169302 -10.300279 0
M  V30 14 H 9.846111 6.344185 -5.668757 0
M  V30 15 H 9.499432 4.678440 -7.994027 0
M  V30 16 H 8.112510 5.812787 -7.939118 0
M  V30 17 H 11.864386 9.171863 -9.232776 0
M  V30 18 H 12.395936 9.649563 -6.841633 0
M  V30 19 H 12.217497 9.466962 -3.270654 0
M  V30 20 H 13.198599 9.369384 -4.726285 0
M  V30 21 H 11.688818 10.318081 -4.715612 0
M  V30 END ATOM
M  V30 BEGIN BOND
M  V30 1 1 2 1
M  V30 2 1 3 2
M  V30 3 2 4 3
M  V30 4 1 5 4
M  V30 5 2 6 5
M  V30 6 1 7 6
M  V30 7 1 8 1
M  V30 8 1 8 4
M  V30 9 1 9 3
M  V30 10 1 10 6
M  V30 11 2 10 9
M  V30 12 1 11 7
M  V30 13 1 12 1
M  V30 14 1 13 1
M  V30 15 1 14 5
M  V30 16 1 15 8
M  V30 17 1 16 8
M  V30 18 1 17 9
M  V30 19 1 18 10
M  V30 20 1 19 11
M  V30 21 1 20 11
M  V30 22 1 21 11
M  V30 END BOND
M  V30 END CTAB
M  END
>  <i_epik_Tot_Q>  (1) 
0

>  <i_epik_Tot_abs_Q>  (1) 
0

>  <i_i_glide_confnum>  (1) 
1

>  <i_i_glide_lignum>  (1) 
69

>  <i_i_glide_posenum>  (1) 
170

>  <i_i_glide_rotatable_bonds>  (1) 
1

>  <i_lp_mmshare_version>  (1) 
72125

>  <i_m_source_file_index>  (1) 
63

>  <i_f3d_flags>  (1) 
0

>  <num_sample>  (1) 
100

>  <b_lp_Chiralities_Consistent>  (1) 
1

>  <r_epik_Charging_Adjusted_Penalty>  (1) 
0

>  <r_epik_Ionization_Penalty>  (1) 
0

>  <r_epik_Ionization_Penalty_Charging>  (1) 
0

>  <r_epik_Ionization_Penalty_Neutral>  (1) 
0

>  <r_epik_State_Penalty>  (1) 
-0

>  <r_glide_ring_energy>  (1) 
0

>  <r_i_docking_score>  (1) 
-5.3604007438518941

>  <r_i_glide_ecoul>  (1) 
-0.92058912643025892

>  <r_i_glide_eff_state_penalty>  (1) 
-0

>  <r_i_glide_einternal>  (1) 
0.18771479729148588

>  <r_i_glide_emodel>  (1) 
-29.673135051834532

>  <r_i_glide_emodel_strain>  (1) 
0

>  <r_i_glide_energy>  (1) 
-22.177180667467248

>  <r_i_glide_erotb>  (1) 
0

>  <r_i_glide_esite>  (1) 
0

>  <r_i_glide_evdw>  (1) 
-21.25659154103699

>  <r_i_glide_gscore>  (1) 
-5.3604007438518941

>  <r_i_glide_gscore_strain>  (1) 
0

>  <r_i_glide_hbond>  (1) 
0

>  <r_i_glide_ligand_efficiency>  (1) 
-0.48730915853199036

>  <r_i_glide_ligand_efficiency_ln>  (1) 
-1.5775650258453324

>  <r_i_glide_ligand_efficiency_sa>  (1) 
-1.0837658665272329

>  <r_i_glide_lipo>  (1) 
-1.3379097224655012

>  <r_i_glide_metal>  (1) 
-0

>  <r_i_glide_rewards>  (1) 
-2.8215730753700035

>  <r_lp_Energy>  (1) 
15.977421

>  <r_lp_tautomer_probability>  (1) 
1

>  <s_epik_cmdline>  (1) 
J2VwaWtfcHl0aG9uJywgJy1waHQnLCAnMS4wJywgJy1waCcsICc3LjQnLCAnLXRuJywgJzgnLCAnLW1hJywgJzUwMCcsICctaW1hZScsICc8aW5maWxlLm1hZT4nLCAnLW9tYWUnLCAnPG91dGZpbGUubWFlPic=

>  <s_epik_input>  (1) 
TzFbQ0gyXVtDSDJdYyhjMTIpW2NIXWMoT1tDSDNdKVtjSF1bY0hdMg==

>  <s_glide_docking_method>  (1) 
confgen

>  <s_i_glide_gridfile>  (1) 
gpcr_drd2_6luq_protein_autoprepared_prepared

>  <s_lp_Force_Field>  (1) 
S-OPLS

>  <s_lp_Variant>  (1) 
Pocket2Mol_62_num_sample_100-1

>  <s_m_source_file>  (1) 
generated__ligand_Pocket2Mol_2026-05-06_prepared.sdf

>  <GenAI_Model>  (1) 
Pocket2Mol

>  <Protein>  (1) 
generic_title2

$$$$
Pocket2Mol_90_num_sample_100
     RDKit          3D

  0  0  0  0  0  0  0  0  0  0999 V3000
M  V30 BEGIN CTAB
M  V30 COUNTS 23 24 0 0 1
M  V30 BEGIN ATOM
M  V30 1 C 12.060428 9.247509 -4.638318 0
M  V30 2 O 11.434840 7.911140 -4.566647 0
M  V30 3 C 11.057670 7.707913 -5.849223 0
M  V30 4 C 11.434844 8.658657 -6.724815 0
M  V30 5 C 11.120757 8.569302 -8.091706 0
M  V30 6 C 12.191055 9.769303 -6.139710 0
M  V30 7 C 10.327716 6.584414 -6.262067 0
M  V30 8 C 10.387404 7.453724 -8.559831 0
M  V30 9 N 10.073716 7.383357 -9.972290 0
M  V30 10 C 9.982108 6.445853 -7.625134 0
M  V30 11 C 9.434837 6.363682 -10.600359 0
M  V30 12 O 9.047993 5.334801 -10.061926 0
M  V30 13 N 9.275922 6.598497 -11.899522 0
M  V30 14 H 11.436429 9.935572 -4.065862 0
M  V30 15 H 13.034925 9.228105 -4.149259 0
M  V30 16 H 11.436160 9.343352 -8.776159 0
M  V30 17 H 13.223723 9.769273 -6.489352 0
M  V30 18 H 11.719053 10.738791 -6.299888 0
M  V30 19 H 10.032829 5.834280 -5.545708 0
M  V30 20 H 10.357231 8.169461 -10.531991 0
M  V30 21 H 9.419896 5.587942 -7.930948 0
M  V30 22 H 9.605473 7.458393 -12.303721 0
M  V30 23 H 8.814098 5.911092 -12.475073 0
M  V30 END ATOM
M  V30 BEGIN BOND
M  V30 1 1 2 1
M  V30 2 1 3 2
M  V30 3 2 4 3
M  V30 4 1 5 4
M  V30 5 1 6 1
M  V30 6 1 6 4
M  V30 7 1 7 3
M  V30 8 2 8 5
M  V30 9 1 9 8
M  V30 10 2 10 7
M  V30 11 1 10 8
M  V30 12 1 11 9
M  V30 13 2 12 11
M  V30 14 1 13 11
M  V30 15 1 14 1
M  V30 16 1 15 1
M  V30 17 1 16 5
M  V30 18 1 17 6
M  V30 19 1 18 6
M  V30 20 1 19 7
M  V30 21 1 20 9
M  V30 22 1 21 10
M  V30 23 1 22 13
M  V30 24 1 23 13
M  V30 END BOND
M  V30 END CTAB
M  END
>  <i_epik_Tot_Q>  (1) 
0

>  <i_epik_Tot_abs_Q>  (1) 
0

>  <i_i_glide_confnum>  (1) 
1

>  <i_i_glide_lignum>  (1) 
97

>  <i_i_glide_posenum>  (1) 
328

>  <i_i_glide_rotatable_bonds>  (1) 
2

>  <i_lp_mmshare_version>  (1) 
72125

>  <i_m_source_file_index>  (1) 
91

>  <i_f3d_flags>  (1) 
0

>  <num_sample>  (1) 
100

>  <b_lp_Chiralities_Consistent>  (1) 
1

>  <r_epik_Charging_Adjusted_Penalty>  (1) 
0

>  <r_epik_Ionization_Penalty>  (1) 
1.9038757045197726e-05

>  <r_epik_Ionization_Penalty_Charging>  (1) 
0

>  <r_epik_Ionization_Penalty_Neutral>  (1) 
1.9038757045197726e-05

>  <r_epik_State_Penalty>  (1) 
-0

>  <r_glide_ring_energy>  (1) 
0

>  <r_i_docking_score>  (1) 
-5.3467166088776148

>  <r_i_glide_ecoul>  (1) 
1.5055032342806216

>  <r_i_glide_eff_state_penalty>  (1) 
-0

>  <r_i_glide_einternal>  (1) 
0.8972080575925494

>  <r_i_glide_emodel>  (1) 
-32.846112361095656

>  <r_i_glide_emodel_strain>  (1) 
0

>  <r_i_glide_energy>  (1) 
-23.869900486352666

>  <r_i_glide_erotb>  (1) 
0

>  <r_i_glide_esite>  (1) 
-0.14918293642576611

>  <r_i_glide_evdw>  (1) 
-25.375403720633287

>  <r_i_glide_gscore>  (1) 
-5.3467166088776148

>  <r_i_glide_gscore_strain>  (1) 
0

>  <r_i_glide_hbond>  (1) 
0

>  <r_i_glide_ligand_efficiency>  (1) 
-0.41128589299058577

>  <r_i_glide_ligand_efficiency_ln>  (1) 
-1.4998015603466541

>  <r_i_glide_ligand_efficiency_sa>  (1) 
-0.96707078675897196

>  <r_i_glide_lipo>  (1) 
-1.5604463637928647

>  <r_i_glide_metal>  (1) 
-0

>  <r_i_glide_rewards>  (1) 
-2.5941426077694119

>  <r_lp_Energy>  (1) 
13.450968999999999

>  <r_lp_tautomer_probability>  (1) 
1

>  <s_epik_cmdline>  (1) 
J2VwaWtfcHl0aG9uJywgJy1waHQnLCAnMS4wJywgJy1waCcsICc3LjQnLCAnLXRuJywgJzgnLCAnLW1hJywgJzUwMCcsICctaW1hZScsICc8aW5maWxlLm1hZT4nLCAnLW9tYWUnLCAnPG91dGZpbGUubWFlPic=

>  <s_epik_input>  (1) 
TzFbQ0gyXVtDSDJdYyhjMTIpW2NIXWMoW2NIXVtjSF0yKVtOSF1DKD1PKVtOSDJd

>  <s_glide_docking_method>  (1) 
confgen

>  <s_i_glide_gridfile>  (1) 
gpcr_drd2_6luq_protein_autoprepared_prepared

>  <s_lp_Force_Field>  (1) 
S-OPLS

>  <s_lp_Variant>  (1) 
Pocket2Mol_90_num_sample_100-1

>  <s_m_source_file>  (1) 
generated__ligand_Pocket2Mol_2026-05-06_prepared.sdf

>  <GenAI_Model>  (1) 
Pocket2Mol

>  <Protein>  (1) 
generic_title2

$$$$
Pocket2Mol_72_num_sample_100
     RDKit          3D

  0  0  0  0  0  0  0  0  0  0999 V3000
M  V30 BEGIN CTAB
M  V30 COUNTS 18 19 0 0 1
M  V30 BEGIN ATOM
M  V30 1 C 11.434839 8.552455 -4.960996 0
M  V30 2 O 10.342607 7.816423 -5.491684 0
M  V30 3 C 10.365083 7.538381 -6.837301 0
M  V30 4 C 9.432013 6.633971 -7.373330 0
M  V30 5 C 11.874201 9.637338 -5.942606 0
M  V30 6 C 11.314925 8.159321 -7.688192 0
M  V30 7 O 12.234906 9.042050 -7.177123 0
M  V30 8 C 9.434840 6.348606 -8.750673 0
M  V30 9 C 11.314500 7.869428 -9.067406 0
M  V30 10 F 12.219816 8.459168 -9.884609 0
M  V30 11 C 10.371266 6.969304 -9.597482 0
M  V30 12 H 11.118206 9.024296 -4.031661 0
M  V30 13 H 12.234841 7.867948 -4.691674 0
M  V30 14 H 8.705628 6.162701 -6.727065 0
M  V30 15 H 11.079459 10.367961 -6.099035 0
M  V30 16 H 12.737585 10.169300 -5.546572 0
M  V30 17 H 8.711332 5.658323 -9.159431 0
M  V30 18 H 10.368157 6.751902 -10.655046 0
M  V30 END ATOM
M  V30 BEGIN BOND
M  V30 1 1 2 1
M  V30 2 1 3 2
M  V30 3 2 4 3
M  V30 4 1 5 1
M  V30 5 1 6 3
M  V30 6 1 7 5
M  V30 7 1 7 6
M  V30 8 1 8 4
M  V30 9 2 9 6
M  V30 10 1 10 9
M  V30 11 2 11 8
M  V30 12 1 11 9
M  V30 13 1 12 1
M  V30 14 1 13 1
M  V30 15 1 14 4
M  V30 16 1 15 5
M  V30 17 1 16 5
M  V30 18 1 17 8
M  V30 19 1 18 11
M  V30 END BOND
M  V30 END CTAB
M  END
>  <i_epik_Tot_Q>  (1) 
0

>  <i_epik_Tot_abs_Q>  (1) 
0

>  <i_i_glide_confnum>  (1) 
2

>  <i_i_glide_lignum>  (1) 
79

>  <i_i_glide_posenum>  (1) 
190

>  <i_i_glide_rotatable_bonds>  (1) 
0

>  <i_lp_mmshare_version>  (1) 
72125

>  <i_m_source_file_index>  (1) 
73

>  <i_f3d_flags>  (1) 
0

>  <num_sample>  (1) 
100

>  <b_lp_Chiralities_Consistent>  (1) 
1

>  <r_epik_Charging_Adjusted_Penalty>  (1) 
0

>  <r_epik_Ionization_Penalty>  (1) 
0

>  <r_epik_Ionization_Penalty_Charging>  (1) 
0

>  <r_epik_Ionization_Penalty_Neutral>  (1) 
0

>  <r_epik_State_Penalty>  (1) 
-0

>  <r_glide_ring_energy>  (1) 
0.0030882705297212471

>  <r_i_docking_score>  (1) 
-5.3401016504813246

>  <r_i_glide_ecoul>  (1) 
0.018708123644323921

>  <r_i_glide_eff_state_penalty>  (1) 
-0

>  <r_i_glide_einternal>  (1) 
0

>  <r_i_glide_emodel>  (1) 
-26.151376158300799

>  <r_i_glide_emodel_strain>  (1) 
0

>  <r_i_glide_energy>  (1) 
-19.156097333783144

>  <r_i_glide_erotb>  (1) 
0

>  <r_i_glide_esite>  (1) 
0

>  <r_i_glide_evdw>  (1) 
-19.174805457427468

>  <r_i_glide_gscore>  (1) 
-5.3401016504813246

>  <r_i_glide_gscore_strain>  (1) 
0

>  <r_i_glide_hbond>  (1) 
0

>  <r_i_glide_ligand_efficiency>  (1) 
-0.48546378640739313

>  <r_i_glide_ligand_efficiency_ln>  (1) 
-1.5715910061240441

>  <r_i_glide_ligand_efficiency_sa>  (1) 
-1.0796617956624373

>  <r_i_glide_lipo>  (1) 
-1.0459423049895256

>  <r_i_glide_metal>  (1) 
-0

>  <r_i_glide_rewards>  (1) 
-3.338225291167074

>  <r_lp_Energy>  (1) 
17.335863

>  <r_lp_tautomer_probability>  (1) 
1

>  <s_epik_cmdline>  (1) 
J2VwaWtfcHl0aG9uJywgJy1waHQnLCAnMS4wJywgJy1waCcsICc3LjQnLCAnLXRuJywgJzgnLCAnLW1hJywgJzUwMCcsICctaW1hZScsICc8aW5maWxlLm1hZT4nLCAnLW9tYWUnLCAnPG91dGZpbGUubWFlPic=

>  <s_epik_input>  (1) 
TzFbQ0gyXVtDSDJdT2MoYzEyKWMoRilbY0hdW2NIXVtjSF0y

>  <s_glide_docking_method>  (1) 
confgen

>  <s_i_glide_gridfile>  (1) 
gpcr_drd2_6luq_protein_autoprepared_prepared

>  <s_lp_Force_Field>  (1) 
S-OPLS

>  <s_lp_Variant>  (1) 
Pocket2Mol_72_num_sample_100-1

>  <s_m_source_file>  (1) 
generated__ligand_Pocket2Mol_2026-05-06_prepared.sdf

>  <GenAI_Model>  (1) 
Pocket2Mol

>  <Protein>  (1) 
generic_title2

$$$$
Pocket2Mol_51_num_sample_100
     RDKit          3D

  0  0  0  0  0  0  0  0  0  0999 V3000
M  V30 BEGIN CTAB
M  V30 COUNTS 15 16 0 0 1
M  V30 BEGIN ATOM
M  V30 1 C 9.434833 6.240746 -10.315773 0
M  V30 2 O 10.388374 7.334978 -10.172023 0
M  V30 3 C 10.547715 7.515022 -8.829448 0
M  V30 4 C 9.925908 6.622861 -7.992389 0
M  V30 5 C 10.026676 6.737461 -6.596978 0
M  V30 6 C 11.315397 8.569732 -8.304779 0
M  V30 7 C 11.434311 8.709835 -6.902472 0
M  V30 8 S 9.029716 5.369316 -8.729333 0
M  V30 9 F 12.165221 9.723238 -6.379490 0
M  V30 10 C 10.785585 7.790636 -6.046124 0
M  V30 11 H 8.511090 6.629401 -10.743935 0
M  V30 12 H 9.831430 5.517195 -11.027917 0
M  V30 13 H 9.528222 6.029593 -5.953494 0
M  V30 14 H 11.804579 9.269880 -8.966167 0
M  V30 15 H 10.871679 7.894023 -4.975322 0
M  V30 END ATOM
M  V30 BEGIN BOND
M  V30 1 1 2 1
M  V30 2 1 3 2
M  V30 3 2 4 3
M  V30 4 1 5 4
M  V30 5 1 6 3
M  V30 6 2 7 6
M  V30 7 1 8 1
M  V30 8 1 8 4
M  V30 9 1 9 7
M  V30 10 2 10 5
M  V30 11 1 10 7
M  V30 12 1 11 1
M  V30 13 1 12 1
M  V30 14 1 13 5
M  V30 15 1 14 6
M  V30 16 1 15 10
M  V30 END BOND
M  V30 END CTAB
M  END
>  <i_epik_Tot_Q>  (1) 
0

>  <i_epik_Tot_abs_Q>  (1) 
0

>  <i_i_glide_confnum>  (1) 
1

>  <i_i_glide_lignum>  (1) 
58

>  <i_i_glide_posenum>  (1) 
67

>  <i_i_glide_rotatable_bonds>  (1) 
0

>  <i_lp_mmshare_version>  (1) 
72125

>  <i_m_source_file_index>  (1) 
52

>  <i_f3d_flags>  (1) 
0

>  <num_sample>  (1) 
100

>  <b_lp_Chiralities_Consistent>  (1) 
1

>  <r_epik_Charging_Adjusted_Penalty>  (1) 
0

>  <r_epik_Ionization_Penalty>  (1) 
0

>  <r_epik_Ionization_Penalty_Charging>  (1) 
0

>  <r_epik_Ionization_Penalty_Neutral>  (1) 
0

>  <r_epik_State_Penalty>  (1) 
-0

>  <r_glide_ring_energy>  (1) 
0

>  <r_i_docking_score>  (1) 
-5.3391429686012621

>  <r_i_glide_ecoul>  (1) 
-0.84614502035158534

>  <r_i_glide_eff_state_penalty>  (1) 
-0

>  <r_i_glide_einternal>  (1) 
0

>  <r_i_glide_emodel>  (1) 
-28.167628410572028

>  <r_i_glide_emodel_strain>  (1) 
0

>  <r_i_glide_energy>  (1) 
-21.376419229982176

>  <r_i_glide_erotb>  (1) 
0

>  <r_i_glide_esite>  (1) 
0

>  <r_i_glide_evdw>  (1) 
-20.530274209630591

>  <r_i_glide_gscore>  (1) 
-5.3391429686012621

>  <r_i_glide_gscore_strain>  (1) 
0

>  <r_i_glide_hbond>  (1) 
0

>  <r_i_glide_ligand_efficiency>  (1) 
-0.53391429686012626

>  <r_i_glide_ligand_efficiency_ln>  (1) 
-1.6166556858527212

>  <r_i_glide_ligand_efficiency_sa>  (1) 
-1.1502834826594373

>  <r_i_glide_lipo>  (1) 
-0.83214975376844025

>  <r_i_glide_metal>  (1) 
-0

>  <r_i_glide_rewards>  (1) 
-3.3535577512985544

>  <r_lp_Energy>  (1) 
4.072584

>  <r_lp_tautomer_probability>  (1) 
1

>  <s_epik_Chemistry_Notes>  (1) 
This compound contains an acetal/aminal-like group ( X-CH(R)-Y where X, Y are N, S, or O) that may be acid/base labile, releasing an aldehyde.

>  <s_epik_cmdline>  (1) 
J2VwaWtfcHl0aG9uJywgJy1waHQnLCAnMS4wJywgJy1waCcsICc3LjQnLCAnLXRuJywgJzgnLCAnLW1hJywgJzUwMCcsICctaW1hZScsICc8aW5maWxlLm1hZT4nLCAnLW9tYWUnLCAnPG91dGZpbGUubWFlPic=

>  <s_epik_input>  (1) 
TzFbQ0gyXVNjKGMxMilbY0hdW2NIXWMoRilbY0hdMg==

>  <s_glide_docking_method>  (1) 
confgen

>  <s_i_glide_gridfile>  (1) 
gpcr_drd2_6luq_protein_autoprepared_prepared

>  <s_lp_Force_Field>  (1) 
S-OPLS

>  <s_lp_Variant>  (1) 
Pocket2Mol_51_num_sample_100-1

>  <s_m_source_file>  (1) 
generated__ligand_Pocket2Mol_2026-05-06_prepared.sdf

>  <GenAI_Model>  (1) 
Pocket2Mol

>  <Protein>  (1) 
generic_title2

$$$$
Pocket2Mol_93_num_sample_100
     RDKit          3D

  0  0  0  0  0  0  0  0  0  0999 V3000
M  V30 BEGIN CTAB
M  V30 COUNTS 23 25 0 0 1
M  V30 BEGIN ATOM
M  V30 1 C 11.423431 8.801932 -5.683200 0
M  V30 2 O 11.715977 9.256563 -7.058861 0
M  V30 3 C 11.087910 8.311362 -7.795427 0
M  V30 4 C 10.563615 7.279626 -7.099659 0
M  V30 5 C 9.875908 6.233218 -7.737640 0
M  V30 6 C 9.731201 6.263899 -9.141608 0
M  V30 7 O 9.057197 5.249208 -9.782741 0
M  V30 8 C 10.767107 7.345304 -5.651697 0
M  V30 9 C 10.290862 7.351116 -9.882378 0
M  V30 10 O 10.171343 7.403115 -11.255076 0
M  V30 11 C 10.973249 8.381806 -9.194891 0
M  V30 12 C 8.608658 5.560782 -11.093440 0
M  V30 13 C 9.756199 6.196543 -11.885072 0
M  V30 14 H 12.315478 8.854469 -5.060042 0
M  V30 15 H 10.714217 9.514411 -5.259594 0
M  V30 16 H 9.460349 5.419011 -7.162728 0
M  V30 17 H 9.834855 7.295805 -5.091667 0
M  V30 18 H 11.460570 6.571187 -5.322261 0
M  V30 19 H 11.399380 9.212298 -9.737294 0
M  V30 20 H 8.276394 4.641590 -11.576069 0
M  V30 21 H 7.748282 6.229078 -11.049524 0
M  V30 22 H 10.598768 5.509896 -11.965594 0
M  V30 23 H 9.431479 6.421358 -12.900520 0
M  V30 END ATOM
M  V30 BEGIN BOND
M  V30 1 1 2 1
M  V30 2 1 3 2
M  V30 3 1 4 3
M  V30 4 2 5 4
M  V30 5 1 6 5
M  V30 6 1 7 6
M  V30 7 1 8 1
M  V30 8 1 8 4
M  V30 9 2 9 6
M  V30 10 1 10 9
M  V30 11 2 11 3
M  V30 12 1 11 9
M  V30 13 1 12 7
M  V30 14 1 13 10
M  V30 15 1 13 12
M  V30 16 1 14 1
M  V30 17 1 15 1
M  V30 18 1 16 5
M  V30 19 1 17 8
M  V30 20 1 18 8
M  V30 21 1 19 11
M  V30 22 1 20 12
M  V30 23 1 21 12
M  V30 24 1 22 13
M  V30 25 1 23 13
M  V30 END BOND
M  V30 END CTAB
M  END
>  <i_epik_Tot_Q>  (1) 
0

>  <i_epik_Tot_abs_Q>  (1) 
0

>  <i_i_glide_confnum>  (1) 
2

>  <i_i_glide_lignum>  (1) 
102

>  <i_i_glide_posenum>  (1) 
26

>  <i_i_glide_rotatable_bonds>  (1) 
0

>  <i_lp_mmshare_version>  (1) 
72125

>  <i_m_source_file_index>  (1) 
94

>  <i_f3d_flags>  (1) 
0

>  <num_sample>  (1) 
100

>  <b_lp_Chiralities_Consistent>  (1) 
1

>  <r_epik_Charging_Adjusted_Penalty>  (1) 
0

>  <r_epik_Ionization_Penalty>  (1) 
0

>  <r_epik_Ionization_Penalty_Charging>  (1) 
0

>  <r_epik_Ionization_Penalty_Neutral>  (1) 
0

>  <r_epik_State_Penalty>  (1) 
-0

>  <r_glide_ring_energy>  (1) 
0.0016243131038040329

>  <r_i_docking_score>  (1) 
-5.3289685607730348

>  <r_i_glide_ecoul>  (1) 
-0.42714801839238409

>  <r_i_glide_eff_state_penalty>  (1) 
-0

>  <r_i_glide_einternal>  (1) 
0

>  <r_i_glide_emodel>  (1) 
-33.06872942186159

>  <r_i_glide_emodel_strain>  (1) 
2.6548363507572503e-09

>  <r_i_glide_energy>  (1) 
-24.217330452289531

>  <r_i_glide_erotb>  (1) 
0

>  <r_i_glide_esite>  (1) 
0

>  <r_i_glide_evdw>  (1) 
-23.790182433897147

>  <r_i_glide_gscore>  (1) 
-5.3289685607730348

>  <r_i_glide_gscore_strain>  (1) 
0

>  <r_i_glide_hbond>  (1) 
0

>  <r_i_glide_ligand_efficiency>  (1) 
-0.40992065852100268

>  <r_i_glide_ligand_efficiency_ln>  (1) 
-1.4948230750092866

>  <r_i_glide_ligand_efficiency_sa>  (1) 
-0.96386066359376921

>  <r_i_glide_lipo>  (1) 
-0.98122405450113737

>  <r_i_glide_metal>  (1) 
-0

>  <r_i_glide_rewards>  (1) 
-3.0941631818181818

>  <r_lp_Energy>  (1) 
18.084001999999998

>  <r_lp_tautomer_probability>  (1) 
1

>  <s_epik_cmdline>  (1) 
J2VwaWtfcHl0aG9uJywgJy1waHQnLCAnMS4wJywgJy1waCcsICc3LjQnLCAnLXRuJywgJzgnLCAnLW1hJywgJzUwMCcsICctaW1hZScsICc8aW5maWxlLm1hZT4nLCAnLW9tYWUnLCAnPG91dGZpbGUubWFlPic=

>  <s_epik_input>  (1) 
TzFbQ0gyXVtDSDJdYyhjMTIpW2NIXWMzYyhbY0hdMilPW0NIMl1bQ0gyXU8z

>  <s_glide_docking_method>  (1) 
confgen

>  <s_i_glide_gridfile>  (1) 
gpcr_drd2_6luq_protein_autoprepared_prepared

>  <s_lp_Force_Field>  (1) 
S-OPLS

>  <s_lp_Variant>  (1) 
Pocket2Mol_93_num_sample_100-1

>  <s_m_source_file>  (1) 
generated__ligand_Pocket2Mol_2026-05-06_prepared.sdf

>  <GenAI_Model>  (1) 
Pocket2Mol

>  <Protein>  (1) 
generic_title2

$$$$
Pocket2Mol_80_num_sample_100
     RDKit          3D

  0  0  0  0  0  0  0  0  0  0999 V3000
M  V30 BEGIN CTAB
M  V30 COUNTS 19 20 0 0 1
M  V30 BEGIN ATOM
M  V30 1 C 11.663817 8.984676 -5.535690 0
M  V30 2 O 12.141938 9.369298 -6.880156 0
M  V30 3 C 11.431009 8.533496 -7.670081 0
M  V30 4 C 10.700167 7.601526 -7.024859 0
M  V30 5 C 9.900355 6.679311 -7.719703 0
M  V30 6 C 10.806864 7.636450 -5.568199 0
M  V30 7 C 9.866191 6.729789 -9.135726 0
M  V30 8 N 9.034836 5.774646 -9.895534 0 CHG=1
M  V30 9 O 8.368860 4.969308 -9.255092 0 CHG=-1
M  V30 10 O 9.064654 5.843697 -11.120891 0
M  V30 11 C 10.643309 7.708804 -9.816445 0
M  V30 12 C 11.432493 8.617025 -9.073131 0
M  V30 13 H 12.495160 8.920589 -4.833282 0
M  V30 14 H 11.031499 9.800256 -5.181580 0
M  V30 15 H 9.319329 5.944604 -7.180937 0
M  V30 16 H 9.834839 7.714191 -5.091667 0
M  V30 17 H 11.356450 6.770436 -5.198255 0
M  V30 18 H 10.629275 7.761958 -10.894903 0
M  V30 19 H 12.023826 9.368556 -9.576192 0
M  V30 END ATOM
M  V30 BEGIN BOND
M  V30 1 1 2 1
M  V30 2 1 3 2
M  V30 3 2 4 3
M  V30 4 1 5 4
M  V30 5 1 6 1
M  V30 6 1 6 4
M  V30 7 2 7 5
M  V30 8 1 8 7
M  V30 9 1 9 8
M  V30 10 2 10 8
M  V30 11 1 11 7
M  V30 12 1 12 3
M  V30 13 2 12 11
M  V30 14 1 13 1
M  V30 15 1 14 1
M  V30 16 1 15 5
M  V30 17 1 16 6
M  V30 18 1 17 6
M  V30 19 1 18 11
M  V30 20 1 19 12
M  V30 END BOND
M  V30 END CTAB
M  END
>  <i_epik_Tot_Q>  (1) 
0

>  <i_epik_Tot_abs_Q>  (1) 
2

>  <i_i_glide_confnum>  (1) 
1

>  <i_i_glide_lignum>  (1) 
87

>  <i_i_glide_posenum>  (1) 
336

>  <i_i_glide_rotatable_bonds>  (1) 
1

>  <i_lp_mmshare_version>  (1) 
72125

>  <i_m_source_file_index>  (1) 
81

>  <i_f3d_flags>  (1) 
0

>  <num_sample>  (1) 
100

>  <b_lp_Chiralities_Consistent>  (1) 
1

>  <r_epik_Charging_Adjusted_Penalty>  (1) 
0

>  <r_epik_Ionization_Penalty>  (1) 
0

>  <r_epik_Ionization_Penalty_Charging>  (1) 
0

>  <r_epik_Ionization_Penalty_Neutral>  (1) 
0

>  <r_epik_State_Penalty>  (1) 
-0

>  <r_glide_ring_energy>  (1) 
0

>  <r_i_docking_score>  (1) 
-5.3281072880121521

>  <r_i_glide_ecoul>  (1) 
-0.3392782885630331

>  <r_i_glide_eff_state_penalty>  (1) 
-0

>  <r_i_glide_einternal>  (1) 
0.0075049575613299613

>  <r_i_glide_emodel>  (1) 
-32.059973034458807

>  <r_i_glide_emodel_strain>  (1) 
0.0011712247139890053

>  <r_i_glide_energy>  (1) 
-23.310644132843301

>  <r_i_glide_erotb>  (1) 
0

>  <r_i_glide_esite>  (1) 
-0.18224369917624073

>  <r_i_glide_evdw>  (1) 
-22.971365844280268

>  <r_i_glide_gscore>  (1) 
-5.3281072880121521

>  <r_i_glide_gscore_strain>  (1) 
0

>  <r_i_glide_hbond>  (1) 
0

>  <r_i_glide_ligand_efficiency>  (1) 
-0.44400894066767932

>  <r_i_glide_ligand_efficiency_ln>  (1) 
-1.5289096160829101

>  <r_i_glide_ligand_efficiency_sa>  (1) 
-1.0165267164066196

>  <r_i_glide_lipo>  (1) 
-1.0714081341237971

>  <r_i_glide_metal>  (1) 
-0

>  <r_i_glide_rewards>  (1) 
-2.8749954192136449

>  <r_lp_Energy>  (1) 
14.797289999999998

>  <r_lp_tautomer_probability>  (1) 
1

>  <s_epik_cmdline>  (1) 
J2VwaWtfcHl0aG9uJywgJy1waHQnLCAnMS4wJywgJy1waCcsICc3LjQnLCAnLXRuJywgJzgnLCAnLW1hJywgJzUwMCcsICctaW1hZScsICc8aW5maWxlLm1hZT4nLCAnLW9tYWUnLCAnPG91dGZpbGUubWFlPic=

>  <s_epik_input>  (1) 
TzFbQ0gyXVtDSDJdYyhjMTIpW2NIXWMoW04rXShbTy1dKT1PKVtjSF1bY0hdMg==

>  <s_glide_docking_method>  (1) 
confgen

>  <s_i_glide_gridfile>  (1) 
gpcr_drd2_6luq_protein_autoprepared_prepared

>  <s_lp_Force_Field>  (1) 
S-OPLS

>  <s_lp_Variant>  (1) 
Pocket2Mol_80_num_sample_100-1

>  <s_m_source_file>  (1) 
generated__ligand_Pocket2Mol_2026-05-06_prepared.sdf

>  <GenAI_Model>  (1) 
Pocket2Mol

>  <Protein>  (1) 
generic_title2

$$$$
Pocket2Mol_24_num_sample_100
     RDKit          3D

  0  0  0  0  0  0  0  0  0  0999 V3000
M  V30 BEGIN CTAB
M  V30 COUNTS 15 16 0 0 1
M  V30 BEGIN ATOM
M  V30 1 C 11.036847 8.156444 -5.856116 0
M  V30 2 O 11.685763 8.783936 -6.974746 0
M  V30 3 C 11.289051 8.187074 -8.208659 0 CFG=2
M  V30 4 C 9.812568 8.229222 -8.480435 0 CFG=1
M  V30 5 O 9.435141 7.964159 -9.813672 0
M  V30 6 C 10.472963 6.828099 -6.369421 0
M  V30 7 C 10.439845 7.007355 -7.846566 0 CFG=2
M  V30 8 H 11.724703 8.027563 -5.017478 0
M  V30 9 H 10.228151 8.794860 -5.499988 0
M  V30 10 H 12.021189 8.144738 -9.009300 0
M  V30 11 H 9.148049 8.874184 -7.905172 0
M  V30 12 H 8.476453 7.769316 -9.806572 0
M  V30 13 H 11.141443 5.993046 -6.136337 0
M  V30 14 H 9.478700 6.604705 -5.983701 0
M  V30 15 H 10.485503 6.102663 -8.449083 0
M  V30 END ATOM
M  V30 BEGIN BOND
M  V30 1 1 2 1
M  V30 2 1 3 2
M  V30 3 1 4 3
M  V30 4 1 5 4
M  V30 5 1 6 1
M  V30 6 1 7 3
M  V30 7 1 7 4
M  V30 8 1 7 6
M  V30 9 1 8 1
M  V30 10 1 9 1
M  V30 11 1 3 10 CFG=3
M  V30 12 1 4 11 CFG=1
M  V30 13 1 12 5
M  V30 14 1 13 6
M  V30 15 1 14 6
M  V30 16 1 7 15 CFG=3
M  V30 END BOND
M  V30 END CTAB
M  END
>  <i_epik_Tot_Q>  (1) 
0

>  <i_epik_Tot_abs_Q>  (1) 
0

>  <i_i_glide_confnum>  (1) 
1

>  <i_i_glide_lignum>  (1) 
28

>  <i_i_glide_posenum>  (1) 
391

>  <i_i_glide_rotatable_bonds>  (1) 
1

>  <i_lp_mmshare_version>  (1) 
72125

>  <i_m_source_file_index>  (1) 
25

>  <i_f3d_flags>  (1) 
0

>  <num_sample>  (1) 
100

>  <b_lp_Chiralities_Consistent>  (1) 
1

>  <r_epik_Charging_Adjusted_Penalty>  (1) 
0

>  <r_epik_Ionization_Penalty>  (1) 
4.3639151522347116e-08

>  <r_epik_Ionization_Penalty_Charging>  (1) 
0

>  <r_epik_Ionization_Penalty_Neutral>  (1) 
4.3639151522347116e-08

>  <r_epik_State_Penalty>  (1) 
-0

>  <r_glide_ring_energy>  (1) 
0

>  <r_i_docking_score>  (1) 
-5.3178440719613489

>  <r_i_glide_ecoul>  (1) 
-8.1785246931372484

>  <r_i_glide_eff_state_penalty>  (1) 
-0

>  <r_i_glide_einternal>  (1) 
0.30669704553063082

>  <r_i_glide_emodel>  (1) 
-27.618479847823568

>  <r_i_glide_emodel_strain>  (1) 
0.027331080376484351

>  <r_i_glide_energy>  (1) 
-20.561378476846592

>  <r_i_glide_erotb>  (1) 
0

>  <r_i_glide_esite>  (1) 
0

>  <r_i_glide_evdw>  (1) 
-12.382853783709345

>  <r_i_glide_gscore>  (1) 
-5.3178440719613489

>  <r_i_glide_gscore_strain>  (1) 
0

>  <r_i_glide_hbond>  (1) 
-0.16

>  <r_i_glide_ligand_efficiency>  (1) 
-0.75969201028019273

>  <r_i_glide_ligand_efficiency_ln>  (1) 
-1.8051616657984837

>  <r_i_glide_ligand_efficiency_sa>  (1) 
-1.4532385357680231

>  <r_i_glide_lipo>  (1) 
-0.74249932635888172

>  <r_i_glide_metal>  (1) 
-0

>  <r_i_glide_rewards>  (1) 
-2.569423352446413

>  <r_lp_Energy>  (1) 
3.2309049999999999

>  <r_lp_tautomer_probability>  (1) 
1

>  <s_epik_cmdline>  (1) 
J2VwaWtfcHl0aG9uJywgJy1waHQnLCAnMS4wJywgJy1waCcsICc3LjQnLCAnLXRuJywgJzgnLCAnLW1hJywgJzUwMCcsICctaW1hZScsICc8aW5maWxlLm1hZT4nLCAnLW9tYWUnLCAnPG91dGZpbGUubWFlPic=

>  <s_epik_input>  (1) 
TzFbQ0gyXVtDSDJdW0NIXShbQ0BIXTEyKVtDQEBIXTJbT0hd

>  <s_glide_docking_method>  (1) 
confgen

>  <s_i_glide_gridfile>  (1) 
gpcr_drd2_6luq_protein_autoprepared_prepared

>  <s_lp_Force_Field>  (1) 
S-OPLS

>  <s_lp_Variant>  (1) 
Pocket2Mol_24_num_sample_100-1

>  <s_m_source_file>  (1) 
generated__ligand_Pocket2Mol_2026-05-06_prepared.sdf

>  <GenAI_Model>  (1) 
Pocket2Mol

>  <Protein>  (1) 
generic_title2

$$$$
Pocket2Mol_29_num_sample_100
     RDKit          3D

  0  0  0  0  0  0  0  0  0  0999 V3000
M  V30 BEGIN CTAB
M  V30 COUNTS 18 18 0 0 1
M  V30 BEGIN ATOM
M  V30 1 C 9.575805 6.464588 -7.686063 0
M  V30 2 O 10.270290 6.583391 -9.054034 0
M  V30 3 C 10.383437 8.037963 -9.539472 0
M  V30 4 C 11.624910 8.804708 -9.048341 0
M  V30 5 O 12.711448 8.518241 -9.900088 0
M  V30 6 C 10.423517 6.923132 -6.489607 0
M  V30 7 C 12.072136 8.539896 -7.599125 0
M  V30 8 O 10.935682 8.371504 -6.577193 0
M  V30 9 H 8.634474 7.013916 -7.701417 0
M  V30 10 H 9.300287 5.422189 -7.526077 0
M  V30 11 H 9.482210 8.584342 -9.261335 0
M  V30 12 H 10.394300 8.047918 -10.629373 0
M  V30 13 H 11.435186 9.870659 -9.174248 0
M  V30 14 H 13.304895 9.253681 -9.885493 0
M  V30 15 H 9.860411 6.786281 -5.566415 0
M  V30 16 H 11.281549 6.255990 -6.407128 0
M  V30 17 H 12.718842 7.662949 -7.570236 0
M  V30 18 H 12.707596 9.369374 -7.288871 0
M  V30 END ATOM
M  V30 BEGIN BOND
M  V30 1 1 2 1
M  V30 2 1 3 2
M  V30 3 1 4 3
M  V30 4 1 5 4
M  V30 5 1 6 1
M  V30 6 1 7 4
M  V30 7 1 8 6
M  V30 8 1 8 7
M  V30 9 1 9 1
M  V30 10 1 10 1
M  V30 11 1 11 3
M  V30 12 1 12 3
M  V30 13 1 13 4
M  V30 14 1 14 5
M  V30 15 1 15 6
M  V30 16 1 16 6
M  V30 17 1 17 7
M  V30 18 1 18 7
M  V30 END BOND
M  V30 END CTAB
M  END
>  <i_epik_Tot_Q>  (1) 
0

>  <i_epik_Tot_abs_Q>  (1) 
0

>  <i_i_glide_confnum>  (1) 
7

>  <i_i_glide_lignum>  (1) 
33

>  <i_i_glide_posenum>  (1) 
248

>  <i_i_glide_rotatable_bonds>  (1) 
1

>  <i_lp_mmshare_version>  (1) 
72125

>  <i_m_source_file_index>  (1) 
30

>  <i_f3d_flags>  (1) 
0

>  <num_sample>  (1) 
100

>  <b_lp_Chiralities_Consistent>  (1) 
1

>  <r_epik_Charging_Adjusted_Penalty>  (1) 
0

>  <r_epik_Ionization_Penalty>  (1) 
1.4561355789117501e-07

>  <r_epik_Ionization_Penalty_Charging>  (1) 
0

>  <r_epik_Ionization_Penalty_Neutral>  (1) 
1.4561355789117501e-07

>  <r_epik_State_Penalty>  (1) 
-0

>  <r_glide_ring_energy>  (1) 
0.30599859261314222

>  <r_i_docking_score>  (1) 
-5.317676164506695

>  <r_i_glide_ecoul>  (1) 
-3.790140776164602

>  <r_i_glide_eff_state_penalty>  (1) 
-0

>  <r_i_glide_einternal>  (1) 
0.67388870995915062

>  <r_i_glide_emodel>  (1) 
-25.683316612046905

>  <r_i_glide_emodel_strain>  (1) 
2.4009273047246111

>  <r_i_glide_energy>  (1) 
-20.783676877216035

>  <r_i_glide_erotb>  (1) 
0

>  <r_i_glide_esite>  (1) 
0

>  <r_i_glide_evdw>  (1) 
-16.993536101051433

>  <r_i_glide_gscore>  (1) 
-5.317676164506695

>  <r_i_glide_gscore_strain>  (1) 
0

>  <r_i_glide_hbond>  (1) 
-0.32000000000000001

>  <r_i_glide_ligand_efficiency>  (1) 
-0.66470952056333688

>  <r_i_glide_ligand_efficiency_ln>  (1) 
-1.7268313402065434

>  <r_i_glide_ligand_efficiency_sa>  (1) 
-1.329419041126674

>  <r_i_glide_lipo>  (1) 
-0.8378115763627666

>  <r_i_glide_metal>  (1) 
-0

>  <r_i_glide_rewards>  (1) 
-2.7416666666666667

>  <r_lp_Energy>  (1) 
13.809562999999999

>  <r_lp_tautomer_probability>  (1) 
1

>  <s_epik_cmdline>  (1) 
J2VwaWtfcHl0aG9uJywgJy1waHQnLCAnMS4wJywgJy1waCcsICc3LjQnLCAnLXRuJywgJzgnLCAnLW1hJywgJzUwMCcsICctaW1hZScsICc8aW5maWxlLm1hZT4nLCAnLW9tYWUnLCAnPG91dGZpbGUubWFlPic=

>  <s_epik_input>  (1) 
W0NIMl0xT1tDSDJdW0NIMl1PW0NIMl1bQ0hdMVtPSF0=

>  <s_glide_docking_method>  (1) 
confgen

>  <s_i_glide_gridfile>  (1) 
gpcr_drd2_6luq_protein_autoprepared_prepared

>  <s_lp_Force_Field>  (1) 
S-OPLS

>  <s_lp_Variant>  (1) 
Pocket2Mol_29_num_sample_100-1

>  <s_m_source_file>  (1) 
generated__ligand_Pocket2Mol_2026-05-06_prepared.sdf

>  <GenAI_Model>  (1) 
Pocket2Mol

>  <Protein>  (1) 
generic_title2

$$$$
Pocket2Mol_45_num_sample_100
     RDKit          3D

  0  0  0  0  0  0  0  0  0  0999 V3000
M  V30 BEGIN CTAB
M  V30 COUNTS 14 15 0 0 1
M  V30 BEGIN ATOM
M  V30 1 C 9.754369 7.614771 -7.253847 0
M  V30 2 O 10.077765 6.570224 -6.281321 0
M  V30 3 C 10.851889 7.281238 -5.458612 0
M  V30 4 C 11.034842 8.538352 -5.820452 0
M  V30 5 C 11.827464 9.398236 -5.041693 0
M  V30 6 N 12.438206 8.989783 -3.891667 0
M  V30 7 C 12.234832 7.686144 -3.531915 0
M  V30 8 C 11.440418 6.789520 -4.291667 0
M  V30 9 O 10.412326 8.887426 -6.947482 0
M  V30 10 H 10.054095 7.284425 -8.249173 0
M  V30 11 H 8.672674 7.766285 -7.257113 0
M  V30 12 H 11.977420 10.427103 -5.333724 0
M  V30 13 H 12.713668 7.357393 -2.621305 0
M  V30 14 H 11.296067 5.769202 -3.980226 0
M  V30 END ATOM
M  V30 BEGIN BOND
M  V30 1 1 2 1
M  V30 2 1 3 2
M  V30 3 2 4 3
M  V30 4 1 5 4
M  V30 5 2 6 5
M  V30 6 1 7 6
M  V30 7 1 8 3
M  V30 8 2 8 7
M  V30 9 1 9 1
M  V30 10 1 9 4
M  V30 11 1 10 1
M  V30 12 1 11 1
M  V30 13 1 12 5
M  V30 14 1 13 7
M  V30 15 1 14 8
M  V30 END BOND
M  V30 END CTAB
M  END
>  <i_epik_Tot_Q>  (1) 
0

>  <i_epik_Tot_abs_Q>  (1) 
0

>  <i_i_glide_confnum>  (1) 
1

>  <i_i_glide_lignum>  (1) 
50

>  <i_i_glide_posenum>  (1) 
360

>  <i_i_glide_rotatable_bonds>  (1) 
0

>  <i_lp_mmshare_version>  (1) 
72125

>  <i_m_source_file_index>  (1) 
46

>  <i_f3d_flags>  (1) 
0

>  <num_sample>  (1) 
100

>  <b_lp_Chiralities_Consistent>  (1) 
1

>  <r_epik_Charging_Adjusted_Penalty>  (1) 
0.069790075728531922

>  <r_epik_Ionization_Penalty>  (1) 
0.069790075728531936

>  <r_epik_Ionization_Penalty_Charging>  (1) 
0

>  <r_epik_Ionization_Penalty_Neutral>  (1) 
0.069790075728531936

>  <r_epik_State_Penalty>  (1) 
0.069790075728531922

>  <r_glide_ring_energy>  (1) 
0

>  <r_i_docking_score>  (1) 
-5.3169407915420432

>  <r_i_glide_ecoul>  (1) 
-1.0685129231684805

>  <r_i_glide_eff_state_penalty>  (1) 
0.069790075728531922

>  <r_i_glide_einternal>  (1) 
0

>  <r_i_glide_emodel>  (1) 
-27.281539213085765

>  <r_i_glide_emodel_strain>  (1) 
9.3081098384573124e-13

>  <r_i_glide_energy>  (1) 
-20.25777187029221

>  <r_i_glide_erotb>  (1) 
0

>  <r_i_glide_esite>  (1) 
-0.058066946573294913

>  <r_i_glide_evdw>  (1) 
-19.189258947123729

>  <r_i_glide_gscore>  (1) 
-5.3867308672705754

>  <r_i_glide_gscore_strain>  (1) 
0

>  <r_i_glide_hbond>  (1) 
0

>  <r_i_glide_ligand_efficiency>  (1) 
-0.59077119906022701

>  <r_i_glide_ligand_efficiency_ln>  (1) 
-1.6629863379731284

>  <r_i_glide_ligand_efficiency_sa>  (1) 
-1.2288536142901547

>  <r_i_glide_lipo>  (1) 
-1.4899128484754844

>  <r_i_glide_metal>  (1) 
-0

>  <r_i_glide_rewards>  (1) 
-2.7190111863903379

>  <r_lp_Energy>  (1) 
21.238785

>  <r_lp_tautomer_probability>  (1) 
1

>  <s_epik_Chemistry_Notes>  (1) 
This compound contains an acetal/aminal-like group ( X-CH(R)-Y where X, Y are N, S, or O) that may be acid/base labile, releasing an aldehyde.

>  <s_epik_cmdline>  (1) 
J2VwaWtfcHl0aG9uJywgJy1waHQnLCAnMS4wJywgJy1waCcsICc3LjQnLCAnLXRuJywgJzgnLCAnLW1hJywgJzUwMCcsICctaW1hZScsICc8aW5maWxlLm1hZT4nLCAnLW9tYWUnLCAnPG91dGZpbGUubWFlPic=

>  <s_epik_input>  (1) 
TzFbQ0gyXU9jKGMxMilbY0hdbltjSF1bY0hdMg==

>  <s_glide_docking_method>  (1) 
confgen

>  <s_i_glide_gridfile>  (1) 
gpcr_drd2_6luq_protein_autoprepared_prepared

>  <s_lp_Force_Field>  (1) 
S-OPLS

>  <s_lp_Variant>  (1) 
Pocket2Mol_45_num_sample_100-1

>  <s_m_source_file>  (1) 
generated__ligand_Pocket2Mol_2026-05-06_prepared.sdf

>  <GenAI_Model>  (1) 
Pocket2Mol

>  <Protein>  (1) 
generic_title2

$$$$
Pocket2Mol_42_num_sample_100
     RDKit          3D

  0  0  0  0  0  0  0  0  0  0999 V3000
M  V30 BEGIN CTAB
M  V30 COUNTS 23 24 0 0 1
M  V30 BEGIN ATOM
M  V30 1 C 11.434904 8.858404 -5.416611 0
M  V30 2 O 11.098324 9.369304 -6.691411 0
M  V30 3 C 11.231812 8.349016 -7.678062 0 CFG=2
M  V30 4 C 12.502544 8.569303 -8.513282 0
M  V30 5 C 9.978961 8.300166 -8.559118 0
M  V30 6 C 10.968351 7.405213 -5.485602 0
M  V30 7 C 9.834774 6.825474 -8.905294 0
M  V30 8 C 11.249909 7.012564 -6.927704 0 CFG=1
M  V30 9 C 10.197380 6.116003 -7.603759 0
M  V30 10 H 12.511175 8.961510 -5.273476 0
M  V30 11 H 10.942926 9.421706 -4.624109 0
M  V30 12 H 12.686239 7.734074 -9.188084 0
M  V30 13 H 12.407422 9.457421 -9.134065 0
M  V30 14 H 13.383259 8.687143 -7.882354 0
M  V30 15 H 9.104393 8.616351 -7.987101 0
M  V30 16 H 10.038988 8.939887 -9.440092 0
M  V30 17 H 11.467447 6.760766 -4.761515 0
M  V30 18 H 9.897527 7.369103 -5.284218 0
M  V30 19 H 8.835415 6.569301 -9.256763 0
M  V30 20 H 10.542499 6.567307 -9.692501 0
M  V30 21 H 12.234640 6.553685 -6.997403 0
M  V30 22 H 9.304783 6.014771 -6.984647 0
M  V30 23 H 10.575744 5.114036 -7.803259 0
M  V30 END ATOM
M  V30 BEGIN BOND
M  V30 1 1 2 1
M  V30 2 1 3 2
M  V30 3 1 3 4 CFG=3
M  V30 4 1 5 3
M  V30 5 1 6 1
M  V30 6 1 7 5
M  V30 7 1 8 3
M  V30 8 1 8 6
M  V30 9 1 9 7
M  V30 10 1 9 8
M  V30 11 1 10 1
M  V30 12 1 11 1
M  V30 13 1 12 4
M  V30 14 1 13 4
M  V30 15 1 14 4
M  V30 16 1 15 5
M  V30 17 1 16 5
M  V30 18 1 17 6
M  V30 19 1 18 6
M  V30 20 1 19 7
M  V30 21 1 20 7
M  V30 22 1 8 21 CFG=1
M  V30 23 1 22 9
M  V30 24 1 23 9
M  V30 END BOND
M  V30 END CTAB
M  END
>  <i_epik_Tot_Q>  (1) 
0

>  <i_epik_Tot_abs_Q>  (1) 
0

>  <i_i_glide_confnum>  (1) 
4

>  <i_i_glide_lignum>  (1) 
47

>  <i_i_glide_posenum>  (1) 
113

>  <i_i_glide_rotatable_bonds>  (1) 
0

>  <i_lp_mmshare_version>  (1) 
72125

>  <i_m_source_file_index>  (1) 
43

>  <i_f3d_flags>  (1) 
0

>  <num_sample>  (1) 
100

>  <b_lp_Chiralities_Consistent>  (1) 
1

>  <r_epik_Charging_Adjusted_Penalty>  (1) 
0

>  <r_epik_Ionization_Penalty>  (1) 
2.4347883345708157e-11

>  <r_epik_Ionization_Penalty_Charging>  (1) 
0

>  <r_epik_Ionization_Penalty_Neutral>  (1) 
2.4347883345708157e-11

>  <r_epik_State_Penalty>  (1) 
-0

>  <r_glide_ring_energy>  (1) 
1.4300080397860451

>  <r_i_docking_score>  (1) 
-5.3158892516688372

>  <r_i_glide_ecoul>  (1) 
-0.38946738383701179

>  <r_i_glide_eff_state_penalty>  (1) 
-0

>  <r_i_glide_einternal>  (1) 
0

>  <r_i_glide_emodel>  (1) 
-24.420227167145516

>  <r_i_glide_emodel_strain>  (1) 
0

>  <r_i_glide_energy>  (1) 
-18.79314997578502

>  <r_i_glide_erotb>  (1) 
0

>  <r_i_glide_esite>  (1) 
0

>  <r_i_glide_evdw>  (1) 
-18.403682591948009

>  <r_i_glide_gscore>  (1) 
-5.3158892516688372

>  <r_i_glide_gscore_strain>  (1) 
0

>  <r_i_glide_hbond>  (1) 
0

>  <r_i_glide_ligand_efficiency>  (1) 
-0.59065436129653748

>  <r_i_glide_ligand_efficiency_ln>  (1) 
-1.662657446508744

>  <r_i_glide_ligand_efficiency_sa>  (1) 
-1.2286105819479824

>  <r_i_glide_lipo>  (1) 
-1.437816681329106

>  <r_i_glide_metal>  (1) 
-0

>  <r_i_glide_rewards>  (1) 
-2.8994683331667797

>  <r_lp_Energy>  (1) 
5.4699619999999998

>  <r_lp_tautomer_probability>  (1) 
1

>  <s_epik_cmdline>  (1) 
J2VwaWtfcHl0aG9uJywgJy1waHQnLCAnMS4wJywgJy1waCcsICc3LjQnLCAnLXRuJywgJzgnLCAnLW1hJywgJzUwMCcsICctaW1hZScsICc8aW5maWxlLm1hZT4nLCAnLW9tYWUnLCAnPG91dGZpbGUubWFlPic=

>  <s_epik_input>  (1) 
TzFbQ0gyXVtDSDJdW0NASF0oW0NAXTEyW0NIM10pW0NIMl1bQ0gyXVtDSDJdMg==

>  <s_glide_docking_method>  (1) 
confgen

>  <s_i_glide_gridfile>  (1) 
gpcr_drd2_6luq_protein_autoprepared_prepared

>  <s_lp_Force_Field>  (1) 
S-OPLS

>  <s_lp_Variant>  (1) 
Pocket2Mol_42_num_sample_100-1

>  <s_m_source_file>  (1) 
generated__ligand_Pocket2Mol_2026-05-06_prepared.sdf

>  <GenAI_Model>  (1) 
Pocket2Mol

>  <Protein>  (1) 
generic_title2

$$$$
Pocket2Mol_85_num_sample_100
     RDKit          3D

  0  0  0  0  0  0  0  0  0  0999 V3000
M  V30 BEGIN CTAB
M  V30 COUNTS 22 23 0 0 1
M  V30 BEGIN ATOM
M  V30 1 C 9.746025 6.785246 -8.766804 0
M  V30 2 O 9.970858 8.185234 -8.805334 0
M  V30 3 C 9.554855 6.306524 -7.328585 0
M  V30 4 O 10.804449 6.238942 -6.654338 0
M  V30 5 C 11.256326 8.571503 -8.352057 0
M  V30 6 C 11.205469 7.418103 -6.077717 0
M  V30 7 C 11.434669 7.505350 -4.692027 0
M  V30 8 C 11.421595 8.572961 -6.840148 0
M  V30 9 C 11.247960 6.299347 -3.795845 0
M  V30 10 N 11.836827 8.651276 -4.081619 0
M  V30 11 N 12.008256 9.769301 -4.814332 0
M  V30 12 C 11.823308 9.733257 -6.158233 0
M  V30 13 H 8.841191 6.569670 -9.334092 0
M  V30 14 H 10.547673 6.236345 -9.260282 0
M  V30 15 H 8.830996 6.929037 -6.797115 0
M  V30 16 H 9.139578 5.300058 -7.351107 0
M  V30 17 H 12.029817 7.942498 -8.795316 0
M  V30 18 H 11.444012 9.576417 -8.730834 0
M  V30 19 H 10.634618 5.555548 -4.291662 0
M  V30 20 H 10.765977 6.566468 -2.856098 0
M  V30 21 H 12.203866 5.839377 -3.557425 0
M  V30 22 H 12.003937 10.652834 -6.691452 0
M  V30 END ATOM
M  V30 BEGIN BOND
M  V30 1 1 2 1
M  V30 2 1 3 1
M  V30 3 1 4 3
M  V30 4 1 5 2
M  V30 5 1 6 4
M  V30 6 1 7 6
M  V30 7 1 8 5
M  V30 8 2 8 6
M  V30 9 1 9 7
M  V30 10 2 10 7
M  V30 11 1 11 10
M  V30 12 1 12 8
M  V30 13 2 12 11
M  V30 14 1 13 1
M  V30 15 1 14 1
M  V30 16 1 15 3
M  V30 17 1 16 3
M  V30 18 1 17 5
M  V30 19 1 18 5
M  V30 20 1 19 9
M  V30 21 1 20 9
M  V30 22 1 21 9
M  V30 23 1 22 12
M  V30 END BOND
M  V30 END CTAB
M  END
>  <i_epik_Tot_Q>  (1) 
0

>  <i_epik_Tot_abs_Q>  (1) 
0

>  <i_i_glide_confnum>  (1) 
1

>  <i_i_glide_lignum>  (1) 
92

>  <i_i_glide_posenum>  (1) 
64

>  <i_i_glide_rotatable_bonds>  (1) 
0

>  <i_lp_mmshare_version>  (1) 
72125

>  <i_m_source_file_index>  (1) 
86

>  <i_f3d_flags>  (1) 
0

>  <num_sample>  (1) 
100

>  <b_lp_Chiralities_Consistent>  (1) 
1

>  <r_epik_Charging_Adjusted_Penalty>  (1) 
0.0091269655628041547

>  <r_epik_Ionization_Penalty>  (1) 
0.0091374853106045584

>  <r_epik_Ionization_Penalty_Charging>  (1) 
0

>  <r_epik_Ionization_Penalty_Neutral>  (1) 
0.0091374853106045584

>  <r_epik_State_Penalty>  (1) 
0.0091269655628041547

>  <r_glide_ring_energy>  (1) 
0

>  <r_i_docking_score>  (1) 
-5.3154154105155644

>  <r_i_glide_ecoul>  (1) 
-1.0714452472668663

>  <r_i_glide_eff_state_penalty>  (1) 
0.0091269655628041547

>  <r_i_glide_einternal>  (1) 
0

>  <r_i_glide_emodel>  (1) 
-28.12043568101015

>  <r_i_glide_emodel_strain>  (1) 
0.11053190925007073

>  <r_i_glide_energy>  (1) 
-21.549609656258752

>  <r_i_glide_erotb>  (1) 
0

>  <r_i_glide_esite>  (1) 
0

>  <r_i_glide_evdw>  (1) 
-20.478164408991887

>  <r_i_glide_gscore>  (1) 
-5.3245423760783686

>  <r_i_glide_gscore_strain>  (1) 
0

>  <r_i_glide_hbond>  (1) 
0

>  <r_i_glide_ligand_efficiency>  (1) 
-0.44295128420963037

>  <r_i_glide_ligand_efficiency_ln>  (1) 
-1.5252676598493451

>  <r_i_glide_ligand_efficiency_sa>  (1) 
-1.0141052875841055

>  <r_i_glide_lipo>  (1) 
-1.2863719894953263

>  <r_i_glide_metal>  (1) 
-0

>  <r_i_glide_rewards>  (1) 
-2.853545379043418

>  <r_lp_Energy>  (1) 
19.395567

>  <r_lp_tautomer_probability>  (1) 
1

>  <s_epik_cmdline>  (1) 
J2VwaWtfcHl0aG9uJywgJy1waHQnLCAnMS4wJywgJy1waCcsICc3LjQnLCAnLXRuJywgJzgnLCAnLW1hJywgJzUwMCcsICctaW1hZScsICc8aW5maWxlLm1hZT4nLCAnLW9tYWUnLCAnPG91dGZpbGUubWFlPic=

>  <s_epik_input>  (1) 
TzFbQ0gyXVtDSDJdT1tDSDJdYyhjMTIpW2NIXW5uYzJbQ0gzXQ==

>  <s_glide_docking_method>  (1) 
confgen

>  <s_i_glide_gridfile>  (1) 
gpcr_drd2_6luq_protein_autoprepared_prepared

>  <s_lp_Force_Field>  (1) 
S-OPLS

>  <s_lp_Variant>  (1) 
Pocket2Mol_85_num_sample_100-1

>  <s_m_source_file>  (1) 
generated__ligand_Pocket2Mol_2026-05-06_prepared.sdf

>  <GenAI_Model>  (1) 
Pocket2Mol

>  <Protein>  (1) 
generic_title2

$$$$
Pocket2Mol_89_num_sample_100
     RDKit          3D

  0  0  0  0  0  0  0  0  0  0999 V3000
M  V30 BEGIN CTAB
M  V30 COUNTS 23 24 0 0 1
M  V30 BEGIN ATOM
M  V30 1 C 11.700412 7.526304 -4.285471 0
M  V30 2 O 11.288553 8.741941 -4.878455 0
M  V30 3 C 11.008284 6.357953 -4.973748 0
M  V30 4 O 9.918451 6.839591 -5.748719 0
M  V30 5 C 11.764256 9.109123 -6.069056 0
M  V30 6 C 10.269348 7.238793 -7.011966 0
M  V30 7 C 9.715605 6.569098 -8.127662 0
M  V30 8 O 12.576030 10.015281 -6.208339 0
M  V30 9 C 11.183508 8.317240 -7.219522 0
M  V30 10 C 8.720448 5.445887 -7.924020 0
M  V30 11 C 11.545976 8.671929 -8.539192 0
M  V30 12 C 11.000636 7.985812 -9.636748 0
M  V30 13 C 10.083920 6.944270 -9.432884 0
M  V30 14 H 11.437211 7.546398 -3.227859 0
M  V30 15 H 12.778806 7.423575 -4.291666 0
M  V30 16 H 10.634574 5.690871 -4.204522 0
M  V30 17 H 11.706505 5.776679 -5.582022 0
M  V30 18 H 7.997340 5.422449 -8.739786 0
M  V30 19 H 9.237479 4.490159 -7.893167 0
M  V30 20 H 8.153233 5.585836 -7.004915 0
M  V30 21 H 12.235615 9.478664 -8.709172 0
M  V30 22 H 11.280449 8.266697 -10.640982 0
M  V30 23 H 9.659238 6.428481 -10.281787 0
M  V30 END ATOM
M  V30 BEGIN BOND
M  V30 1 1 2 1
M  V30 2 1 3 1
M  V30 3 1 4 3
M  V30 4 1 5 2
M  V30 5 1 6 4
M  V30 6 2 7 6
M  V30 7 2 8 5
M  V30 8 1 9 5
M  V30 9 1 9 6
M  V30 10 1 10 7
M  V30 11 2 11 9
M  V30 12 1 12 11
M  V30 13 1 13 7
M  V30 14 2 13 12
M  V30 15 1 14 1
M  V30 16 1 15 1
M  V30 17 1 16 3
M  V30 18 1 17 3
M  V30 19 1 18 10
M  V30 20 1 19 10
M  V30 21 1 20 10
M  V30 22 1 21 11
M  V30 23 1 22 12
M  V30 24 1 23 13
M  V30 END BOND
M  V30 END CTAB
M  END
>  <i_epik_Tot_Q>  (1) 
0

>  <i_epik_Tot_abs_Q>  (1) 
0

>  <i_i_glide_confnum>  (1) 
5

>  <i_i_glide_lignum>  (1) 
96

>  <i_i_glide_posenum>  (1) 
358

>  <i_i_glide_rotatable_bonds>  (1) 
0

>  <i_lp_mmshare_version>  (1) 
72125

>  <i_m_source_file_index>  (1) 
90

>  <i_f3d_flags>  (1) 
0

>  <num_sample>  (1) 
100

>  <b_lp_Chiralities_Consistent>  (1) 
1

>  <r_epik_Charging_Adjusted_Penalty>  (1) 
0

>  <r_epik_Ionization_Penalty>  (1) 
1.0524661445465699e-15

>  <r_epik_Ionization_Penalty_Charging>  (1) 
0

>  <r_epik_Ionization_Penalty_Neutral>  (1) 
1.0524661445465699e-15

>  <r_epik_State_Penalty>  (1) 
-0

>  <r_glide_ring_energy>  (1) 
1.0462623231480377

>  <r_i_docking_score>  (1) 
-5.3028340097474942

>  <r_i_glide_ecoul>  (1) 
-0.28715308443022958

>  <r_i_glide_eff_state_penalty>  (1) 
-0

>  <r_i_glide_einternal>  (1) 
0

>  <r_i_glide_emodel>  (1) 
-28.167758777837815

>  <r_i_glide_emodel_strain>  (1) 
0.41901519453936942

>  <r_i_glide_energy>  (1) 
-21.882635030770377

>  <r_i_glide_erotb>  (1) 
0

>  <r_i_glide_esite>  (1) 
0

>  <r_i_glide_evdw>  (1) 
-21.595481946340147

>  <r_i_glide_gscore>  (1) 
-5.3028340097474942

>  <r_i_glide_gscore_strain>  (1) 
0

>  <r_i_glide_hbond>  (1) 
0

>  <r_i_glide_ligand_efficiency>  (1) 
-0.40791030844211495

>  <r_i_glide_ligand_efficiency_ln>  (1) 
-1.4874921010163908

>  <r_i_glide_ligand_efficiency_sa>  (1) 
-0.95913365771881831

>  <r_i_glide_lipo>  (1) 
-0.92287240423491335

>  <r_i_glide_metal>  (1) 
-0

>  <r_i_glide_rewards>  (1) 
-3.25711454553104

>  <r_lp_Energy>  (1) 
16.296527999999999

>  <r_lp_tautomer_probability>  (1) 
1

>  <s_epik_Chemistry_Notes>  (1) 
This compound has an ester and may undergo hydrolysis at high or low pH.

>  <s_epik_cmdline>  (1) 
J2VwaWtfcHl0aG9uJywgJy1waHQnLCAnMS4wJywgJy1waCcsICc3LjQnLCAnLXRuJywgJzgnLCAnLW1hJywgJzUwMCcsICctaW1hZScsICc8aW5maWxlLm1hZT4nLCAnLW9tYWUnLCAnPG91dGZpbGUubWFlPic=

>  <s_epik_input>  (1) 
TzFbQ0gyXVtDSDJdT0MoPU8pYyhjMTIpW2NIXVtjSF1bY0hdYzJbQ0gzXQ==

>  <s_glide_docking_method>  (1) 
confgen

>  <s_i_glide_gridfile>  (1) 
gpcr_drd2_6luq_protein_autoprepared_prepared

>  <s_lp_Force_Field>  (1) 
S-OPLS

>  <s_lp_Variant>  (1) 
Pocket2Mol_89_num_sample_100-1

>  <s_m_source_file>  (1) 
generated__ligand_Pocket2Mol_2026-05-06_prepared.sdf

>  <GenAI_Model>  (1) 
Pocket2Mol

>  <Protein>  (1) 
generic_title2

$$$$
Pocket2Mol_86_num_sample_100
     RDKit          3D

  0  0  0  0  0  0  0  0  0  0999 V3000
M  V30 BEGIN CTAB
M  V30 COUNTS 25 26 0 0 1
M  V30 BEGIN ATOM
M  V30 1 C 10.805308 8.684644 -5.806225 0
M  V30 2 O 11.978580 8.970342 -6.657972 0
M  V30 3 C 11.587824 8.463768 -7.847713 0
M  V30 4 C 10.364667 7.898438 -7.871290 0
M  V30 5 C 9.834839 7.336932 -9.043585 0
M  V30 6 C 9.645559 7.921545 -6.594784 0
M  V30 7 C 12.387939 8.515069 -8.998352 0
M  V30 8 C 10.604083 7.369302 -10.240172 0
M  V30 9 N 10.088846 6.817311 -11.450724 0
M  V30 10 C 11.897896 7.969049 -10.205207 0
M  V30 11 C 8.902002 5.974218 -11.328303 0
M  V30 12 C 11.042649 6.569301 -12.529328 0
M  V30 13 H 11.126976 8.094280 -4.947755 0
M  V30 14 H 10.431952 9.630704 -5.414348 0
M  V30 15 H 8.853334 6.892665 -9.028035 0
M  V30 16 H 8.717468 8.491426 -6.660970 0
M  V30 17 H 9.457481 6.915629 -6.217847 0
M  V30 18 H 13.366479 8.969298 -8.963216 0
M  V30 19 H 12.506408 8.013085 -11.091668 0
M  V30 20 H 8.022385 6.573809 -11.091570 0
M  V30 21 H 8.692419 5.461788 -12.267235 0
M  V30 22 H 9.031717 5.209078 -10.561699 0
M  V30 23 H 11.239386 7.476860 -13.091666 0
M  V30 24 H 11.991720 6.169304 -12.178754 0
M  V30 25 H 10.634837 5.844206 -13.234444 0
M  V30 END ATOM
M  V30 BEGIN BOND
M  V30 1 1 2 1
M  V30 2 1 3 2
M  V30 3 2 4 3
M  V30 4 1 5 4
M  V30 5 1 6 1
M  V30 6 1 6 4
M  V30 7 1 7 3
M  V30 8 2 8 5
M  V30 9 1 9 8
M  V30 10 2 10 7
M  V30 11 1 10 8
M  V30 12 1 11 9
M  V30 13 1 12 9
M  V30 14 1 13 1
M  V30 15 1 14 1
M  V30 16 1 15 5
M  V30 17 1 16 6
M  V30 18 1 17 6
M  V30 19 1 18 7
M  V30 20 1 19 10
M  V30 21 1 20 11
M  V30 22 1 21 11
M  V30 23 1 22 11
M  V30 24 1 23 12
M  V30 25 1 24 12
M  V30 26 1 25 12
M  V30 END BOND
M  V30 END CTAB
M  END
>  <i_epik_Tot_Q>  (1) 
0

>  <i_epik_Tot_abs_Q>  (1) 
0

>  <i_i_glide_confnum>  (1) 
1

>  <i_i_glide_lignum>  (1) 
93

>  <i_i_glide_posenum>  (1) 
38

>  <i_i_glide_rotatable_bonds>  (1) 
1

>  <i_lp_mmshare_version>  (1) 
72125

>  <i_m_source_file_index>  (1) 
87

>  <i_f3d_flags>  (1) 
0

>  <num_sample>  (1) 
100

>  <b_lp_Chiralities_Consistent>  (1) 
1

>  <r_epik_Charging_Adjusted_Penalty>  (1) 
0.017477600144237933

>  <r_epik_Ionization_Penalty>  (1) 
0.017477600144237951

>  <r_epik_Ionization_Penalty_Charging>  (1) 
0

>  <r_epik_Ionization_Penalty_Neutral>  (1) 
0.017477600144237951

>  <r_epik_State_Penalty>  (1) 
0.017477600144237933

>  <r_glide_ring_energy>  (1) 
0

>  <r_i_docking_score>  (1) 
-5.2917389819718483

>  <r_i_glide_ecoul>  (1) 
-1.7223600121510554

>  <r_i_glide_eff_state_penalty>  (1) 
0.017477600144237933

>  <r_i_glide_einternal>  (1) 
0.34699703215002686

>  <r_i_glide_emodel>  (1) 
-29.505447247177841

>  <r_i_glide_emodel_strain>  (1) 
0

>  <r_i_glide_energy>  (1) 
-21.149727837917659

>  <r_i_glide_erotb>  (1) 
0

>  <r_i_glide_esite>  (1) 
-0.021606365667838988

>  <r_i_glide_evdw>  (1) 
-19.427367825766606

>  <r_i_glide_gscore>  (1) 
-5.3092165821160862

>  <r_i_glide_gscore_strain>  (1) 
0

>  <r_i_glide_hbond>  (1) 
0

>  <r_i_glide_ligand_efficiency>  (1) 
-0.44097824849765405

>  <r_i_glide_ligand_efficiency_ln>  (1) 
-1.5184736676644592

>  <r_i_glide_ligand_efficiency_sa>  (1) 
-1.009588163422974

>  <r_i_glide_lipo>  (1) 
-1.1584508450849473

>  <r_i_glide_metal>  (1) 
-0

>  <r_i_glide_rewards>  (1) 
-2.8994369782523108

>  <r_lp_Energy>  (1) 
28.069341999999999

>  <r_lp_tautomer_probability>  (1) 
1

>  <s_epik_cmdline>  (1) 
J2VwaWtfcHl0aG9uJywgJy1waHQnLCAnMS4wJywgJy1waCcsICc3LjQnLCAnLXRuJywgJzgnLCAnLW1hJywgJzUwMCcsICctaW1hZScsICc8aW5maWxlLm1hZT4nLCAnLW9tYWUnLCAnPG91dGZpbGUubWFlPic=

>  <s_epik_input>  (1) 
TzFbQ0gyXVtDSDJdYyhjMTIpW2NIXWMoTihbQ0gzXSlbQ0gzXSlbY0hdW2NIXTI=

>  <s_glide_docking_method>  (1) 
confgen

>  <s_i_glide_gridfile>  (1) 
gpcr_drd2_6luq_protein_autoprepared_prepared

>  <s_lp_Force_Field>  (1) 
S-OPLS

>  <s_lp_Variant>  (1) 
Pocket2Mol_86_num_sample_100-1

>  <s_m_source_file>  (1) 
generated__ligand_Pocket2Mol_2026-05-06_prepared.sdf

>  <GenAI_Model>  (1) 
Pocket2Mol

>  <Protein>  (1) 
generic_title2

$$$$
Pocket2Mol_42_num_sample_100
     RDKit          3D

  0  0  0  0  0  0  0  0  0  0999 V3000
M  V30 BEGIN CTAB
M  V30 COUNTS 23 24 0 0 1
M  V30 BEGIN ATOM
M  V30 1 C 9.424834 6.608328 -7.427654 0
M  V30 2 O 9.459836 7.460996 -6.291668 0
M  V30 3 C 10.822032 7.718888 -5.970764 0 CFG=2
M  V30 4 C 11.289121 6.687134 -4.928191 0
M  V30 5 C 11.040813 9.160254 -5.491665 0
M  V30 6 C 10.472442 7.241006 -8.324148 0
M  V30 7 C 12.287011 9.661580 -6.203839 0
M  V30 8 C 11.550961 7.619067 -7.318791 0 CFG=1
M  V30 9 C 12.234840 8.969298 -7.566494 0
M  V30 10 H 9.704693 5.592524 -7.146247 0
M  V30 11 H 8.439686 6.569303 -7.889585 0
M  V30 12 H 12.234841 6.971972 -4.471619 0
M  V30 13 H 10.562328 6.569302 -4.125484 0
M  V30 14 H 11.425980 5.710389 -5.381608 0
M  V30 15 H 10.234839 9.780707 -5.844221 0
M  V30 16 H 11.090670 9.264472 -4.407433 0
M  V30 17 H 10.827540 6.569298 -9.104835 0
M  V30 18 H 10.039473 8.120688 -8.802096 0
M  V30 19 H 12.297374 10.748320 -6.291666 0
M  V30 20 H 13.182600 9.369302 -5.656073 0
M  V30 21 H 12.288256 6.823925 -7.259761 0
M  V30 22 H 11.650708 9.576102 -8.257260 0
M  V30 23 H 13.226979 8.853125 -8.004451 0
M  V30 END ATOM
M  V30 BEGIN BOND
M  V30 1 1 2 1
M  V30 2 1 3 2
M  V30 3 1 3 4 CFG=1
M  V30 4 1 5 3
M  V30 5 1 6 1
M  V30 6 1 7 5
M  V30 7 1 8 3
M  V30 8 1 8 6
M  V30 9 1 9 7
M  V30 10 1 9 8
M  V30 11 1 10 1
M  V30 12 1 11 1
M  V30 13 1 12 4
M  V30 14 1 13 4
M  V30 15 1 14 4
M  V30 16 1 15 5
M  V30 17 1 16 5
M  V30 18 1 17 6
M  V30 19 1 18 6
M  V30 20 1 19 7
M  V30 21 1 20 7
M  V30 22 1 8 21 CFG=1
M  V30 23 1 22 9
M  V30 24 1 23 9
M  V30 END BOND
M  V30 END CTAB
M  END
>  <i_epik_Tot_Q>  (1) 
0

>  <i_epik_Tot_abs_Q>  (1) 
0

>  <i_i_glide_confnum>  (1) 
4

>  <i_i_glide_lignum>  (1) 
47

>  <i_i_glide_posenum>  (1) 
211

>  <i_i_glide_rotatable_bonds>  (1) 
0

>  <i_lp_mmshare_version>  (1) 
72125

>  <i_m_source_file_index>  (1) 
43

>  <i_f3d_flags>  (1) 
0

>  <num_sample>  (1) 
100

>  <b_lp_Chiralities_Consistent>  (1) 
1

>  <r_epik_Charging_Adjusted_Penalty>  (1) 
0

>  <r_epik_Ionization_Penalty>  (1) 
2.4347883345708157e-11

>  <r_epik_Ionization_Penalty_Charging>  (1) 
0

>  <r_epik_Ionization_Penalty_Neutral>  (1) 
2.4347883345708157e-11

>  <r_epik_State_Penalty>  (1) 
-0

>  <r_glide_ring_energy>  (1) 
1.4300080397860451

>  <r_i_docking_score>  (1) 
-5.2895741209622091

>  <r_i_glide_ecoul>  (1) 
0.3291493068270484

>  <r_i_glide_eff_state_penalty>  (1) 
-0

>  <r_i_glide_einternal>  (1) 
0

>  <r_i_glide_emodel>  (1) 
-22.717256614410935

>  <r_i_glide_emodel_strain>  (1) 
0.011337955123664756

>  <r_i_glide_energy>  (1) 
-17.129372975756475

>  <r_i_glide_erotb>  (1) 
0

>  <r_i_glide_esite>  (1) 
0

>  <r_i_glide_evdw>  (1) 
-17.458522282583523

>  <r_i_glide_gscore>  (1) 
-5.2895741209622091

>  <r_i_glide_gscore_strain>  (1) 
0

>  <r_i_glide_hbond>  (1) 
0

>  <r_i_glide_ligand_efficiency>  (1) 
-0.58773045788468992

>  <r_i_glide_ligand_efficiency_ln>  (1) 
-1.6544268295876916

>  <r_i_glide_ligand_efficiency_sa>  (1) 
-1.2225286177608321

>  <r_i_glide_lipo>  (1) 
-1.5993537361904235

>  <r_i_glide_metal>  (1) 
-0

>  <r_i_glide_rewards>  (1) 
-2.8666666666666667

>  <r_lp_Energy>  (1) 
5.4699619999999998

>  <r_lp_tautomer_probability>  (1) 
1

>  <s_epik_cmdline>  (1) 
J2VwaWtfcHl0aG9uJywgJy1waHQnLCAnMS4wJywgJy1waCcsICc3LjQnLCAnLXRuJywgJzgnLCAnLW1hJywgJzUwMCcsICctaW1hZScsICc8aW5maWxlLm1hZT4nLCAnLW9tYWUnLCAnPG91dGZpbGUubWFlPic=

>  <s_epik_input>  (1) 
TzFbQ0gyXVtDSDJdW0NASF0oW0NAXTEyW0NIM10pW0NIMl1bQ0gyXVtDSDJdMg==

>  <s_glide_docking_method>  (1) 
confgen

>  <s_i_glide_gridfile>  (1) 
gpcr_drd2_6luq_protein_autoprepared_prepared

>  <s_lp_Force_Field>  (1) 
S-OPLS

>  <s_lp_Variant>  (1) 
Pocket2Mol_42_num_sample_100-1

>  <s_m_source_file>  (1) 
generated__ligand_Pocket2Mol_2026-05-06_prepared.sdf

>  <GenAI_Model>  (1) 
Pocket2Mol

>  <Protein>  (1) 
generic_title2

$$$$
Pocket2Mol_13_num_sample_100
     RDKit          3D

  0  0  0  0  0  0  0  0  0  0999 V3000
M  V30 BEGIN CTAB
M  V30 COUNTS 15 15 0 0 1
M  V30 BEGIN ATOM
M  V30 1 N 11.834840 6.925314 -3.405633 0
M  V30 2 C 11.343615 6.885385 -4.690181 0
M  V30 3 C 11.434839 8.169185 -5.215033 0
M  V30 4 C 12.234840 8.180524 -3.114392 0
M  V30 5 C 11.012801 8.613330 -6.587648 0
M  V30 6 N 12.774542 8.569298 -1.899277 0
M  V30 7 C 12.018300 8.990827 -4.178809 0
M  V30 8 H 10.971439 5.963499 -5.114071 0
M  V30 9 H 10.617496 7.771665 -7.156750 0
M  V30 10 H 10.233032 9.369095 -6.515214 0
M  V30 11 H 11.857573 9.034539 -7.133785 0
M  V30 12 H 13.072817 9.521678 -1.708427 0
M  V30 13 H 11.886025 6.135352 -2.777355 0
M  V30 14 H 12.241240 10.045263 -4.225362 0
M  V30 15 H 12.909193 7.932717 -1.129079 0
M  V30 END ATOM
M  V30 BEGIN BOND
M  V30 1 1 2 1
M  V30 2 2 3 2
M  V30 3 1 4 1
M  V30 4 1 5 3
M  V30 5 1 6 4
M  V30 6 1 7 3
M  V30 7 2 7 4
M  V30 8 1 8 2
M  V30 9 1 9 5
M  V30 10 1 10 5
M  V30 11 1 11 5
M  V30 12 1 12 6
M  V30 13 1 13 1
M  V30 14 1 14 7
M  V30 15 1 15 6
M  V30 END BOND
M  V30 END CTAB
M  END
>  <i_epik_Tot_Q>  (1) 
0

>  <i_epik_Tot_abs_Q>  (1) 
0

>  <i_i_glide_confnum>  (1) 
1

>  <i_i_glide_lignum>  (1) 
16

>  <i_i_glide_posenum>  (1) 
277

>  <i_i_glide_rotatable_bonds>  (1) 
0

>  <i_lp_mmshare_version>  (1) 
72125

>  <i_m_source_file_index>  (1) 
14

>  <i_f3d_flags>  (1) 
0

>  <num_sample>  (1) 
100

>  <b_lp_Chiralities_Consistent>  (1) 
1

>  <r_epik_Charging_Adjusted_Penalty>  (1) 
0

>  <r_epik_Ionization_Penalty>  (1) 
0.00031849139131666116

>  <r_epik_Ionization_Penalty_Charging>  (1) 
0

>  <r_epik_Ionization_Penalty_Neutral>  (1) 
0.00031849139131666116

>  <r_epik_State_Penalty>  (1) 
-0

>  <r_glide_ring_energy>  (1) 
0

>  <r_i_docking_score>  (1) 
-5.2882296106810713

>  <r_i_glide_ecoul>  (1) 
-2.8223580001916693

>  <r_i_glide_eff_state_penalty>  (1) 
-0

>  <r_i_glide_einternal>  (1) 
0

>  <r_i_glide_emodel>  (1) 
-24.888628871577158

>  <r_i_glide_emodel_strain>  (1) 
0

>  <r_i_glide_energy>  (1) 
-18.174240546190184

>  <r_i_glide_erotb>  (1) 
0

>  <r_i_glide_esite>  (1) 
0

>  <r_i_glide_evdw>  (1) 
-15.351882545998516

>  <r_i_glide_gscore>  (1) 
-5.2882296106810713

>  <r_i_glide_gscore_strain>  (1) 
0

>  <r_i_glide_hbond>  (1) 
-0.32000000000000001

>  <r_i_glide_ligand_efficiency>  (1) 
-0.75546137295443871

>  <r_i_glide_ligand_efficiency_ln>  (1) 
-1.7951089283483024

>  <r_i_glide_ligand_efficiency_sa>  (1) 
-1.4451456177045876

>  <r_i_glide_lipo>  (1) 
-1.4837305557851768

>  <r_i_glide_metal>  (1) 
-0

>  <r_i_glide_rewards>  (1) 
-2.2935512275672192

>  <r_lp_Energy>  (1) 
-3.18065

>  <r_lp_tautomer_probability>  (1) 
1

>  <s_epik_cmdline>  (1) 
J2VwaWtfcHl0aG9uJywgJy1waHQnLCAnMS4wJywgJy1waCcsICc3LjQnLCAnLXRuJywgJzgnLCAnLW1hJywgJzUwMCcsICctaW1hZScsICc8aW5maWxlLm1hZT4nLCAnLW9tYWUnLCAnPG91dGZpbGUubWFlPic=

>  <s_epik_input>  (1) 
W05IMl1DKFtDSDJdMSk9TltDSF09QzFbQ0gzXQ==

>  <s_glide_docking_method>  (1) 
confgen

>  <s_i_glide_gridfile>  (1) 
gpcr_drd2_6luq_protein_autoprepared_prepared

>  <s_lp_Force_Field>  (1) 
S-OPLS

>  <s_lp_Variant>  (1) 
Pocket2Mol_13_num_sample_100-1

>  <s_m_source_file>  (1) 
generated__ligand_Pocket2Mol_2026-05-06_prepared.sdf

>  <GenAI_Model>  (1) 
Pocket2Mol

>  <Protein>  (1) 
generic_title2

$$$$
Pocket2Mol_39_num_sample_100
     RDKit          3D

  0  0  0  0  0  0  0  0  0  0999 V3000
M  V30 BEGIN CTAB
M  V30 COUNTS 14 15 0 0 1
M  V30 BEGIN ATOM
M  V30 1 C 11.273184 9.189235 -5.359147 0
M  V30 2 O 10.234839 8.457779 -5.905119 0
M  V30 3 C 10.573737 8.196137 -7.210383 0
M  V30 4 C 11.825024 8.753640 -7.491669 0
M  V30 5 C 12.329684 8.569304 -8.820676 0
M  V30 6 C 9.834839 7.503589 -8.146894 0
M  V30 7 C 12.271848 9.395204 -6.291672 0
M  V30 8 N 11.589700 7.876764 -9.745200 0
M  V30 9 C 10.379005 7.367639 -9.416824 0
M  V30 10 H 11.154739 9.479052 -4.325114 0
M  V30 11 H 13.284375 8.969243 -9.130726 0
M  V30 12 H 8.863740 7.090170 -7.904747 0
M  V30 13 H 13.201531 9.928370 -6.154397 0
M  V30 14 H 9.844873 6.840325 -10.193826 0
M  V30 END ATOM
M  V30 BEGIN BOND
M  V30 1 1 2 1
M  V30 2 1 3 2
M  V30 3 2 4 3
M  V30 4 1 5 4
M  V30 5 1 6 3
M  V30 6 2 7 1
M  V30 7 1 7 4
M  V30 8 2 8 5
M  V30 9 2 9 6
M  V30 10 1 9 8
M  V30 11 1 10 1
M  V30 12 1 11 5
M  V30 13 1 12 6
M  V30 14 1 13 7
M  V30 15 1 14 9
M  V30 END BOND
M  V30 END CTAB
M  END
>  <i_epik_Tot_Q>  (1) 
0

>  <i_epik_Tot_abs_Q>  (1) 
0

>  <i_i_glide_confnum>  (1) 
1

>  <i_i_glide_lignum>  (1) 
44

>  <i_i_glide_posenum>  (1) 
307

>  <i_i_glide_rotatable_bonds>  (1) 
0

>  <i_lp_mmshare_version>  (1) 
72125

>  <i_m_source_file_index>  (1) 
40

>  <i_f3d_flags>  (1) 
0

>  <num_sample>  (1) 
100

>  <b_lp_Chiralities_Consistent>  (1) 
1

>  <r_epik_Charging_Adjusted_Penalty>  (1) 
0

>  <r_epik_Ionization_Penalty>  (1) 
0.00075511756769225586

>  <r_epik_Ionization_Penalty_Charging>  (1) 
0

>  <r_epik_Ionization_Penalty_Neutral>  (1) 
0.00075511756769225586

>  <r_epik_State_Penalty>  (1) 
-0

>  <r_glide_ring_energy>  (1) 
0

>  <r_i_docking_score>  (1) 
-5.2785611104902417

>  <r_i_glide_ecoul>  (1) 
-1.6894317607058511

>  <r_i_glide_eff_state_penalty>  (1) 
-0

>  <r_i_glide_einternal>  (1) 
0

>  <r_i_glide_emodel>  (1) 
-26.843531281154892

>  <r_i_glide_emodel_strain>  (1) 
0

>  <r_i_glide_energy>  (1) 
-19.902451127989757

>  <r_i_glide_erotb>  (1) 
0

>  <r_i_glide_esite>  (1) 
0

>  <r_i_glide_evdw>  (1) 
-18.213019367283906

>  <r_i_glide_gscore>  (1) 
-5.2785611104902417

>  <r_i_glide_gscore_strain>  (1) 
0

>  <r_i_glide_hbond>  (1) 
0

>  <r_i_glide_ligand_efficiency>  (1) 
-0.58650679005447126

>  <r_i_glide_ligand_efficiency_ln>  (1) 
-1.650982276286671

>  <r_i_glide_ligand_efficiency_sa>  (1) 
-1.2199832861024054

>  <r_i_glide_lipo>  (1) 
-1.3061620446868352

>  <r_i_glide_metal>  (1) 
-0

>  <r_i_glide_rewards>  (1) 
-2.8083333333333336

>  <r_lp_Energy>  (1) 
12.667646999999999

>  <r_lp_tautomer_probability>  (1) 
1

>  <s_epik_cmdline>  (1) 
J2VwaWtfcHl0aG9uJywgJy1waHQnLCAnMS4wJywgJy1waCcsICc3LjQnLCAnLXRuJywgJzgnLCAnLW1hJywgJzUwMCcsICctaW1hZScsICc8aW5maWxlLm1hZT4nLCAnLW9tYWUnLCAnPG91dGZpbGUubWFlPic=

>  <s_epik_input>  (1) 
bzFbY0hdW2NIXWMoYzEyKVtjSF1uW2NIXVtjSF0y

>  <s_glide_docking_method>  (1) 
confgen

>  <s_i_glide_gridfile>  (1) 
gpcr_drd2_6luq_protein_autoprepared_prepared

>  <s_lp_Force_Field>  (1) 
S-OPLS

>  <s_lp_Variant>  (1) 
Pocket2Mol_39_num_sample_100-1

>  <s_m_source_file>  (1) 
generated__ligand_Pocket2Mol_2026-05-06_prepared.sdf

>  <GenAI_Model>  (1) 
Pocket2Mol

>  <Protein>  (1) 
generic_title2

$$$$
Pocket2Mol_64_num_sample_100
     RDKit          3D

  0  0  0  0  0  0  0  0  0  0999 V3000
M  V30 BEGIN CTAB
M  V30 COUNTS 16 17 0 0 1
M  V30 BEGIN ATOM
M  V30 1 C 8.634830 5.254245 -9.698243 0
M  V30 2 O 9.459607 6.200743 -10.243690 0
M  V30 3 C 10.234839 6.941386 -9.380477 0
M  V30 4 C 10.130190 6.747278 -7.979913 0
M  V30 5 C 10.930701 7.508257 -7.104876 0
M  V30 6 C 11.139337 7.888516 -9.891679 0
M  V30 7 C 11.939610 8.644097 -9.015389 0
M  V30 8 O 9.253150 5.815894 -7.473925 0
M  V30 9 C 8.536002 5.069364 -8.370364 0
M  V30 10 F 10.834196 7.327314 -5.765647 0
M  V30 11 C 11.834764 8.456177 -7.623015 0
M  V30 12 H 8.089343 4.696006 -10.444136 0
M  V30 13 H 11.220409 8.033571 -10.957823 0
M  V30 14 H 12.634753 9.369279 -9.411582 0
M  V30 15 H 7.898648 4.340844 -7.891717 0
M  V30 16 H 12.449175 9.037803 -6.952272 0
M  V30 END ATOM
M  V30 BEGIN BOND
M  V30 1 1 2 1
M  V30 2 1 3 2
M  V30 3 1 4 3
M  V30 4 2 5 4
M  V30 5 2 6 3
M  V30 6 1 7 6
M  V30 7 1 8 4
M  V30 8 2 9 1
M  V30 9 1 9 8
M  V30 10 1 10 5
M  V30 11 1 11 5
M  V30 12 2 11 7
M  V30 13 1 12 1
M  V30 14 1 13 6
M  V30 15 1 14 7
M  V30 16 1 15 9
M  V30 17 1 16 11
M  V30 END BOND
M  V30 END CTAB
M  END
>  <i_epik_Tot_Q>  (1) 
0

>  <i_epik_Tot_abs_Q>  (1) 
0

>  <i_i_glide_confnum>  (1) 
1

>  <i_i_glide_lignum>  (1) 
71

>  <i_i_glide_posenum>  (1) 
208

>  <i_i_glide_rotatable_bonds>  (1) 
0

>  <i_lp_mmshare_version>  (1) 
72125

>  <i_m_source_file_index>  (1) 
65

>  <i_f3d_flags>  (1) 
0

>  <num_sample>  (1) 
100

>  <b_lp_Chiralities_Consistent>  (1) 
1

>  <r_epik_Charging_Adjusted_Penalty>  (1) 
0

>  <r_epik_Ionization_Penalty>  (1) 
0

>  <r_epik_Ionization_Penalty_Charging>  (1) 
0

>  <r_epik_Ionization_Penalty_Neutral>  (1) 
0

>  <r_epik_State_Penalty>  (1) 
-0

>  <r_glide_ring_energy>  (1) 
0

>  <r_i_docking_score>  (1) 
-5.2686924511568165

>  <r_i_glide_ecoul>  (1) 
0.26444540325031307

>  <r_i_glide_eff_state_penalty>  (1) 
-0

>  <r_i_glide_einternal>  (1) 
0

>  <r_i_glide_emodel>  (1) 
-25.747087067299795

>  <r_i_glide_emodel_strain>  (1) 
0

>  <r_i_glide_energy>  (1) 
-19.092616020625467

>  <r_i_glide_erotb>  (1) 
0

>  <r_i_glide_esite>  (1) 
0

>  <r_i_glide_evdw>  (1) 
-19.357061423875781

>  <r_i_glide_gscore>  (1) 
-5.2686924511568165

>  <r_i_glide_gscore_strain>  (1) 
0

>  <r_i_glide_hbond>  (1) 
0

>  <r_i_glide_ligand_efficiency>  (1) 
-0.47897204101425606

>  <r_i_glide_ligand_efficiency_ln>  (1) 
-1.5505752909264128

>  <r_i_glide_ligand_efficiency_sa>  (1) 
-1.0652242831550551

>  <r_i_glide_lipo>  (1) 
-0.9079982647035505

>  <r_i_glide_metal>  (1) 
-0

>  <r_i_glide_rewards>  (1) 
-3.4325079257470241

>  <r_lp_Energy>  (1) 
23.975801000000001

>  <r_lp_tautomer_probability>  (1) 
1

>  <s_epik_cmdline>  (1) 
J2VwaWtfcHl0aG9uJywgJy1waHQnLCAnMS4wJywgJy1waCcsICc3LjQnLCAnLXRuJywgJzgnLCAnLW1hJywgJzUwMCcsICctaW1hZScsICc8aW5maWxlLm1hZT4nLCAnLW9tYWUnLCAnPG91dGZpbGUubWFlPic=

>  <s_epik_input>  (1) 
TzFbQ0hdPVtDSF1PYyhjMTIpYyhGKVtjSF1bY0hdW2NIXTI=

>  <s_glide_docking_method>  (1) 
confgen

>  <s_i_glide_gridfile>  (1) 
gpcr_drd2_6luq_protein_autoprepared_prepared

>  <s_lp_Force_Field>  (1) 
S-OPLS

>  <s_lp_Variant>  (1) 
Pocket2Mol_64_num_sample_100-1

>  <s_m_source_file>  (1) 
generated__ligand_Pocket2Mol_2026-05-06_prepared.sdf

>  <GenAI_Model>  (1) 
Pocket2Mol

>  <Protein>  (1) 
generic_title2

$$$$
Pocket2Mol_27_num_sample_100
     RDKit          3D

  0  0  0  0  0  0  0  0  0  0999 V3000
M  V30 BEGIN CTAB
M  V30 COUNTS 15 15 0 0 1
M  V30 BEGIN ATOM
M  V30 1 C 10.832574 7.141105 -6.024556 0
M  V30 2 O 11.286481 6.731905 -4.707455 0
M  V30 3 C 11.834839 7.652114 -3.820749 0
M  V30 4 C 12.234973 7.044558 -2.493607 0
M  V30 5 C 11.029722 8.612686 -6.317218 0
M  V30 6 C 11.976527 8.954049 -4.150574 0
M  V30 7 C 11.564867 9.441847 -5.430073 0
M  V30 8 H 11.367368 6.559420 -6.775894 0
M  V30 9 H 9.773653 6.899948 -6.122007 0
M  V30 10 H 12.658916 7.797355 -1.828993 0
M  V30 11 H 11.368593 6.601705 -2.000753 0
M  V30 12 H 12.981679 6.263411 -2.642963 0
M  V30 13 H 10.715829 8.973181 -7.285970 0
M  V30 14 H 12.407933 9.640376 -3.433894 0
M  V30 15 H 11.688624 10.486744 -5.674849 0
M  V30 END ATOM
M  V30 BEGIN BOND
M  V30 1 1 2 1
M  V30 2 1 3 2
M  V30 3 1 4 3
M  V30 4 1 5 1
M  V30 5 2 6 3
M  V30 6 2 7 5
M  V30 7 1 7 6
M  V30 8 1 8 1
M  V30 9 1 9 1
M  V30 10 1 10 4
M  V30 11 1 11 4
M  V30 12 1 12 4
M  V30 13 1 13 5
M  V30 14 1 14 6
M  V30 15 1 15 7
M  V30 END BOND
M  V30 END CTAB
M  END
>  <i_epik_Tot_Q>  (1) 
0

>  <i_epik_Tot_abs_Q>  (1) 
0

>  <i_i_glide_confnum>  (1) 
1

>  <i_i_glide_lignum>  (1) 
31

>  <i_i_glide_posenum>  (1) 
10

>  <i_i_glide_rotatable_bonds>  (1) 
0

>  <i_lp_mmshare_version>  (1) 
72125

>  <i_m_source_file_index>  (1) 
28

>  <i_f3d_flags>  (1) 
0

>  <num_sample>  (1) 
100

>  <b_lp_Chiralities_Consistent>  (1) 
1

>  <r_epik_Charging_Adjusted_Penalty>  (1) 
0

>  <r_epik_Ionization_Penalty>  (1) 
0

>  <r_epik_Ionization_Penalty_Charging>  (1) 
0

>  <r_epik_Ionization_Penalty_Neutral>  (1) 
0

>  <r_epik_State_Penalty>  (1) 
-0

>  <r_glide_ring_energy>  (1) 
0

>  <r_i_docking_score>  (1) 
-5.2682250788332636

>  <r_i_glide_ecoul>  (1) 
-0.18273212451049553

>  <r_i_glide_eff_state_penalty>  (1) 
-0

>  <r_i_glide_einternal>  (1) 
0

>  <r_i_glide_emodel>  (1) 
-23.394027915525172

>  <r_i_glide_emodel_strain>  (1) 
0

>  <r_i_glide_energy>  (1) 
-17.584542668383627

>  <r_i_glide_erotb>  (1) 
0

>  <r_i_glide_esite>  (1) 
0

>  <r_i_glide_evdw>  (1) 
-17.401810543873133

>  <r_i_glide_gscore>  (1) 
-5.2682250788332636

>  <r_i_glide_gscore_strain>  (1) 
0

>  <r_i_glide_hbond>  (1) 
0

>  <r_i_glide_ligand_efficiency>  (1) 
-0.75260358269046623

>  <r_i_glide_ligand_efficiency_ln>  (1) 
-1.7883183166746155

>  <r_i_glide_ligand_efficiency_sa>  (1) 
-1.4396788615948113

>  <r_i_glide_lipo>  (1) 
-1.704058066296366

>  <r_i_glide_metal>  (1) 
-0

>  <r_i_glide_rewards>  (1) 
-2.6666666666666665

>  <r_lp_Energy>  (1) 
4.7929789999999999

>  <r_lp_tautomer_probability>  (1) 
1

>  <s_epik_cmdline>  (1) 
J2VwaWtfcHl0aG9uJywgJy1waHQnLCAnMS4wJywgJy1waCcsICc3LjQnLCAnLXRuJywgJzgnLCAnLW1hJywgJzUwMCcsICctaW1hZScsICc8aW5maWxlLm1hZT4nLCAnLW9tYWUnLCAnPG91dGZpbGUubWFlPic=

>  <s_epik_input>  (1) 
TzFbQ0gyXVtDSF09W0NIXVtDSF09QzFbQ0gzXQ==

>  <s_glide_docking_method>  (1) 
confgen

>  <s_i_glide_gridfile>  (1) 
gpcr_drd2_6luq_protein_autoprepared_prepared

>  <s_lp_Force_Field>  (1) 
S-OPLS

>  <s_lp_Variant>  (1) 
Pocket2Mol_27_num_sample_100-1

>  <s_m_source_file>  (1) 
generated__ligand_Pocket2Mol_2026-05-06_prepared.sdf

>  <GenAI_Model>  (1) 
Pocket2Mol

>  <Protein>  (1) 
generic_title2

$$$$
Pocket2Mol_35_num_sample_100
     RDKit          3D

  0  0  0  0  0  0  0  0  0  0999 V3000
M  V30 BEGIN CTAB
M  V30 COUNTS 17 18 0 0 1
M  V30 BEGIN ATOM
M  V30 1 C 12.448007 9.485812 -5.807003 0
M  V30 2 O 12.986817 8.969301 -7.093286 0
M  V30 3 C 11.852470 8.562908 -7.686330 0
M  V30 4 C 10.752112 8.558906 -6.906808 0
M  V30 5 C 9.515236 8.168835 -7.421880 0
M  V30 6 N 9.434844 7.800304 -8.718453 0 CHG=1
M  V30 7 C 10.512853 7.783071 -9.542266 0
M  V30 8 C 11.776728 8.169979 -9.037033 0
M  V30 9 C 10.955900 8.996717 -5.531067 0
M  V30 10 H 12.440075 10.568770 -5.897844 0
M  V30 11 H 13.106822 9.262339 -4.967775 0
M  V30 12 H 8.599762 8.148053 -6.856237 0
M  V30 13 H 10.330658 7.472694 -10.561559 0
M  V30 14 H 12.653533 8.174194 -9.667906 0
M  V30 15 H 10.235907 9.769146 -5.238630 0
M  V30 16 H 10.915912 8.144201 -4.852747 0
M  V30 17 H 8.503635 7.533915 -9.096516 0
M  V30 END ATOM
M  V30 BEGIN BOND
M  V30 1 1 2 1
M  V30 2 1 3 2
M  V30 3 2 4 3
M  V30 4 1 5 4
M  V30 5 2 6 5
M  V30 6 1 7 6
M  V30 7 1 8 3
M  V30 8 2 8 7
M  V30 9 1 9 1
M  V30 10 1 9 4
M  V30 11 1 10 1
M  V30 12 1 11 1
M  V30 13 1 12 5
M  V30 14 1 13 7
M  V30 15 1 14 8
M  V30 16 1 15 9
M  V30 17 1 16 9
M  V30 18 1 17 6
M  V30 END BOND
M  V30 END CTAB
M  END
>  <i_epik_Tot_Q>  (1) 
1

>  <i_epik_Tot_abs_Q>  (1) 
1

>  <i_i_glide_confnum>  (1) 
1

>  <i_i_glide_lignum>  (1) 
39

>  <i_i_glide_posenum>  (1) 
6

>  <i_i_glide_rotatable_bonds>  (1) 
0

>  <i_lp_mmshare_version>  (1) 
72125

>  <i_m_source_file_index>  (1) 
36

>  <i_f3d_flags>  (1) 
0

>  <num_sample>  (1) 
100

>  <b_lp_Chiralities_Consistent>  (1) 
1

>  <r_epik_Charging_Adjusted_Penalty>  (1) 
0.75885481127580245

>  <r_epik_Ionization_Penalty>  (1) 
0.37942740563790117

>  <r_epik_Ionization_Penalty_Charging>  (1) 
0.37942740563790117

>  <r_epik_Ionization_Penalty_Neutral>  (1) 
0

>  <r_epik_State_Penalty>  (1) 
0.37942740563790123

>  <r_glide_ring_energy>  (1) 
0

>  <r_i_docking_score>  (1) 
-5.2670130026348172

>  <r_i_glide_ecoul>  (1) 
-4.2496765114377482

>  <r_i_glide_eff_state_penalty>  (1) 
0.37942740563790123

>  <r_i_glide_einternal>  (1) 
0

>  <r_i_glide_emodel>  (1) 
-27.927726001992507

>  <r_i_glide_emodel_strain>  (1) 
0.072857107209259198

>  <r_i_glide_energy>  (1) 
-17.506894372558897

>  <r_i_glide_erotb>  (1) 
0

>  <r_i_glide_esite>  (1) 
-0.10000000000000001

>  <r_i_glide_evdw>  (1) 
-13.25721786112115

>  <r_i_glide_gscore>  (1) 
-5.6464404082727189

>  <r_i_glide_gscore_strain>  (1) 
0

>  <r_i_glide_hbond>  (1) 
-0.20000000000000001

>  <r_i_glide_ligand_efficiency>  (1) 
-0.58522366695942418

>  <r_i_glide_ligand_efficiency_ln>  (1) 
-1.6473703598960352

>  <r_i_glide_ligand_efficiency_sa>  (1) 
-1.2173142825094134

>  <r_i_glide_lipo>  (1) 
-1.3711280385009994

>  <r_i_glide_metal>  (1) 
-0

>  <r_i_glide_rewards>  (1) 
-2.6749999999999998

>  <r_lp_Energy>  (1) 
18.327531999999998

>  <s_epik_cmdline>  (1) 
J2VwaWtfcHl0aG9uJywgJy1waHQnLCAnMS4wJywgJy1waCcsICc3LjQnLCAnLXRuJywgJzgnLCAnLW1hJywgJzUwMCcsICctaW1hZScsICc8aW5maWxlLm1hZT4nLCAnLW9tYWUnLCAnPG91dGZpbGUubWFlPic=

>  <s_epik_input>  (1) 
TzFbQ0gyXVtDSDJdYyhjMTIpW2NIXW5bY0hdW2NIXTI=

>  <s_glide_docking_method>  (1) 
confgen

>  <s_i_glide_gridfile>  (1) 
gpcr_drd2_6luq_protein_autoprepared_prepared

>  <s_lp_Force_Field>  (1) 
S-OPLS

>  <s_lp_Variant>  (1) 
Pocket2Mol_35_num_sample_100-1

>  <s_m_source_file>  (1) 
generated__ligand_Pocket2Mol_2026-05-06_prepared.sdf

>  <GenAI_Model>  (1) 
Pocket2Mol

>  <Protein>  (1) 
generic_title2

$$$$
Pocket2Mol_89_num_sample_100
     RDKit          3D

  0  0  0  0  0  0  0  0  0  0999 V3000
M  V30 BEGIN CTAB
M  V30 COUNTS 23 24 0 0 1
M  V30 BEGIN ATOM
M  V30 1 C 8.826724 4.589611 -9.954377 0
M  V30 2 O 8.490046 5.771848 -10.638586 0
M  V30 3 C 8.676968 4.800565 -8.455550 0
M  V30 4 O 8.698448 6.169235 -8.125573 0
M  V30 5 C 9.449836 6.654025 -10.953124 0
M  V30 6 C 9.834906 6.884939 -8.405543 0
M  V30 7 C 10.603134 7.401244 -7.335324 0
M  V30 8 O 9.673317 7.013793 -12.108117 0
M  V30 9 C 10.236691 7.152174 -9.755275 0
M  V30 10 C 10.181249 7.141151 -5.904779 0
M  V30 11 C 11.395684 7.926716 -9.989987 0
M  V30 12 C 12.150332 8.426138 -8.915776 0
M  V30 13 C 11.755754 8.168311 -7.594638 0
M  V30 14 H 9.834843 4.272076 -10.208939 0
M  V30 15 H 8.156644 3.804950 -10.300900 0
M  V30 16 H 9.434646 4.257284 -7.898397 0
M  V30 17 H 7.712038 4.412259 -8.131392 0
M  V30 18 H 11.035664 7.180995 -5.229301 0
M  V30 19 H 9.463296 7.901122 -5.601237 0
M  V30 20 H 9.713653 6.163821 -5.795173 0
M  V30 21 H 11.705094 8.140171 -11.001308 0
M  V30 22 H 13.034138 9.015147 -9.107827 0
M  V30 23 H 12.335178 8.565976 -6.775157 0
M  V30 END ATOM
M  V30 BEGIN BOND
M  V30 1 1 2 1
M  V30 2 1 3 1
M  V30 3 1 4 3
M  V30 4 1 5 2
M  V30 5 1 6 4
M  V30 6 2 7 6
M  V30 7 2 8 5
M  V30 8 1 9 5
M  V30 9 1 9 6
M  V30 10 1 10 7
M  V30 11 2 11 9
M  V30 12 1 12 11
M  V30 13 1 13 7
M  V30 14 2 13 12
M  V30 15 1 14 1
M  V30 16 1 15 1
M  V30 17 1 16 3
M  V30 18 1 17 3
M  V30 19 1 18 10
M  V30 20 1 19 10
M  V30 21 1 20 10
M  V30 22 1 21 11
M  V30 23 1 22 12
M  V30 24 1 23 13
M  V30 END BOND
M  V30 END CTAB
M  END
>  <i_epik_Tot_Q>  (1) 
0

>  <i_epik_Tot_abs_Q>  (1) 
0

>  <i_i_glide_confnum>  (1) 
3

>  <i_i_glide_lignum>  (1) 
96

>  <i_i_glide_posenum>  (1) 
59

>  <i_i_glide_rotatable_bonds>  (1) 
0

>  <i_lp_mmshare_version>  (1) 
72125

>  <i_m_source_file_index>  (1) 
90

>  <i_f3d_flags>  (1) 
0

>  <num_sample>  (1) 
100

>  <b_lp_Chiralities_Consistent>  (1) 
1

>  <r_epik_Charging_Adjusted_Penalty>  (1) 
0

>  <r_epik_Ionization_Penalty>  (1) 
1.0524661445465699e-15

>  <r_epik_Ionization_Penalty_Charging>  (1) 
0

>  <r_epik_Ionization_Penalty_Neutral>  (1) 
1.0524661445465699e-15

>  <r_epik_State_Penalty>  (1) 
-0

>  <r_glide_ring_energy>  (1) 
0.44692708829558941

>  <r_i_docking_score>  (1) 
-5.2577854376162447

>  <r_i_glide_ecoul>  (1) 
0.61187453724653906

>  <r_i_glide_eff_state_penalty>  (1) 
-0

>  <r_i_glide_einternal>  (1) 
0

>  <r_i_glide_emodel>  (1) 
-25.928770381343149

>  <r_i_glide_emodel_strain>  (1) 
0.030844448710752204

>  <r_i_glide_energy>  (1) 
-19.312428809495302

>  <r_i_glide_erotb>  (1) 
0

>  <r_i_glide_esite>  (1) 
-0.067446655575533629

>  <r_i_glide_evdw>  (1) 
-19.924303346741841

>  <r_i_glide_gscore>  (1) 
-5.2577854376162447

>  <r_i_glide_gscore_strain>  (1) 
0

>  <r_i_glide_hbond>  (1) 
0

>  <r_i_glide_ligand_efficiency>  (1) 
-0.40444503366278806

>  <r_i_glide_ligand_efficiency_ln>  (1) 
-1.4748555758896142

>  <r_i_glide_ligand_efficiency_sa>  (1) 
-0.9509856369277031

>  <r_i_glide_lipo>  (1) 
-1.2115111898511761

>  <r_i_glide_metal>  (1) 
-0

>  <r_i_glide_rewards>  (1) 
-3.0743936054394232

>  <r_lp_Energy>  (1) 
16.296527999999999

>  <r_lp_tautomer_probability>  (1) 
1

>  <s_epik_Chemistry_Notes>  (1) 
This compound has an ester and may undergo hydrolysis at high or low pH.

>  <s_epik_cmdline>  (1) 
J2VwaWtfcHl0aG9uJywgJy1waHQnLCAnMS4wJywgJy1waCcsICc3LjQnLCAnLXRuJywgJzgnLCAnLW1hJywgJzUwMCcsICctaW1hZScsICc8aW5maWxlLm1hZT4nLCAnLW9tYWUnLCAnPG91dGZpbGUubWFlPic=

>  <s_epik_input>  (1) 
TzFbQ0gyXVtDSDJdT0MoPU8pYyhjMTIpW2NIXVtjSF1bY0hdYzJbQ0gzXQ==

>  <s_glide_docking_method>  (1) 
confgen

>  <s_i_glide_gridfile>  (1) 
gpcr_drd2_6luq_protein_autoprepared_prepared

>  <s_lp_Force_Field>  (1) 
S-OPLS

>  <s_lp_Variant>  (1) 
Pocket2Mol_89_num_sample_100-1

>  <s_m_source_file>  (1) 
generated__ligand_Pocket2Mol_2026-05-06_prepared.sdf

>  <GenAI_Model>  (1) 
Pocket2Mol

>  <Protein>  (1) 
generic_title2

$$$$
Pocket2Mol_82_num_sample_100
     RDKit          3D

  0  0  0  0  0  0  0  0  0  0999 V3000
M  V30 BEGIN CTAB
M  V30 COUNTS 22 23 0 0 1
M  V30 BEGIN ATOM
M  V30 1 C 9.593479 6.586916 -10.406204 0
M  V30 2 O 10.469553 7.771982 -10.280753 0
M  V30 3 C 10.686137 7.814992 -8.947316 0
M  V30 4 C 10.131294 6.814959 -8.229020 0
M  V30 5 C 10.282109 6.739295 -6.833781 0
M  V30 6 C 9.372352 5.836065 -9.013061 0
M  V30 7 C 11.034839 7.745116 -6.169164 0
M  V30 8 O 11.221823 7.717580 -4.803876 0
M  V30 9 C 11.605730 8.795355 -6.923150 0
M  V30 10 O 12.321892 9.769301 -6.291667 0
M  V30 11 C 11.434839 8.828674 -8.326851 0
M  V30 12 C 11.079281 6.480765 -4.129156 0
M  V30 13 H 10.004142 5.904835 -11.150657 0
M  V30 14 H 8.634839 6.924627 -10.798277 0
M  V30 15 H 9.829402 5.929920 -6.283357 0
M  V30 16 H 9.834510 4.849080 -8.980178 0
M  V30 17 H 8.324265 5.788985 -8.712935 0
M  V30 18 H 12.330272 9.624003 -5.357199 0
M  V30 19 H 11.868263 9.624245 -8.914052 0
M  V30 20 H 11.435651 6.580790 -3.104139 0
M  V30 21 H 10.036832 6.169199 -4.084786 0
M  V30 22 H 11.679772 5.713239 -4.613072 0
M  V30 END ATOM
M  V30 BEGIN BOND
M  V30 1 1 2 1
M  V30 2 1 3 2
M  V30 3 1 4 3
M  V30 4 2 5 4
M  V30 5 1 6 1
M  V30 6 1 6 4
M  V30 7 1 7 5
M  V30 8 1 8 7
M  V30 9 2 9 7
M  V30 10 1 10 9
M  V30 11 2 11 3
M  V30 12 1 11 9
M  V30 13 1 12 8
M  V30 14 1 13 1
M  V30 15 1 14 1
M  V30 16 1 15 5
M  V30 17 1 16 6
M  V30 18 1 17 6
M  V30 19 1 18 10
M  V30 20 1 19 11
M  V30 21 1 20 12
M  V30 22 1 21 12
M  V30 23 1 22 12
M  V30 END BOND
M  V30 END CTAB
M  END
>  <i_epik_Tot_Q>  (1) 
0

>  <i_epik_Tot_abs_Q>  (1) 
0

>  <i_i_glide_confnum>  (1) 
1

>  <i_i_glide_lignum>  (1) 
89

>  <i_i_glide_posenum>  (1) 
351

>  <i_i_glide_rotatable_bonds>  (1) 
2

>  <i_lp_mmshare_version>  (1) 
72125

>  <i_m_source_file_index>  (1) 
83

>  <i_f3d_flags>  (1) 
0

>  <num_sample>  (1) 
100

>  <b_lp_Chiralities_Consistent>  (1) 
1

>  <r_epik_Charging_Adjusted_Penalty>  (1) 
0

>  <r_epik_Ionization_Penalty>  (1) 
0.0019697177408658601

>  <r_epik_Ionization_Penalty_Charging>  (1) 
0

>  <r_epik_Ionization_Penalty_Neutral>  (1) 
0.0019697177408658601

>  <r_epik_State_Penalty>  (1) 
-0

>  <r_glide_ring_energy>  (1) 
0

>  <r_i_docking_score>  (1) 
-5.2572320332802143

>  <r_i_glide_ecoul>  (1) 
-2.2275381196831812

>  <r_i_glide_eff_state_penalty>  (1) 
-0

>  <r_i_glide_einternal>  (1) 
0.56834308671410838

>  <r_i_glide_emodel>  (1) 
-30.771358367025922

>  <r_i_glide_emodel_strain>  (1) 
0.040676052584579736

>  <r_i_glide_energy>  (1) 
-23.711106431668902

>  <r_i_glide_erotb>  (1) 
0

>  <r_i_glide_esite>  (1) 
0

>  <r_i_glide_evdw>  (1) 
-21.483568311985721

>  <r_i_glide_gscore>  (1) 
-5.2572320332802143

>  <r_i_glide_gscore_strain>  (1) 
0

>  <r_i_glide_hbond>  (1) 
0

>  <r_i_glide_ligand_efficiency>  (1) 
-0.43810266944001786

>  <r_i_glide_ligand_efficiency_ln>  (1) 
-1.5085718389616063

>  <r_i_glide_ligand_efficiency_sa>  (1) 
-1.0030047308172456

>  <r_i_glide_lipo>  (1) 
-1.1158553854851763

>  <r_i_glide_metal>  (1) 
-0

>  <r_i_glide_rewards>  (1) 
-2.7330675142432743

>  <r_lp_Energy>  (1) 
16.449425999999999

>  <r_lp_tautomer_probability>  (1) 
1

>  <s_epik_cmdline>  (1) 
J2VwaWtfcHl0aG9uJywgJy1waHQnLCAnMS4wJywgJy1waCcsICc3LjQnLCAnLXRuJywgJzgnLCAnLW1hJywgJzUwMCcsICctaW1hZScsICc8aW5maWxlLm1hZT4nLCAnLW9tYWUnLCAnPG91dGZpbGUubWFlPic=

>  <s_epik_input>  (1) 
TzFbQ0gyXVtDSDJdYyhjMTIpW2NIXWMoT1tDSDNdKWMoW09IXSlbY0hdMg==

>  <s_glide_docking_method>  (1) 
confgen

>  <s_i_glide_gridfile>  (1) 
gpcr_drd2_6luq_protein_autoprepared_prepared

>  <s_lp_Force_Field>  (1) 
S-OPLS

>  <s_lp_Variant>  (1) 
Pocket2Mol_82_num_sample_100-1

>  <s_m_source_file>  (1) 
generated__ligand_Pocket2Mol_2026-05-06_prepared.sdf

>  <GenAI_Model>  (1) 
Pocket2Mol

>  <Protein>  (1) 
generic_title2

$$$$
Pocket2Mol_34_num_sample_100
     RDKit          3D

  0  0  0  0  0  0  0  0  0  0999 V3000
M  V30 BEGIN CTAB
M  V30 COUNTS 21 22 0 0 1
M  V30 BEGIN ATOM
M  V30 1 C 9.834839 8.319308 -8.851805 0
M  V30 2 O 9.591401 8.569302 -7.472695 0
M  V30 3 C 10.654028 7.992652 -6.725272 0 CFG=2
M  V30 4 C 10.280164 6.569301 -6.291666 0
M  V30 5 C 11.057891 8.882686 -5.559248 0
M  V30 6 C 11.323996 8.569301 -8.993302 0
M  V30 7 C 12.116922 9.788148 -6.156714 0
M  V30 8 C 11.856610 8.056096 -7.668110 0 CFG=1
M  V30 9 O 12.785837 8.969301 -7.098066 0
M  V30 10 H 9.235326 8.969351 -9.488829 0
M  V30 11 H 9.582317 7.285600 -9.092613 0
M  V30 12 H 11.110997 6.083155 -5.779651 0
M  V30 13 H 9.434820 6.578473 -5.606399 0
M  V30 14 H 10.008544 5.945491 -7.143292 0
M  V30 15 H 11.504405 8.287399 -4.761877 0
M  V30 16 H 10.234848 9.451698 -5.136543 0
M  V30 17 H 11.509767 9.639151 -9.094865 0
M  V30 18 H 11.760229 8.065104 -9.855666 0
M  V30 19 H 12.808166 10.169295 -5.406923 0
M  V30 20 H 11.661730 10.635201 -6.669871 0
M  V30 21 H 12.303399 7.072799 -7.781754 0
M  V30 END ATOM
M  V30 BEGIN BOND
M  V30 1 1 2 1
M  V30 2 1 3 2
M  V30 3 1 3 4 CFG=1
M  V30 4 1 5 3
M  V30 5 1 6 1
M  V30 6 1 7 5
M  V30 7 1 8 3
M  V30 8 1 8 6
M  V30 9 1 9 7
M  V30 10 1 9 8
M  V30 11 1 10 1
M  V30 12 1 11 1
M  V30 13 1 12 4
M  V30 14 1 13 4
M  V30 15 1 14 4
M  V30 16 1 15 5
M  V30 17 1 16 5
M  V30 18 1 17 6
M  V30 19 1 18 6
M  V30 20 1 19 7
M  V30 21 1 20 7
M  V30 22 1 8 21 CFG=3
M  V30 END BOND
M  V30 END CTAB
M  END
>  <i_epik_Tot_Q>  (1) 
0

>  <i_epik_Tot_abs_Q>  (1) 
0

>  <i_i_glide_confnum>  (1) 
2

>  <i_i_glide_lignum>  (1) 
38

>  <i_i_glide_posenum>  (1) 
183

>  <i_i_glide_rotatable_bonds>  (1) 
0

>  <i_lp_mmshare_version>  (1) 
72125

>  <i_m_source_file_index>  (1) 
35

>  <i_f3d_flags>  (1) 
0

>  <num_sample>  (1) 
100

>  <b_lp_Chiralities_Consistent>  (1) 
1

>  <r_epik_Charging_Adjusted_Penalty>  (1) 
0

>  <r_epik_Ionization_Penalty>  (1) 
2.529470820146915e-12

>  <r_epik_Ionization_Penalty_Charging>  (1) 
0

>  <r_epik_Ionization_Penalty_Neutral>  (1) 
2.529470820146915e-12

>  <r_epik_State_Penalty>  (1) 
-0

>  <r_glide_ring_energy>  (1) 
0.058801660810398726

>  <r_i_docking_score>  (1) 
-5.2555806481143073

>  <r_i_glide_ecoul>  (1) 
-0.37359336415409661

>  <r_i_glide_eff_state_penalty>  (1) 
-0

>  <r_i_glide_einternal>  (1) 
0

>  <r_i_glide_emodel>  (1) 
-23.777033197274257

>  <r_i_glide_emodel_strain>  (1) 
0

>  <r_i_glide_energy>  (1) 
-17.767072583967568

>  <r_i_glide_erotb>  (1) 
0

>  <r_i_glide_esite>  (1) 
0

>  <r_i_glide_evdw>  (1) 
-17.393479219813472

>  <r_i_glide_gscore>  (1) 
-5.2555806481143073

>  <r_i_glide_gscore_strain>  (1) 
0

>  <r_i_glide_hbond>  (1) 
0

>  <r_i_glide_ligand_efficiency>  (1) 
-0.58395340534603413

>  <r_i_glide_ligand_efficiency_ln>  (1) 
-1.6437946478232741

>  <r_i_glide_ligand_efficiency_sa>  (1) 
-1.2146720318763571

>  <r_i_glide_lipo>  (1) 
-1.4798676825005193

>  <r_i_glide_metal>  (1) 
-0

>  <r_i_glide_rewards>  (1) 
-2.8500000000000001

>  <r_lp_Energy>  (1) 
-0.369228

>  <r_lp_tautomer_probability>  (1) 
1

>  <s_epik_cmdline>  (1) 
J2VwaWtfcHl0aG9uJywgJy1waHQnLCAnMS4wJywgJy1waCcsICc3LjQnLCAnLXRuJywgJzgnLCAnLW1hJywgJzUwMCcsICctaW1hZScsICc8aW5maWxlLm1hZT4nLCAnLW9tYWUnLCAnPG91dGZpbGUubWFlPic=

>  <s_epik_input>  (1) 
TzFbQ0gyXVtDSDJdW0NASF0oW0NAXTEyW0NIM10pT1tDSDJdW0NIMl0y

>  <s_glide_docking_method>  (1) 
confgen

>  <s_i_glide_gridfile>  (1) 
gpcr_drd2_6luq_protein_autoprepared_prepared

>  <s_lp_Force_Field>  (1) 
S-OPLS

>  <s_lp_Variant>  (1) 
Pocket2Mol_34_num_sample_100-1

>  <s_m_source_file>  (1) 
generated__ligand_Pocket2Mol_2026-05-06_prepared.sdf

>  <GenAI_Model>  (1) 
Pocket2Mol

>  <Protein>  (1) 
generic_title2

$$$$
Pocket2Mol_35_num_sample_100
     RDKit          3D

  0  0  0  0  0  0  0  0  0  0999 V3000
M  V30 BEGIN CTAB
M  V30 COUNTS 16 17 0 0 1
M  V30 BEGIN ATOM
M  V30 1 C 12.490640 8.481829 -1.969593 0
M  V30 2 O 12.234150 9.563207 -2.947294 0
M  V30 3 C 11.840290 8.858630 -4.025680 0
M  V30 4 C 11.834837 7.526512 -3.891670 0
M  V30 5 C 11.429606 6.708848 -4.957940 0
M  V30 6 N 11.034821 7.212912 -6.157447 0
M  V30 7 C 11.041709 8.572101 -6.277079 0
M  V30 8 C 11.441190 9.439712 -5.232539 0
M  V30 9 C 12.253422 7.022922 -2.584811 0
M  V30 10 H 13.511617 8.572264 -1.598608 0
M  V30 11 H 11.834839 8.633899 -1.111931 0
M  V30 12 H 11.417127 5.637878 -4.855098 0
M  V30 13 H 10.721728 8.971201 -7.228226 0
M  V30 14 H 11.433480 10.511765 -5.362074 0
M  V30 15 H 11.460807 6.464687 -2.084746 0
M  V30 16 H 13.163660 6.429803 -2.655990 0
M  V30 END ATOM
M  V30 BEGIN BOND
M  V30 1 1 2 1
M  V30 2 1 3 2
M  V30 3 2 4 3
M  V30 4 1 5 4
M  V30 5 2 6 5
M  V30 6 1 7 6
M  V30 7 1 8 3
M  V30 8 2 8 7
M  V30 9 1 9 1
M  V30 10 1 9 4
M  V30 11 1 10 1
M  V30 12 1 11 1
M  V30 13 1 12 5
M  V30 14 1 13 7
M  V30 15 1 14 8
M  V30 16 1 15 9
M  V30 17 1 16 9
M  V30 END BOND
M  V30 END CTAB
M  END
>  <i_epik_Tot_Q>  (1) 
0

>  <i_epik_Tot_abs_Q>  (1) 
0

>  <i_i_glide_confnum>  (1) 
1

>  <i_i_glide_lignum>  (1) 
40

>  <i_i_glide_posenum>  (1) 
162

>  <i_i_glide_rotatable_bonds>  (1) 
0

>  <i_lp_mmshare_version>  (1) 
72125

>  <i_m_source_file_index>  (1) 
36

>  <i_f3d_flags>  (1) 
0

>  <num_sample>  (1) 
100

>  <b_lp_Chiralities_Consistent>  (1) 
1

>  <r_epik_Charging_Adjusted_Penalty>  (1) 
0.44367302241175355

>  <r_epik_Ionization_Penalty>  (1) 
0.44367302241175355

>  <r_epik_Ionization_Penalty_Charging>  (1) 
0

>  <r_epik_Ionization_Penalty_Neutral>  (1) 
0.44367302241175355

>  <r_epik_State_Penalty>  (1) 
0.44367302241175355

>  <r_glide_ring_energy>  (1) 
0

>  <r_i_docking_score>  (1) 
-5.2504029764503706

>  <r_i_glide_ecoul>  (1) 
0.063708798488520846

>  <r_i_glide_eff_state_penalty>  (1) 
0.44367302241175355

>  <r_i_glide_einternal>  (1) 
0

>  <r_i_glide_emodel>  (1) 
-27.991904335161024

>  <r_i_glide_emodel_strain>  (1) 
0

>  <r_i_glide_energy>  (1) 
-20.353874425161443

>  <r_i_glide_erotb>  (1) 
0

>  <r_i_glide_esite>  (1) 
0

>  <r_i_glide_evdw>  (1) 
-20.417583223649963

>  <r_i_glide_gscore>  (1) 
-5.6940759988621243

>  <r_i_glide_gscore_strain>  (1) 
0

>  <r_i_glide_hbond>  (1) 
0

>  <r_i_glide_ligand_efficiency>  (1) 
-0.58337810849448557

>  <r_i_glide_ligand_efficiency_ln>  (1) 
-1.6421752208675828

>  <r_i_glide_ligand_efficiency_sa>  (1) 
-1.2134753662019984

>  <r_i_glide_lipo>  (1) 
-2.016086490786237

>  <r_i_glide_metal>  (1) 
-0

>  <r_i_glide_rewards>  (1) 
-2.666666666666667

>  <r_lp_Energy>  (1) 
12.810587999999999

>  <s_epik_cmdline>  (1) 
J2VwaWtfcHl0aG9uJywgJy1waHQnLCAnMS4wJywgJy1waCcsICc3LjQnLCAnLXRuJywgJzgnLCAnLW1hJywgJzUwMCcsICctaW1hZScsICc8aW5maWxlLm1hZT4nLCAnLW9tYWUnLCAnPG91dGZpbGUubWFlPic=

>  <s_epik_input>  (1) 
TzFbQ0gyXVtDSDJdYyhjMTIpW2NIXW5bY0hdW2NIXTI=

>  <s_glide_docking_method>  (1) 
confgen

>  <s_i_glide_gridfile>  (1) 
gpcr_drd2_6luq_protein_autoprepared_prepared

>  <s_lp_Force_Field>  (1) 
S-OPLS

>  <s_lp_Variant>  (1) 
Pocket2Mol_35_num_sample_100-2

>  <s_m_source_file>  (1) 
generated__ligand_Pocket2Mol_2026-05-06_prepared.sdf

>  <GenAI_Model>  (1) 
Pocket2Mol

>  <Protein>  (1) 
generic_title2

$$$$
Pocket2Mol_74_num_sample_100
     RDKit          3D

  0  0  0  0  0  0  0  0  0  0999 V3000
M  V30 BEGIN CTAB
M  V30 COUNTS 20 21 0 0 1
M  V30 BEGIN ATOM
M  V30 1 C 9.077352 5.365265 -9.909656 0
M  V30 2 O 9.440150 6.679496 -10.230847 0
M  V30 3 C 8.523368 5.365517 -8.519251 0
M  V30 4 O 9.658851 5.403025 -7.727027 0
M  V30 5 C 10.552836 7.360005 -9.859070 0
M  V30 6 C 10.226549 6.600694 -7.378390 0
M  V30 7 C 10.398744 6.879914 -6.006703 0
M  V30 8 O 11.324472 7.853966 -10.675883 0
M  V30 9 C 10.709914 7.541181 -8.357044 0
M  V30 10 C 11.387910 8.700140 -7.913408 0
M  V30 11 C 11.542341 8.959863 -6.540670 0
M  V30 12 C 11.039931 8.057874 -5.591479 0
M  V30 13 H 9.898161 4.662176 -10.024974 0
M  V30 14 H 8.299779 5.059969 -10.608957 0
M  V30 15 H 7.999137 4.432028 -8.320907 0
M  V30 16 H 7.834839 6.169360 -8.300891 0
M  V30 17 H 10.042858 6.174488 -5.267623 0
M  V30 18 H 11.775794 9.403902 -8.636179 0
M  V30 19 H 12.050215 9.856507 -6.216977 0
M  V30 20 H 11.165918 8.261020 -4.539158 0
M  V30 END ATOM
M  V30 BEGIN BOND
M  V30 1 1 2 1
M  V30 2 1 3 1
M  V30 3 1 4 3
M  V30 4 1 5 2
M  V30 5 1 6 4
M  V30 6 2 7 6
M  V30 7 2 8 5
M  V30 8 1 9 5
M  V30 9 1 9 6
M  V30 10 2 10 9
M  V30 11 1 11 10
M  V30 12 1 12 7
M  V30 13 2 12 11
M  V30 14 1 13 1
M  V30 15 1 14 1
M  V30 16 1 15 3
M  V30 17 1 16 3
M  V30 18 1 17 7
M  V30 19 1 18 10
M  V30 20 1 19 11
M  V30 21 1 20 12
M  V30 END BOND
M  V30 END CTAB
M  END
>  <i_epik_Tot_Q>  (1) 
0

>  <i_epik_Tot_abs_Q>  (1) 
0

>  <i_i_glide_confnum>  (1) 
2

>  <i_i_glide_lignum>  (1) 
81

>  <i_i_glide_posenum>  (1) 
150

>  <i_i_glide_rotatable_bonds>  (1) 
0

>  <i_lp_mmshare_version>  (1) 
72125

>  <i_m_source_file_index>  (1) 
75

>  <i_f3d_flags>  (1) 
0

>  <num_sample>  (1) 
100

>  <b_lp_Chiralities_Consistent>  (1) 
1

>  <r_epik_Charging_Adjusted_Penalty>  (1) 
0

>  <r_epik_Ionization_Penalty>  (1) 
6.5779134034160639e-16

>  <r_epik_Ionization_Penalty_Charging>  (1) 
0

>  <r_epik_Ionization_Penalty_Neutral>  (1) 
6.5779134034160639e-16

>  <r_epik_State_Penalty>  (1) 
-0

>  <r_glide_ring_energy>  (1) 
0.0013676017921593852

>  <r_i_docking_score>  (1) 
-5.2458257775626187

>  <r_i_glide_ecoul>  (1) 
-1.3160209786922346

>  <r_i_glide_eff_state_penalty>  (1) 
-0

>  <r_i_glide_einternal>  (1) 
0

>  <r_i_glide_emodel>  (1) 
-28.769165701368546

>  <r_i_glide_emodel_strain>  (1) 
0.3906519417421066

>  <r_i_glide_energy>  (1) 
-21.318937066107978

>  <r_i_glide_erotb>  (1) 
0

>  <r_i_glide_esite>  (1) 
-0.030125098608973024

>  <r_i_glide_evdw>  (1) 
-20.002916087415745

>  <r_i_glide_gscore>  (1) 
-5.2458257775626187

>  <r_i_glide_gscore_strain>  (1) 
0

>  <r_i_glide_hbond>  (1) 
0

>  <r_i_glide_ligand_efficiency>  (1) 
-0.43715214813021824

>  <r_i_glide_ligand_efficiency_ln>  (1) 
-1.5052987941245835

>  <r_i_glide_ligand_efficiency_sa>  (1) 
-1.0008285802548895

>  <r_i_glide_lipo>  (1) 
-1.1507315723575349

>  <r_i_glide_metal>  (1) 
-0

>  <r_i_glide_rewards>  (1) 
-2.8674201554214882

>  <r_lp_Energy>  (1) 
17.344456999999998

>  <r_lp_tautomer_probability>  (1) 
1

>  <s_epik_Chemistry_Notes>  (1) 
This compound has an ester and may undergo hydrolysis at high or low pH.

>  <s_epik_cmdline>  (1) 
J2VwaWtfcHl0aG9uJywgJy1waHQnLCAnMS4wJywgJy1waCcsICc3LjQnLCAnLXRuJywgJzgnLCAnLW1hJywgJzUwMCcsICctaW1hZScsICc8aW5maWxlLm1hZT4nLCAnLW9tYWUnLCAnPG91dGZpbGUubWFlPic=

>  <s_epik_input>  (1) 
TzFbQ0gyXVtDSDJdT0MoPU8pYyhjMTIpW2NIXVtjSF1bY0hdW2NIXTI=

>  <s_glide_docking_method>  (1) 
confgen

>  <s_i_glide_gridfile>  (1) 
gpcr_drd2_6luq_protein_autoprepared_prepared

>  <s_lp_Force_Field>  (1) 
S-OPLS

>  <s_lp_Variant>  (1) 
Pocket2Mol_74_num_sample_100-1

>  <s_m_source_file>  (1) 
generated__ligand_Pocket2Mol_2026-05-06_prepared.sdf

>  <GenAI_Model>  (1) 
Pocket2Mol

>  <Protein>  (1) 
generic_title2

$$$$
Pocket2Mol_79_num_sample_100
     RDKit          3D

  0  0  0  0  0  0  0  0  0  0999 V3000
M  V30 BEGIN CTAB
M  V30 COUNTS 24 25 0 0 1
M  V30 BEGIN ATOM
M  V30 1 C 8.961363 5.323525 -11.042641 0
M  V30 2 O 9.321297 4.744174 -9.803195 0
M  V30 3 C 9.374304 6.794714 -11.117014 0
M  V30 4 O 10.630655 6.972442 -10.489316 0
M  V30 5 C 8.874518 5.462984 -8.669670 0
M  V30 6 C 10.648482 7.270869 -9.141588 0
M  V30 7 C 11.532074 8.266179 -8.672931 0
M  V30 8 C 9.806520 6.584315 -8.214108 0
M  V30 9 C 12.463869 8.968247 -9.639637 0
M  V30 10 C 11.558053 8.604737 -7.305142 0
M  V30 11 C 10.711130 7.945554 -6.397187 0
M  V30 12 C 9.842597 6.935853 -6.847774 0
M  V30 13 H 9.469701 4.757578 -11.824124 0
M  V30 14 H 7.890186 5.216516 -11.216158 0
M  V30 15 H 9.462426 7.093338 -12.161707 0
M  V30 16 H 8.630172 7.460653 -10.690791 0
M  V30 17 H 8.857327 4.729151 -7.864975 0
M  V30 18 H 7.843325 5.788488 -8.760682 0
M  V30 19 H 12.156488 9.997096 -9.817771 0
M  V30 20 H 13.466924 8.969212 -9.216354 0
M  V30 21 H 12.530359 8.464840 -10.603056 0
M  V30 22 H 12.231505 9.373060 -6.952636 0
M  V30 23 H 10.734113 8.208725 -5.350097 0
M  V30 24 H 9.203182 6.423572 -6.143086 0
M  V30 END ATOM
M  V30 BEGIN BOND
M  V30 1 1 2 1
M  V30 2 1 3 1
M  V30 3 1 4 3
M  V30 4 1 5 2
M  V30 5 1 6 4
M  V30 6 2 7 6
M  V30 7 1 8 5
M  V30 8 1 8 6
M  V30 9 1 9 7
M  V30 10 1 10 7
M  V30 11 2 11 10
M  V30 12 2 12 8
M  V30 13 1 12 11
M  V30 14 1 13 1
M  V30 15 1 14 1
M  V30 16 1 15 3
M  V30 17 1 16 3
M  V30 18 1 17 5
M  V30 19 1 18 5
M  V30 20 1 19 9
M  V30 21 1 20 9
M  V30 22 1 21 9
M  V30 23 1 22 10
M  V30 24 1 23 11
M  V30 25 1 24 12
M  V30 END BOND
M  V30 END CTAB
M  END
>  <i_epik_Tot_Q>  (1) 
0

>  <i_epik_Tot_abs_Q>  (1) 
0

>  <i_i_glide_confnum>  (1) 
2

>  <i_i_glide_lignum>  (1) 
86

>  <i_i_glide_posenum>  (1) 
288

>  <i_i_glide_rotatable_bonds>  (1) 
0

>  <i_lp_mmshare_version>  (1) 
72125

>  <i_m_source_file_index>  (1) 
80

>  <i_f3d_flags>  (1) 
0

>  <num_sample>  (1) 
100

>  <b_lp_Chiralities_Consistent>  (1) 
1

>  <r_epik_Charging_Adjusted_Penalty>  (1) 
0

>  <r_epik_Ionization_Penalty>  (1) 
2.8363962595523293e-13

>  <r_epik_Ionization_Penalty_Charging>  (1) 
0

>  <r_epik_Ionization_Penalty_Neutral>  (1) 
2.8363962595523293e-13

>  <r_epik_State_Penalty>  (1) 
-0

>  <r_glide_ring_energy>  (1) 
1.7614129466602644

>  <r_i_docking_score>  (1) 
-5.2445078298335348

>  <r_i_glide_ecoul>  (1) 
-1.2944737214075712

>  <r_i_glide_eff_state_penalty>  (1) 
-0

>  <r_i_glide_einternal>  (1) 
0

>  <r_i_glide_emodel>  (1) 
-27.59198782734007

>  <r_i_glide_emodel_strain>  (1) 
0.24185781248584348

>  <r_i_glide_energy>  (1) 
-21.224342839337229

>  <r_i_glide_erotb>  (1) 
0

>  <r_i_glide_esite>  (1) 
0

>  <r_i_glide_evdw>  (1) 
-19.929869117929659

>  <r_i_glide_gscore>  (1) 
-5.2445078298335348

>  <r_i_glide_gscore_strain>  (1) 
0

>  <r_i_glide_hbond>  (1) 
0

>  <r_i_glide_ligand_efficiency>  (1) 
-0.43704231915279457

>  <r_i_glide_ligand_efficiency_ln>  (1) 
-1.5049206067406649

>  <r_i_glide_ligand_efficiency_sa>  (1) 
-1.0005771346654857

>  <r_i_glide_lipo>  (1) 
-0.90850860289086799

>  <r_i_glide_metal>  (1) 
-0

>  <r_i_glide_rewards>  (1) 
-3.1453347128350488

>  <r_lp_Energy>  (1) 
16.059718999999998

>  <r_lp_tautomer_probability>  (1) 
1

>  <s_epik_cmdline>  (1) 
J2VwaWtfcHl0aG9uJywgJy1waHQnLCAnMS4wJywgJy1waCcsICc3LjQnLCAnLXRuJywgJzgnLCAnLW1hJywgJzUwMCcsICctaW1hZScsICc8aW5maWxlLm1hZT4nLCAnLW9tYWUnLCAnPG91dGZpbGUubWFlPic=

>  <s_epik_input>  (1) 
TzFbQ0gyXVtDSDJdT1tDSDJdYyhjMTIpW2NIXVtjSF1bY0hdYzJbQ0gzXQ==

>  <s_glide_docking_method>  (1) 
confgen

>  <s_i_glide_gridfile>  (1) 
gpcr_drd2_6luq_protein_autoprepared_prepared

>  <s_lp_Force_Field>  (1) 
S-OPLS

>  <s_lp_Variant>  (1) 
Pocket2Mol_79_num_sample_100-1

>  <s_m_source_file>  (1) 
generated__ligand_Pocket2Mol_2026-05-06_prepared.sdf

>  <GenAI_Model>  (1) 
Pocket2Mol

>  <Protein>  (1) 
generic_title2

$$$$
Pocket2Mol_26_num_sample_100
     RDKit          3D

  0  0  0  0  0  0  0  0  0  0999 V3000
M  V30 BEGIN CTAB
M  V30 COUNTS 15 15 0 0 1
M  V30 BEGIN ATOM
M  V30 1 C 10.752782 7.572558 -5.816603 0
M  V30 2 O 11.605558 8.720080 -5.786558 0
M  V30 3 C 11.763209 9.334137 -4.504918 0
M  V30 4 C 12.387430 8.370362 -3.470113 0 CFG=1
M  V30 5 O 12.234838 8.835073 -2.143607 0
M  V30 6 C 11.096177 6.620085 -4.690972 0
M  V30 7 C 11.834598 6.980623 -3.635345 0
M  V30 8 H 10.878475 7.064947 -6.773432 0
M  V30 9 H 9.707535 7.873818 -5.740009 0
M  V30 10 H 10.805059 9.730491 -4.165684 0
M  V30 11 H 12.440533 10.169336 -4.634611 0
M  V30 12 H 13.434839 8.279476 -3.681602 0
M  V30 13 H 12.805104 9.579651 -2.000210 0
M  V30 14 H 10.712034 5.618720 -4.762940 0
M  V30 15 H 12.052436 6.265791 -2.854924 0
M  V30 END ATOM
M  V30 BEGIN BOND
M  V30 1 1 2 1
M  V30 2 1 3 2
M  V30 3 1 4 3
M  V30 4 1 5 4
M  V30 5 1 6 1
M  V30 6 1 7 4
M  V30 7 2 7 6
M  V30 8 1 8 1
M  V30 9 1 9 1
M  V30 10 1 10 3
M  V30 11 1 11 3
M  V30 12 1 4 12 CFG=3
M  V30 13 1 13 5
M  V30 14 1 14 6
M  V30 15 1 15 7
M  V30 END BOND
M  V30 END CTAB
M  END
>  <i_epik_Tot_Q>  (1) 
0

>  <i_epik_Tot_abs_Q>  (1) 
0

>  <i_i_glide_confnum>  (1) 
1

>  <i_i_glide_lignum>  (1) 
30

>  <i_i_glide_posenum>  (1) 
215

>  <i_i_glide_rotatable_bonds>  (1) 
1

>  <i_lp_mmshare_version>  (1) 
72125

>  <i_m_source_file_index>  (1) 
27

>  <i_f3d_flags>  (1) 
0

>  <num_sample>  (1) 
100

>  <b_lp_Chiralities_Consistent>  (1) 
1

>  <r_epik_Charging_Adjusted_Penalty>  (1) 
0

>  <r_epik_Ionization_Penalty>  (1) 
7.567869706951744e-07

>  <r_epik_Ionization_Penalty_Charging>  (1) 
0

>  <r_epik_Ionization_Penalty_Neutral>  (1) 
7.567869706951744e-07

>  <r_epik_State_Penalty>  (1) 
-0

>  <r_glide_ring_energy>  (1) 
0

>  <r_i_docking_score>  (1) 
-5.2373137526217395

>  <r_i_glide_ecoul>  (1) 
-2.4695902246964119

>  <r_i_glide_eff_state_penalty>  (1) 
-0

>  <r_i_glide_einternal>  (1) 
0.47027708194954382

>  <r_i_glide_emodel>  (1) 
-24.508653682824061

>  <r_i_glide_emodel_strain>  (1) 
0

>  <r_i_glide_energy>  (1) 
-17.977176697262983

>  <r_i_glide_erotb>  (1) 
0

>  <r_i_glide_esite>  (1) 
0

>  <r_i_glide_evdw>  (1) 
-15.507586472566572

>  <r_i_glide_gscore>  (1) 
-5.2373137526217395

>  <r_i_glide_gscore_strain>  (1) 
0

>  <r_i_glide_hbond>  (1) 
-0.24420211772505071

>  <r_i_glide_ligand_efficiency>  (1) 
-0.74818767894596283

>  <r_i_glide_ligand_efficiency_ln>  (1) 
-1.7778253536691291

>  <r_i_glide_ligand_efficiency_sa>  (1) 
-1.4312315416218291

>  <r_i_glide_lipo>  (1) 
-1.3731085741675235

>  <r_i_glide_metal>  (1) 
-0

>  <r_i_glide_rewards>  (1) 
-2.4741852033963747

>  <r_lp_Energy>  (1) 
2.4739009999999997

>  <r_lp_tautomer_probability>  (1) 
1

>  <s_epik_cmdline>  (1) 
J2VwaWtfcHl0aG9uJywgJy1waHQnLCAnMS4wJywgJy1waCcsICc3LjQnLCAnLXRuJywgJzgnLCAnLW1hJywgJzUwMCcsICctaW1hZScsICc8aW5maWxlLm1hZT4nLCAnLW9tYWUnLCAnPG91dGZpbGUubWFlPic=

>  <s_epik_input>  (1) 
W0NIXTE9W0NIXVtDSDJdT1tDSDJdW0NASF0xW09IXQ==

>  <s_glide_docking_method>  (1) 
confgen

>  <s_i_glide_gridfile>  (1) 
gpcr_drd2_6luq_protein_autoprepared_prepared

>  <s_lp_Force_Field>  (1) 
S-OPLS

>  <s_lp_Variant>  (1) 
Pocket2Mol_26_num_sample_100-1

>  <s_m_source_file>  (1) 
generated__ligand_Pocket2Mol_2026-05-06_prepared.sdf

>  <GenAI_Model>  (1) 
Pocket2Mol

>  <Protein>  (1) 
generic_title2

$$$$
Pocket2Mol_59_num_sample_100
     RDKit          3D

  0  0  0  0  0  0  0  0  0  0999 V3000
M  V30 BEGIN CTAB
M  V30 COUNTS 17 18 0 0 1
M  V30 BEGIN ATOM
M  V30 1 C 9.288076 5.958225 -10.184095 0
M  V30 2 O 10.254795 7.064850 -10.352139 0
M  V30 3 C 10.549290 7.369244 -9.068743 0
M  V30 4 C 9.938202 6.639477 -8.135314 0
M  V30 5 C 10.161102 6.864980 -6.765835 0
M  V30 6 N 11.034838 7.858702 -6.359161 0 CHG=1
M  V30 7 C 9.034831 5.604952 -8.647454 0
M  V30 8 O 11.251904 8.076535 -5.110872 0 CHG=-1
M  V30 9 C 11.673446 8.613876 -7.333825 0
M  V30 10 C 11.433359 8.375003 -8.706940 0
M  V30 11 H 9.660154 5.081103 -10.714167 0
M  V30 12 H 8.349134 6.234897 -10.665274 0
M  V30 13 H 9.694915 6.310851 -5.965014 0
M  V30 14 H 9.369931 4.603533 -8.376648 0
M  V30 15 H 8.002623 5.769330 -8.336307 0
M  V30 16 H 12.341770 9.369286 -6.952615 0
M  V30 17 H 11.930699 8.966119 -9.462054 0
M  V30 END ATOM
M  V30 BEGIN BOND
M  V30 1 1 2 1
M  V30 2 1 3 2
M  V30 3 2 4 3
M  V30 4 1 5 4
M  V30 5 2 6 5
M  V30 6 1 7 1
M  V30 7 1 7 4
M  V30 8 1 8 6
M  V30 9 1 9 6
M  V30 10 1 10 3
M  V30 11 2 10 9
M  V30 12 1 11 1
M  V30 13 1 12 1
M  V30 14 1 13 5
M  V30 15 1 14 7
M  V30 16 1 15 7
M  V30 17 1 16 9
M  V30 18 1 17 10
M  V30 END BOND
M  V30 END CTAB
M  END
>  <i_epik_Tot_Q>  (1) 
0

>  <i_epik_Tot_abs_Q>  (1) 
2

>  <i_i_glide_confnum>  (1) 
1

>  <i_i_glide_lignum>  (1) 
66

>  <i_i_glide_posenum>  (1) 
285

>  <i_i_glide_rotatable_bonds>  (1) 
0

>  <i_lp_mmshare_version>  (1) 
72125

>  <i_m_source_file_index>  (1) 
60

>  <i_f3d_flags>  (1) 
0

>  <num_sample>  (1) 
100

>  <b_lp_Chiralities_Consistent>  (1) 
1

>  <r_epik_Charging_Adjusted_Penalty>  (1) 
1.5203065777176405e-06

>  <r_epik_Ionization_Penalty>  (1) 
1.5203065777176405e-06

>  <r_epik_Ionization_Penalty_Charging>  (1) 
1.5203065777176405e-06

>  <r_epik_Ionization_Penalty_Neutral>  (1) 
0

>  <r_epik_State_Penalty>  (1) 
-0

>  <r_glide_ring_energy>  (1) 
0

>  <r_i_docking_score>  (1) 
-5.2359160531895448

>  <r_i_glide_ecoul>  (1) 
-3.7295869857719004

>  <r_i_glide_eff_state_penalty>  (1) 
-0

>  <r_i_glide_einternal>  (1) 
0

>  <r_i_glide_emodel>  (1) 
-28.646924862279644

>  <r_i_glide_emodel_strain>  (1) 
0

>  <r_i_glide_energy>  (1) 
-20.8271924729025

>  <r_i_glide_erotb>  (1) 
0

>  <r_i_glide_esite>  (1) 
0

>  <r_i_glide_evdw>  (1) 
-17.0976054871306

>  <r_i_glide_gscore>  (1) 
-5.2359160531895448

>  <r_i_glide_gscore_strain>  (1) 
0

>  <r_i_glide_hbond>  (1) 
0

>  <r_i_glide_ligand_efficiency>  (1) 
-0.52359160531895443

>  <r_i_glide_ligand_efficiency_ln>  (1) 
-1.5853992874541762

>  <r_i_glide_ligand_efficiency_sa>  (1) 
-1.1280439179086381

>  <r_i_glide_lipo>  (1) 
-0.67956375037873973

>  <r_i_glide_metal>  (1) 
-0

>  <r_i_glide_rewards>  (1) 
-3.1420339805884896

>  <r_lp_Energy>  (1) 
12.910414999999999

>  <r_lp_tautomer_probability>  (1) 
1

>  <s_epik_cmdline>  (1) 
J2VwaWtfcHl0aG9uJywgJy1waHQnLCAnMS4wJywgJy1waCcsICc3LjQnLCAnLXRuJywgJzgnLCAnLW1hJywgJzUwMCcsICctaW1hZScsICc8aW5maWxlLm1hZT4nLCAnLW9tYWUnLCAnPG91dGZpbGUubWFlPic=

>  <s_epik_input>  (1) 
TzFbQ0gyXVtDSDJdYyhjMTIpW2NIXVtuK10oW08tXSlbY0hdW2NIXTI=

>  <s_glide_docking_method>  (1) 
confgen

>  <s_i_glide_gridfile>  (1) 
gpcr_drd2_6luq_protein_autoprepared_prepared

>  <s_lp_Force_Field>  (1) 
S-OPLS

>  <s_lp_Variant>  (1) 
Pocket2Mol_59_num_sample_100-1

>  <s_m_source_file>  (1) 
generated__ligand_Pocket2Mol_2026-05-06_prepared.sdf

>  <GenAI_Model>  (1) 
Pocket2Mol

>  <Protein>  (1) 
generic_title2

$$$$
Pocket2Mol_23_num_sample_100
     RDKit          3D

  0  0  0  0  0  0  0  0  0  0999 V3000
M  V30 BEGIN CTAB
M  V30 COUNTS 11 11 0 0 1
M  V30 BEGIN ATOM
M  V30 1 N 11.838884 9.591050 -4.842749 0
M  V30 2 C 11.122077 8.830376 -5.706654 0
M  V30 3 C 10.895900 7.452323 -5.521946 0
M  V30 4 C 12.364869 8.969249 -3.759073 0
M  V30 5 C 12.191933 7.595887 -3.491379 0
M  V30 6 F 10.171262 6.747164 -6.421164 0
M  V30 7 C 11.434839 6.823331 -4.390925 0
M  V30 8 H 10.717561 9.338571 -6.569276 0
M  V30 9 H 12.942372 9.586810 -3.086762 0
M  V30 10 H 12.630261 7.146373 -2.612457 0
M  V30 11 H 11.279463 5.769317 -4.218771 0
M  V30 END ATOM
M  V30 BEGIN BOND
M  V30 1 2 2 1
M  V30 2 1 3 2
M  V30 3 1 4 1
M  V30 4 2 5 4
M  V30 5 1 6 3
M  V30 6 2 7 3
M  V30 7 1 7 5
M  V30 8 1 8 2
M  V30 9 1 9 4
M  V30 10 1 10 5
M  V30 11 1 11 7
M  V30 END BOND
M  V30 END CTAB
M  END
>  <i_epik_Tot_Q>  (1) 
0

>  <i_epik_Tot_abs_Q>  (1) 
0

>  <i_i_glide_confnum>  (1) 
1

>  <i_i_glide_lignum>  (1) 
27

>  <i_i_glide_posenum>  (1) 
211

>  <i_i_glide_rotatable_bonds>  (1) 
0

>  <i_lp_mmshare_version>  (1) 
72125

>  <i_m_source_file_index>  (1) 
24

>  <i_f3d_flags>  (1) 
0

>  <num_sample>  (1) 
100

>  <b_lp_Chiralities_Consistent>  (1) 
1

>  <r_epik_Charging_Adjusted_Penalty>  (1) 
0

>  <r_epik_Ionization_Penalty>  (1) 
7.3223601380878174e-05

>  <r_epik_Ionization_Penalty_Charging>  (1) 
0

>  <r_epik_Ionization_Penalty_Neutral>  (1) 
7.3223601380878174e-05

>  <r_epik_State_Penalty>  (1) 
-0

>  <r_glide_ring_energy>  (1) 
0

>  <r_i_docking_score>  (1) 
-5.2225675331884132

>  <r_i_glide_ecoul>  (1) 
-0.13909520287612298

>  <r_i_glide_eff_state_penalty>  (1) 
-0

>  <r_i_glide_einternal>  (1) 
0

>  <r_i_glide_emodel>  (1) 
-20.504532346216077

>  <r_i_glide_emodel_strain>  (1) 
0

>  <r_i_glide_energy>  (1) 
-15.124612128371126

>  <r_i_glide_erotb>  (1) 
0

>  <r_i_glide_esite>  (1) 
0

>  <r_i_glide_evdw>  (1) 
-14.985516925495004

>  <r_i_glide_gscore>  (1) 
-5.2225675331884132

>  <r_i_glide_gscore_strain>  (1) 
0

>  <r_i_glide_hbond>  (1) 
0

>  <r_i_glide_ligand_efficiency>  (1) 
-0.74608107616977326

>  <r_i_glide_ligand_efficiency_ln>  (1) 
-1.772819695421862

>  <r_i_glide_ligand_efficiency_sa>  (1) 
-1.4272017554815415

>  <r_i_glide_lipo>  (1) 
-1.5079166410874012

>  <r_i_glide_metal>  (1) 
-0

>  <r_i_glide_rewards>  (1) 
-2.9445107653948432

>  <r_lp_Energy>  (1) 
10.789624

>  <r_lp_tautomer_probability>  (1) 
1

>  <s_epik_cmdline>  (1) 
J2VwaWtfcHl0aG9uJywgJy1waHQnLCAnMS4wJywgJy1waCcsICc3LjQnLCAnLXRuJywgJzgnLCAnLW1hJywgJzUwMCcsICctaW1hZScsICc8aW5maWxlLm1hZT4nLCAnLW9tYWUnLCAnPG91dGZpbGUubWFlPic=

>  <s_epik_input>  (1) 
W2NIXTFbY0hdW2NIXW5bY0hdYzFG

>  <s_glide_docking_method>  (1) 
confgen

>  <s_i_glide_gridfile>  (1) 
gpcr_drd2_6luq_protein_autoprepared_prepared

>  <s_lp_Force_Field>  (1) 
S-OPLS

>  <s_lp_Variant>  (1) 
Pocket2Mol_23_num_sample_100-1

>  <s_m_source_file>  (1) 
generated__ligand_Pocket2Mol_2026-05-06_prepared.sdf

>  <GenAI_Model>  (1) 
Pocket2Mol

>  <Protein>  (1) 
generic_title2

$$$$
Pocket2Mol_82_num_sample_100
     RDKit          3D

  0  0  0  0  0  0  0  0  0  0999 V3000
M  V30 BEGIN CTAB
M  V30 COUNTS 22 23 0 0 1
M  V30 BEGIN ATOM
M  V30 1 C 12.102883 9.353173 -4.822089 0
M  V30 2 O 11.434938 8.050517 -4.635596 0
M  V30 3 C 11.028026 7.762928 -5.890886 0
M  V30 4 C 11.432712 8.621151 -6.848461 0
M  V30 5 C 11.080387 8.435075 -8.202244 0
M  V30 6 C 12.252495 9.738312 -6.364501 0
M  V30 7 C 10.274073 7.315672 -8.550274 0
M  V30 8 O 9.906247 7.071941 -9.853808 0
M  V30 9 C 9.847750 6.429025 -7.541256 0
M  V30 10 O 9.060560 5.367155 -7.868116 0
M  V30 11 C 10.230679 6.650643 -6.199121 0
M  V30 12 C 9.686229 8.171637 -10.707871 0
M  V30 13 H 13.071291 9.358365 -4.319261 0
M  V30 14 H 11.486678 10.100179 -4.319668 0
M  V30 15 H 11.418382 9.129890 -8.957391 0
M  V30 16 H 13.287881 9.649235 -6.691654 0
M  V30 17 H 11.834733 10.716153 -6.607391 0
M  V30 18 H 8.673544 5.500840 -8.723042 0
M  V30 19 H 9.908187 5.978364 -5.419180 0
M  V30 20 H 9.131011 7.841815 -11.585695 0
M  V30 21 H 9.106026 8.957593 -10.219233 0
M  V30 22 H 10.634839 8.569300 -11.052938 0
M  V30 END ATOM
M  V30 BEGIN BOND
M  V30 1 1 2 1
M  V30 2 1 3 2
M  V30 3 1 4 3
M  V30 4 2 5 4
M  V30 5 1 6 1
M  V30 6 1 6 4
M  V30 7 1 7 5
M  V30 8 1 8 7
M  V30 9 2 9 7
M  V30 10 1 10 9
M  V30 11 2 11 3
M  V30 12 1 11 9
M  V30 13 1 12 8
M  V30 14 1 13 1
M  V30 15 1 14 1
M  V30 16 1 15 5
M  V30 17 1 16 6
M  V30 18 1 17 6
M  V30 19 1 18 10
M  V30 20 1 19 11
M  V30 21 1 20 12
M  V30 22 1 21 12
M  V30 23 1 22 12
M  V30 END BOND
M  V30 END CTAB
M  END
>  <i_epik_Tot_Q>  (1) 
0

>  <i_epik_Tot_abs_Q>  (1) 
0

>  <i_i_glide_confnum>  (1) 
1

>  <i_i_glide_lignum>  (1) 
89

>  <i_i_glide_posenum>  (1) 
250

>  <i_i_glide_rotatable_bonds>  (1) 
2

>  <i_lp_mmshare_version>  (1) 
72125

>  <i_m_source_file_index>  (1) 
83

>  <i_f3d_flags>  (1) 
0

>  <num_sample>  (1) 
100

>  <b_lp_Chiralities_Consistent>  (1) 
1

>  <r_epik_Charging_Adjusted_Penalty>  (1) 
0

>  <r_epik_Ionization_Penalty>  (1) 
0.0019697177408658601

>  <r_epik_Ionization_Penalty_Charging>  (1) 
0

>  <r_epik_Ionization_Penalty_Neutral>  (1) 
0.0019697177408658601

>  <r_epik_State_Penalty>  (1) 
-0

>  <r_glide_ring_energy>  (1) 
0

>  <r_i_docking_score>  (1) 
-5.2188936068990879

>  <r_i_glide_ecoul>  (1) 
-0.20707686264203318

>  <r_i_glide_eff_state_penalty>  (1) 
-0

>  <r_i_glide_einternal>  (1) 
1.7012275710098619

>  <r_i_glide_emodel>  (1) 
-28.338414613037838

>  <r_i_glide_emodel_strain>  (1) 
0.28448326148696879

>  <r_i_glide_energy>  (1) 
-22.142268053846362

>  <r_i_glide_erotb>  (1) 
0

>  <r_i_glide_esite>  (1) 
0

>  <r_i_glide_evdw>  (1) 
-21.935191191204328

>  <r_i_glide_gscore>  (1) 
-5.2188936068990879

>  <r_i_glide_gscore_strain>  (1) 
0

>  <r_i_glide_hbond>  (1) 
0

>  <r_i_glide_ligand_efficiency>  (1) 
-0.43490780057492401

>  <r_i_glide_ligand_efficiency_ln>  (1) 
-1.4975705610985512

>  <r_i_glide_ligand_efficiency_sa>  (1) 
-0.99569030703131933

>  <r_i_glide_lipo>  (1) 
-1.5327391846092329

>  <r_i_glide_metal>  (1) 
-0

>  <r_i_glide_rewards>  (1) 
-2.5583333333333336

>  <r_lp_Energy>  (1) 
16.449425999999999

>  <r_lp_tautomer_probability>  (1) 
1

>  <s_epik_cmdline>  (1) 
J2VwaWtfcHl0aG9uJywgJy1waHQnLCAnMS4wJywgJy1waCcsICc3LjQnLCAnLXRuJywgJzgnLCAnLW1hJywgJzUwMCcsICctaW1hZScsICc8aW5maWxlLm1hZT4nLCAnLW9tYWUnLCAnPG91dGZpbGUubWFlPic=

>  <s_epik_input>  (1) 
TzFbQ0gyXVtDSDJdYyhjMTIpW2NIXWMoT1tDSDNdKWMoW09IXSlbY0hdMg==

>  <s_glide_docking_method>  (1) 
confgen

>  <s_i_glide_gridfile>  (1) 
gpcr_drd2_6luq_protein_autoprepared_prepared

>  <s_lp_Force_Field>  (1) 
S-OPLS

>  <s_lp_Variant>  (1) 
Pocket2Mol_82_num_sample_100-1

>  <s_m_source_file>  (1) 
generated__ligand_Pocket2Mol_2026-05-06_prepared.sdf

>  <GenAI_Model>  (1) 
Pocket2Mol

>  <Protein>  (1) 
generic_title2

$$$$
Pocket2Mol_48_num_sample_100
     RDKit          3D

  0  0  0  0  0  0  0  0  0  0999 V3000
M  V30 BEGIN CTAB
M  V30 COUNTS 20 21 0 0 1
M  V30 BEGIN ATOM
M  V30 1 C 10.478786 8.542298 -7.808361 0
M  V30 2 O 10.790313 9.329523 -6.691667 0
M  V30 3 C 11.257011 8.676595 -5.575880 0
M  V30 4 C 10.943969 7.316360 -5.357279 0
M  V30 5 C 11.434830 6.658539 -4.210307 0
M  V30 6 C 12.043006 9.372958 -4.642128 0
M  V30 7 C 12.532361 8.717260 -3.495172 0
M  V30 8 C 10.071001 6.568407 -6.348819 0
M  V30 9 C 12.232932 7.359132 -3.280673 0
M  V30 10 N 9.434828 7.475505 -7.313456 0 CHG=1
M  V30 11 H 10.022703 9.133770 -8.601359 0
M  V30 12 H 11.374459 8.057929 -8.202430 0
M  V30 13 H 11.196752 5.621858 -4.040491 0
M  V30 14 H 12.270078 10.412519 -4.807764 0
M  V30 15 H 13.138029 9.257022 -2.781206 0
M  V30 16 H 10.684083 5.838585 -6.879755 0
M  V30 17 H 9.287066 6.028112 -5.820822 0
M  V30 18 H 12.607673 6.854758 -2.401610 0
M  V30 19 H 8.653940 7.937284 -6.866931 0
M  V30 20 H 9.060574 6.950802 -8.093503 0
M  V30 END ATOM
M  V30 BEGIN BOND
M  V30 1 1 2 1
M  V30 2 1 3 2
M  V30 3 1 4 3
M  V30 4 2 5 4
M  V30 5 2 6 3
M  V30 6 1 7 6
M  V30 7 1 8 4
M  V30 8 1 9 5
M  V30 9 2 9 7
M  V30 10 1 10 1
M  V30 11 1 10 8
M  V30 12 1 11 1
M  V30 13 1 12 1
M  V30 14 1 13 5
M  V30 15 1 14 6
M  V30 16 1 15 7
M  V30 17 1 16 8
M  V30 18 1 17 8
M  V30 19 1 18 9
M  V30 20 1 19 10
M  V30 21 1 20 10
M  V30 END BOND
M  V30 END CTAB
M  END
>  <i_epik_Tot_Q>  (1) 
1

>  <i_epik_Tot_abs_Q>  (1) 
1

>  <i_i_glide_confnum>  (1) 
1

>  <i_i_glide_lignum>  (1) 
55

>  <i_i_glide_posenum>  (1) 
270

>  <i_i_glide_rotatable_bonds>  (1) 
0

>  <i_lp_mmshare_version>  (1) 
72125

>  <i_m_source_file_index>  (1) 
49

>  <i_f3d_flags>  (1) 
0

>  <num_sample>  (1) 
100

>  <b_lp_Chiralities_Consistent>  (1) 
1

>  <r_epik_Charging_Adjusted_Penalty>  (1) 
1.7789378330503367

>  <r_epik_Ionization_Penalty>  (1) 
0.88946891652516835

>  <r_epik_Ionization_Penalty_Charging>  (1) 
0.88946891652516835

>  <r_epik_Ionization_Penalty_Neutral>  (1) 
0

>  <r_epik_State_Penalty>  (1) 
0.88946891652516835

>  <r_glide_ring_energy>  (1) 
0

>  <r_i_docking_score>  (1) 
-5.2154770601102847

>  <r_i_glide_ecoul>  (1) 
-4.2831522454651143

>  <r_i_glide_eff_state_penalty>  (1) 
0.88946891652516835

>  <r_i_glide_einternal>  (1) 
0

>  <r_i_glide_emodel>  (1) 
-34.673496879474385

>  <r_i_glide_emodel_strain>  (1) 
0

>  <r_i_glide_energy>  (1) 
-20.634252819310031

>  <r_i_glide_erotb>  (1) 
0

>  <r_i_glide_esite>  (1) 
-0.080591638043234756

>  <r_i_glide_evdw>  (1) 
-16.351100573844917

>  <r_i_glide_gscore>  (1) 
-6.1049459766354532

>  <r_i_glide_gscore_strain>  (1) 
0

>  <r_i_glide_hbond>  (1) 
0

>  <r_i_glide_ligand_efficiency>  (1) 
-0.52154770601102851

>  <r_i_glide_ligand_efficiency_ln>  (1) 
-1.5792105012446647

>  <r_i_glide_ligand_efficiency_sa>  (1) 
-1.1236404703367102

>  <r_i_glide_lipo>  (1) 
-2.0025498128715817

>  <r_i_glide_metal>  (1) 
-0

>  <r_i_glide_rewards>  (1) 
-2.5617766602086234

>  <r_lp_Energy>  (1) 
22.335957999999998

>  <r_lp_tautomer_probability>  (1) 
1

>  <s_epik_Chemistry_Notes>  (1) 
This compound contains an acetal/aminal-like group ( X-CH(R)-Y where X, Y are N, S, or O) that may be acid/base labile, releasing an aldehyde.

>  <s_epik_cmdline>  (1) 
J2VwaWtfcHl0aG9uJywgJy1waHQnLCAnMS4wJywgJy1waCcsICc3LjQnLCAnLXRuJywgJzgnLCAnLW1hJywgJzUwMCcsICctaW1hZScsICc8aW5maWxlLm1hZT4nLCAnLW9tYWUnLCAnPG91dGZpbGUubWFlPic=

>  <s_epik_input>  (1) 
TzFbQ0gyXVtOSF1bQ0gyXWMoYzEyKVtjSF1bY0hdW2NIXVtjSF0y

>  <s_glide_docking_method>  (1) 
confgen

>  <s_i_glide_gridfile>  (1) 
gpcr_drd2_6luq_protein_autoprepared_prepared

>  <s_lp_Force_Field>  (1) 
S-OPLS

>  <s_lp_Variant>  (1) 
Pocket2Mol_48_num_sample_100-2

>  <s_m_source_file>  (1) 
generated__ligand_Pocket2Mol_2026-05-06_prepared.sdf

>  <GenAI_Model>  (1) 
Pocket2Mol

>  <Protein>  (1) 
generic_title2

$$$$
Pocket2Mol_45_num_sample_100
     RDKit          3D

  0  0  0  0  0  0  0  0  0  0999 V3000
M  V30 BEGIN CTAB
M  V30 COUNTS 14 15 0 0 1
M  V30 BEGIN ATOM
M  V30 1 C 9.762914 7.592208 -7.271139 0
M  V30 2 O 10.361426 8.894276 -6.970375 0
M  V30 3 C 10.997572 8.579358 -5.841472 0
M  V30 4 C 10.873974 7.316930 -5.472854 0
M  V30 5 C 11.486352 6.852334 -4.296362 0
M  V30 6 N 12.234775 7.664804 -3.491667 0
M  V30 7 C 12.345636 8.969311 -3.891256 0
M  V30 8 C 11.740211 9.473435 -5.068229 0
M  V30 9 O 10.133398 6.569194 -6.293124 0
M  V30 10 H 8.675403 7.693931 -7.275678 0
M  V30 11 H 10.078497 7.270969 -8.264540 0
M  V30 12 H 11.385066 5.821802 -3.989412 0
M  V30 13 H 12.930960 9.618014 -3.256477 0
M  V30 14 H 11.846310 10.508744 -5.355791 0
M  V30 END ATOM
M  V30 BEGIN BOND
M  V30 1 1 2 1
M  V30 2 1 3 2
M  V30 3 2 4 3
M  V30 4 1 5 4
M  V30 5 2 6 5
M  V30 6 1 7 6
M  V30 7 1 8 3
M  V30 8 2 8 7
M  V30 9 1 9 1
M  V30 10 1 9 4
M  V30 11 1 10 1
M  V30 12 1 11 1
M  V30 13 1 12 5
M  V30 14 1 13 7
M  V30 15 1 14 8
M  V30 END BOND
M  V30 END CTAB
M  END
>  <i_epik_Tot_Q>  (1) 
0

>  <i_epik_Tot_abs_Q>  (1) 
0

>  <i_i_glide_confnum>  (1) 
1

>  <i_i_glide_lignum>  (1) 
50

>  <i_i_glide_posenum>  (1) 
119

>  <i_i_glide_rotatable_bonds>  (1) 
0

>  <i_lp_mmshare_version>  (1) 
72125

>  <i_m_source_file_index>  (1) 
46

>  <i_f3d_flags>  (1) 
0

>  <num_sample>  (1) 
100

>  <b_lp_Chiralities_Consistent>  (1) 
1

>  <r_epik_Charging_Adjusted_Penalty>  (1) 
0.069790075728531922

>  <r_epik_Ionization_Penalty>  (1) 
0.069790075728531936

>  <r_epik_Ionization_Penalty_Charging>  (1) 
0

>  <r_epik_Ionization_Penalty_Neutral>  (1) 
0.069790075728531936

>  <r_epik_State_Penalty>  (1) 
0.069790075728531922

>  <r_glide_ring_energy>  (1) 
0

>  <r_i_docking_score>  (1) 
-5.2152655868464253

>  <r_i_glide_ecoul>  (1) 
-0.79994529478844667

>  <r_i_glide_eff_state_penalty>  (1) 
0.069790075728531922

>  <r_i_glide_einternal>  (1) 
0

>  <r_i_glide_emodel>  (1) 
-27.050207506150418

>  <r_i_glide_emodel_strain>  (1) 
0

>  <r_i_glide_energy>  (1) 
-20.159014631973275

>  <r_i_glide_erotb>  (1) 
0

>  <r_i_glide_esite>  (1) 
-0.057465827544822157

>  <r_i_glide_evdw>  (1) 
-19.359069337184827

>  <r_i_glide_gscore>  (1) 
-5.2850556625749574

>  <r_i_glide_gscore_strain>  (1) 
0

>  <r_i_glide_hbond>  (1) 
0

>  <r_i_glide_ligand_efficiency>  (1) 
-0.57947395409404723

>  <r_i_glide_ligand_efficiency_ln>  (1) 
-1.6311852548035723

>  <r_i_glide_ligand_efficiency_sa>  (1) 
-1.2053543977909495

>  <r_i_glide_lipo>  (1) 
-1.4508167282252651

>  <r_i_glide_metal>  (1) 
-0

>  <r_i_glide_rewards>  (1) 
-2.6888278457273618

>  <r_lp_Energy>  (1) 
21.238785

>  <r_lp_tautomer_probability>  (1) 
1

>  <s_epik_Chemistry_Notes>  (1) 
This compound contains an acetal/aminal-like group ( X-CH(R)-Y where X, Y are N, S, or O) that may be acid/base labile, releasing an aldehyde.

>  <s_epik_cmdline>  (1) 
J2VwaWtfcHl0aG9uJywgJy1waHQnLCAnMS4wJywgJy1waCcsICc3LjQnLCAnLXRuJywgJzgnLCAnLW1hJywgJzUwMCcsICctaW1hZScsICc8aW5maWxlLm1hZT4nLCAnLW9tYWUnLCAnPG91dGZpbGUubWFlPic=

>  <s_epik_input>  (1) 
TzFbQ0gyXU9jKGMxMilbY0hdbltjSF1bY0hdMg==

>  <s_glide_docking_method>  (1) 
confgen

>  <s_i_glide_gridfile>  (1) 
gpcr_drd2_6luq_protein_autoprepared_prepared

>  <s_lp_Force_Field>  (1) 
S-OPLS

>  <s_lp_Variant>  (1) 
Pocket2Mol_45_num_sample_100-1

>  <s_m_source_file>  (1) 
generated__ligand_Pocket2Mol_2026-05-06_prepared.sdf

>  <GenAI_Model>  (1) 
Pocket2Mol

>  <Protein>  (1) 
generic_title2

$$$$
Pocket2Mol_52_num_sample_100
     RDKit          3D

  0  0  0  0  0  0  0  0  0  0999 V3000
M  V30 BEGIN CTAB
M  V30 COUNTS 15 16 0 0 1
M  V30 BEGIN ATOM
M  V30 1 C 10.696053 7.401364 -10.710215 0
M  V30 2 O 9.834743 6.569301 -9.927723 0
M  V30 3 C 10.116345 6.924873 -8.617509 0
M  V30 4 C 11.060987 7.876588 -8.645557 0
M  V30 5 C 11.524287 8.414235 -7.426214 0
M  V30 6 C 9.573966 6.439780 -7.451824 0
M  V30 7 C 11.476905 8.225720 -9.909407 0
M  V30 8 N 11.014322 7.964087 -6.211556 0 CHG=1
M  V30 9 O 11.435468 8.453871 -5.099387 0 CHG=-1
M  V30 10 C 10.036440 6.969302 -6.228994 0
M  V30 11 H 10.610422 7.264167 -11.778436 0
M  V30 12 H 12.277468 9.182814 -7.343385 0
M  V30 13 H 8.812401 5.674276 -7.472637 0
M  V30 14 H 12.223785 8.967931 -10.152288 0
M  V30 15 H 9.683579 6.662410 -5.256507 0
M  V30 END ATOM
M  V30 BEGIN BOND
M  V30 1 1 2 1
M  V30 2 1 3 2
M  V30 3 1 4 3
M  V30 4 2 5 4
M  V30 5 2 6 3
M  V30 6 2 7 1
M  V30 7 1 7 4
M  V30 8 1 8 5
M  V30 9 1 9 8
M  V30 10 1 10 6
M  V30 11 2 10 8
M  V30 12 1 11 1
M  V30 13 1 12 5
M  V30 14 1 13 6
M  V30 15 1 14 7
M  V30 16 1 15 10
M  V30 END BOND
M  V30 END CTAB
M  END
>  <i_epik_Tot_Q>  (1) 
0

>  <i_epik_Tot_abs_Q>  (1) 
2

>  <i_i_glide_confnum>  (1) 
1

>  <i_i_glide_lignum>  (1) 
59

>  <i_i_glide_posenum>  (1) 
341

>  <i_i_glide_rotatable_bonds>  (1) 
0

>  <i_lp_mmshare_version>  (1) 
72125

>  <i_m_source_file_index>  (1) 
53

>  <i_f3d_flags>  (1) 
0

>  <num_sample>  (1) 
100

>  <b_lp_Chiralities_Consistent>  (1) 
1

>  <r_epik_Charging_Adjusted_Penalty>  (1) 
1.0992902245007022e-07

>  <r_epik_Ionization_Penalty>  (1) 
1.0992902245007022e-07

>  <r_epik_Ionization_Penalty_Charging>  (1) 
1.0992902245007022e-07

>  <r_epik_Ionization_Penalty_Neutral>  (1) 
0

>  <r_epik_State_Penalty>  (1) 
-0

>  <r_glide_ring_energy>  (1) 
0

>  <r_i_docking_score>  (1) 
-5.2151549489733418

>  <r_i_glide_ecoul>  (1) 
-3.2139932891836684

>  <r_i_glide_eff_state_penalty>  (1) 
-0

>  <r_i_glide_einternal>  (1) 
0

>  <r_i_glide_emodel>  (1) 
-26.334484476050136

>  <r_i_glide_emodel_strain>  (1) 
0

>  <r_i_glide_energy>  (1) 
-18.863485917440524

>  <r_i_glide_erotb>  (1) 
0

>  <r_i_glide_esite>  (1) 
0

>  <r_i_glide_evdw>  (1) 
-15.649492628256855

>  <r_i_glide_gscore>  (1) 
-5.2151549489733418

>  <r_i_glide_gscore_strain>  (1) 
0

>  <r_i_glide_hbond>  (1) 
0

>  <r_i_glide_ligand_efficiency>  (1) 
-0.52151549489733418

>  <r_i_glide_ligand_efficiency_ln>  (1) 
-1.5791129682128509

>  <r_i_glide_ligand_efficiency_sa>  (1) 
-1.1235710735959628

>  <r_i_glide_lipo>  (1) 
-0.71110642332307539

>  <r_i_glide_metal>  (1) 
-0

>  <r_i_glide_rewards>  (1) 
-3.2394749008598733

>  <r_lp_Energy>  (1) 
10.75684

>  <r_lp_tautomer_probability>  (1) 
1

>  <s_epik_cmdline>  (1) 
J2VwaWtfcHl0aG9uJywgJy1waHQnLCAnMS4wJywgJy1waCcsICc3LjQnLCAnLXRuJywgJzgnLCAnLW1hJywgJzUwMCcsICctaW1hZScsICc8aW5maWxlLm1hZT4nLCAnLW9tYWUnLCAnPG91dGZpbGUubWFlPic=

>  <s_epik_input>  (1) 
bzFbY0hdW2NIXWMoYzEyKVtjSF1bbitdKFtPLV0pW2NIXVtjSF0y

>  <s_glide_docking_method>  (1) 
confgen

>  <s_i_glide_gridfile>  (1) 
gpcr_drd2_6luq_protein_autoprepared_prepared

>  <s_lp_Force_Field>  (1) 
S-OPLS

>  <s_lp_Variant>  (1) 
Pocket2Mol_52_num_sample_100-1

>  <s_m_source_file>  (1) 
generated__ligand_Pocket2Mol_2026-05-06_prepared.sdf

>  <GenAI_Model>  (1) 
Pocket2Mol

>  <Protein>  (1) 
generic_title2

$$$$
Pocket2Mol_0_num_sample_100
     RDKit          3D

  0  0  0  0  0  0  0  0  0  0999 V3000
M  V30 BEGIN CTAB
M  V30 COUNTS 21 23 0 0 1
M  V30 BEGIN ATOM
M  V30 1 C 11.434839 8.870377 -5.697532 0
M  V30 2 O 11.741350 9.281118 -7.082722 0
M  V30 3 C 11.100988 8.327161 -7.797004 0
M  V30 4 C 10.567579 7.326146 -7.083863 0
M  V30 5 C 9.867850 6.279970 -7.693014 0
M  V30 6 C 10.772462 7.419502 -5.639356 0
M  V30 7 C 10.987288 8.368802 -9.190572 0
M  V30 8 C 9.709215 6.258182 -9.100220 0
M  V30 9 N 9.034852 5.245113 -9.702379 0
M  V30 10 C 8.928807 5.314338 -11.041694 0
M  V30 11 C 10.290049 7.340690 -9.878545 0
M  V30 12 C 9.487711 6.356099 -11.792390 0
M  V30 13 N 10.175607 7.369367 -11.232493 0
M  V30 14 H 10.729037 9.600678 -5.298878 0
M  V30 15 H 12.325113 8.932226 -5.071764 0
M  V30 16 H 9.446173 5.489068 -7.091648 0
M  V30 17 H 9.834863 7.377531 -5.091595 0
M  V30 18 H 11.460460 6.647113 -5.294601 0
M  V30 19 H 11.427668 9.185073 -9.742651 0
M  V30 20 H 8.385083 4.516703 -11.526121 0
M  V30 21 H 9.383214 6.376923 -12.866888 0
M  V30 END ATOM
M  V30 BEGIN BOND
M  V30 1 1 2 1
M  V30 2 1 3 2
M  V30 3 1 4 3
M  V30 4 2 5 4
M  V30 5 1 6 1
M  V30 6 1 6 4
M  V30 7 2 7 3
M  V30 8 1 8 5
M  V30 9 2 9 8
M  V30 10 1 10 9
M  V30 11 1 11 7
M  V30 12 1 11 8
M  V30 13 2 12 10
M  V30 14 2 13 11
M  V30 15 1 13 12
M  V30 16 1 14 1
M  V30 17 1 15 1
M  V30 18 1 16 5
M  V30 19 1 17 6
M  V30 20 1 18 6
M  V30 21 1 19 7
M  V30 22 1 20 10
M  V30 23 1 21 12
M  V30 END BOND
M  V30 END CTAB
M  END
>  <i_epik_Tot_Q>  (1) 
0

>  <i_epik_Tot_abs_Q>  (1) 
0

>  <i_i_glide_confnum>  (1) 
1

>  <i_i_glide_lignum>  (1) 
1

>  <i_i_glide_posenum>  (1) 
305

>  <i_i_glide_rotatable_bonds>  (1) 
0

>  <i_lp_mmshare_version>  (1) 
72125

>  <i_m_source_file_index>  (1) 
1

>  <i_f3d_flags>  (1) 
0

>  <num_sample>  (1) 
100

>  <b_lp_Chiralities_Consistent>  (1) 
1

>  <r_epik_Charging_Adjusted_Penalty>  (1) 
0

>  <r_epik_Ionization_Penalty>  (1) 
2.4588925185764017e-06

>  <r_epik_Ionization_Penalty_Charging>  (1) 
0

>  <r_epik_Ionization_Penalty_Neutral>  (1) 
2.4588925185764017e-06

>  <r_epik_State_Penalty>  (1) 
-0

>  <r_glide_ring_energy>  (1) 
0

>  <r_i_docking_score>  (1) 
-5.2084466259284996

>  <r_i_glide_ecoul>  (1) 
-0.56951078408454059

>  <r_i_glide_eff_state_penalty>  (1) 
-0

>  <r_i_glide_einternal>  (1) 
0

>  <r_i_glide_emodel>  (1) 
-33.777534816195129

>  <r_i_glide_emodel_strain>  (1) 
3.7315235204005148e-06

>  <r_i_glide_energy>  (1) 
-25.583339408054599

>  <r_i_glide_erotb>  (1) 
0

>  <r_i_glide_esite>  (1) 
0

>  <r_i_glide_evdw>  (1) 
-25.01382862397006

>  <r_i_glide_gscore>  (1) 
-5.2084466259284996

>  <r_i_glide_gscore_strain>  (1) 
0

>  <r_i_glide_hbond>  (1) 
0

>  <r_i_glide_ligand_efficiency>  (1) 
-0.40064974045603841

>  <r_i_glide_ligand_efficiency_ln>  (1) 
-1.4610156004115677

>  <r_i_glide_ligand_efficiency_sa>  (1) 
-0.94206163236060181

>  <r_i_glide_lipo>  (1) 
-0.92794462878076789

>  <r_i_glide_metal>  (1) 
-0

>  <r_i_glide_rewards>  (1) 
-2.9443839483365482

>  <r_lp_Energy>  (1) 
22.769921999999998

>  <r_lp_tautomer_probability>  (1) 
1

>  <s_epik_cmdline>  (1) 
J2VwaWtfcHl0aG9uJywgJy1waHQnLCAnMS4wJywgJy1waCcsICc3LjQnLCAnLXRuJywgJzgnLCAnLW1hJywgJzUwMCcsICctaW1hZScsICc8aW5maWxlLm1hZT4nLCAnLW9tYWUnLCAnPG91dGZpbGUubWFlPic=

>  <s_epik_input>  (1) 
TzFbQ0gyXVtDSDJdYyhjMTIpW2NIXWMzYyhbY0hdMiluW2NIXVtjSF1uMw==

>  <s_glide_docking_method>  (1) 
confgen

>  <s_i_glide_gridfile>  (1) 
gpcr_drd2_6luq_protein_autoprepared_prepared

>  <s_lp_Force_Field>  (1) 
S-OPLS

>  <s_lp_Variant>  (1) 
Pocket2Mol_0_num_sample_100-1

>  <s_m_source_file>  (1) 
generated__ligand_Pocket2Mol_2026-05-06_prepared.sdf

>  <GenAI_Model>  (1) 
Pocket2Mol

>  <Protein>  (1) 
generic_title2

$$$$
Pocket2Mol_48_num_sample_100
     RDKit          3D

  0  0  0  0  0  0  0  0  0  0999 V3000
M  V30 BEGIN CTAB
M  V30 COUNTS 20 21 0 0 1
M  V30 BEGIN ATOM
M  V30 1 C 8.709785 5.036454 -8.404413 0
M  V30 2 O 9.261027 6.010957 -7.573747 0
M  V30 3 C 10.233896 6.831783 -8.103449 0
M  V30 4 C 10.333824 7.028400 -9.505979 0
M  V30 5 C 11.334483 7.868130 -10.026211 0
M  V30 6 C 11.132579 7.488077 -7.241426 0
M  V30 7 C 12.131490 8.329356 -7.770170 0
M  V30 8 C 9.369010 6.336992 -10.450507 0
M  V30 9 C 12.233367 8.515856 -9.160799 0
M  V30 10 N 8.234944 5.769299 -9.722295 0 CHG=1
M  V30 11 H 9.449609 4.266781 -8.629597 0
M  V30 12 H 7.854910 4.579615 -7.905504 0
M  V30 13 H 11.411724 8.015774 -11.091316 0
M  V30 14 H 11.056795 7.343727 -6.174335 0
M  V30 15 H 12.820606 8.830827 -7.107555 0
M  V30 16 H 8.989955 7.046112 -11.187457 0
M  V30 17 H 9.876776 5.539112 -10.989892 0
M  V30 18 H 13.000892 9.157752 -9.564413 0
M  V30 19 H 7.736359 5.134033 -10.327254 0
M  V30 20 H 7.601931 6.547733 -9.492093 0
M  V30 END ATOM
M  V30 BEGIN BOND
M  V30 1 1 2 1
M  V30 2 1 3 2
M  V30 3 1 4 3
M  V30 4 2 5 4
M  V30 5 2 6 3
M  V30 6 1 7 6
M  V30 7 1 8 4
M  V30 8 1 9 5
M  V30 9 2 9 7
M  V30 10 1 10 1
M  V30 11 1 10 8
M  V30 12 1 11 1
M  V30 13 1 12 1
M  V30 14 1 13 5
M  V30 15 1 14 6
M  V30 16 1 15 7
M  V30 17 1 16 8
M  V30 18 1 17 8
M  V30 19 1 18 9
M  V30 20 1 19 10
M  V30 21 1 20 10
M  V30 END BOND
M  V30 END CTAB
M  END
>  <i_epik_Tot_Q>  (1) 
1

>  <i_epik_Tot_abs_Q>  (1) 
1

>  <i_i_glide_confnum>  (1) 
2

>  <i_i_glide_lignum>  (1) 
55

>  <i_i_glide_posenum>  (1) 
387

>  <i_i_glide_rotatable_bonds>  (1) 
0

>  <i_lp_mmshare_version>  (1) 
72125

>  <i_m_source_file_index>  (1) 
49

>  <i_f3d_flags>  (1) 
0

>  <num_sample>  (1) 
100

>  <b_lp_Chiralities_Consistent>  (1) 
1

>  <r_epik_Charging_Adjusted_Penalty>  (1) 
1.7789378330503367

>  <r_epik_Ionization_Penalty>  (1) 
0.88946891652516835

>  <r_epik_Ionization_Penalty_Charging>  (1) 
0.88946891652516835

>  <r_epik_Ionization_Penalty_Neutral>  (1) 
0

>  <r_epik_State_Penalty>  (1) 
0.88946891652516835

>  <r_glide_ring_energy>  (1) 
2.090668359176616

>  <r_i_docking_score>  (1) 
-5.2059471085461801

>  <r_i_glide_ecoul>  (1) 
-7.8022256004904724

>  <r_i_glide_eff_state_penalty>  (1) 
0.88946891652516835

>  <r_i_glide_einternal>  (1) 
0

>  <r_i_glide_emodel>  (1) 
-37.107431671441987

>  <r_i_glide_emodel_strain>  (1) 
8.5763751656031673e-10

>  <r_i_glide_energy>  (1) 
-23.090103173125009

>  <r_i_glide_erotb>  (1) 
0

>  <r_i_glide_esite>  (1) 
-0.10000000000000001

>  <r_i_glide_evdw>  (1) 
-15.287877572634535

>  <r_i_glide_gscore>  (1) 
-6.0954160250713487

>  <r_i_glide_gscore_strain>  (1) 
0

>  <r_i_glide_hbond>  (1) 
-0.16265004381464171

>  <r_i_glide_ligand_efficiency>  (1) 
-0.52059471085461806

>  <r_i_glide_ligand_efficiency_ln>  (1) 
-1.5763248976051638

>  <r_i_glide_ligand_efficiency_sa>  (1) 
-1.1215873045123073

>  <r_i_glide_lipo>  (1) 
-0.95304131376543266

>  <r_i_glide_metal>  (1) 
-0

>  <r_i_glide_rewards>  (1) 
-2.9449969487859766

>  <r_lp_Energy>  (1) 
22.335957999999998

>  <r_lp_tautomer_probability>  (1) 
1

>  <s_epik_Chemistry_Notes>  (1) 
This compound contains an acetal/aminal-like group ( X-CH(R)-Y where X, Y are N, S, or O) that may be acid/base labile, releasing an aldehyde.

>  <s_epik_cmdline>  (1) 
J2VwaWtfcHl0aG9uJywgJy1waHQnLCAnMS4wJywgJy1waCcsICc3LjQnLCAnLXRuJywgJzgnLCAnLW1hJywgJzUwMCcsICctaW1hZScsICc8aW5maWxlLm1hZT4nLCAnLW9tYWUnLCAnPG91dGZpbGUubWFlPic=

>  <s_epik_input>  (1) 
TzFbQ0gyXVtOSF1bQ0gyXWMoYzEyKVtjSF1bY0hdW2NIXVtjSF0y

>  <s_glide_docking_method>  (1) 
confgen

>  <s_i_glide_gridfile>  (1) 
gpcr_drd2_6luq_protein_autoprepared_prepared

>  <s_lp_Force_Field>  (1) 
S-OPLS

>  <s_lp_Variant>  (1) 
Pocket2Mol_48_num_sample_100-2

>  <s_m_source_file>  (1) 
generated__ligand_Pocket2Mol_2026-05-06_prepared.sdf

>  <GenAI_Model>  (1) 
Pocket2Mol

>  <Protein>  (1) 
generic_title2

$$$$
Pocket2Mol_58_num_sample_100
     RDKit          3D

  0  0  0  0  0  0  0  0  0  0999 V3000
M  V30 BEGIN CTAB
M  V30 COUNTS 18 19 0 0 1
M  V30 BEGIN ATOM
M  V30 1 C 11.928387 9.369297 -5.402542 0
M  V30 2 O 11.834927 9.405668 -6.843928 0
M  V30 3 C 11.172725 8.419966 -7.566047 0
M  V30 4 C 10.670183 7.266454 -6.917700 0
M  V30 5 C 10.002802 6.275167 -7.664825 0
M  V30 6 C 11.007126 8.569297 -8.957136 0
M  V30 7 C 10.337143 7.578311 -9.699365 0
M  V30 8 C 10.850560 7.123968 -5.491668 0
M  V30 9 C 9.834851 6.432737 -9.053455 0
M  V30 10 C 11.434847 8.081728 -4.779670 0
M  V30 11 H 11.358794 10.203244 -4.991159 0
M  V30 12 H 12.970061 9.520192 -5.118703 0
M  V30 13 H 9.615676 5.395441 -7.172647 0
M  V30 14 H 11.392276 9.447157 -9.454349 0
M  V30 15 H 10.206693 7.697381 -10.764996 0
M  V30 16 H 10.497021 6.217435 -5.020323 0
M  V30 17 H 9.318806 5.674217 -9.623831 0
M  V30 18 H 11.565845 7.965584 -3.714267 0
M  V30 END ATOM
M  V30 BEGIN BOND
M  V30 1 1 2 1
M  V30 2 1 3 2
M  V30 3 1 4 3
M  V30 4 2 5 4
M  V30 5 2 6 3
M  V30 6 1 7 6
M  V30 7 1 8 4
M  V30 8 1 9 5
M  V30 9 2 9 7
M  V30 10 1 10 1
M  V30 11 2 10 8
M  V30 12 1 11 1
M  V30 13 1 12 1
M  V30 14 1 13 5
M  V30 15 1 14 6
M  V30 16 1 15 7
M  V30 17 1 16 8
M  V30 18 1 17 9
M  V30 19 1 18 10
M  V30 END BOND
M  V30 END CTAB
M  END
>  <i_epik_Tot_Q>  (1) 
0

>  <i_epik_Tot_abs_Q>  (1) 
0

>  <i_i_glide_confnum>  (1) 
1

>  <i_i_glide_lignum>  (1) 
65

>  <i_i_glide_posenum>  (1) 
153

>  <i_i_glide_rotatable_bonds>  (1) 
0

>  <i_lp_mmshare_version>  (1) 
72125

>  <i_m_source_file_index>  (1) 
59

>  <i_f3d_flags>  (1) 
0

>  <num_sample>  (1) 
100

>  <b_lp_Chiralities_Consistent>  (1) 
1

>  <r_epik_Charging_Adjusted_Penalty>  (1) 
0

>  <r_epik_Ionization_Penalty>  (1) 
0

>  <r_epik_Ionization_Penalty_Charging>  (1) 
0

>  <r_epik_Ionization_Penalty_Neutral>  (1) 
0

>  <r_epik_State_Penalty>  (1) 
-0

>  <r_glide_ring_energy>  (1) 
0

>  <r_i_docking_score>  (1) 
-5.2033410190397129

>  <r_i_glide_ecoul>  (1) 
-0.28292520857156012

>  <r_i_glide_eff_state_penalty>  (1) 
-0

>  <r_i_glide_einternal>  (1) 
0

>  <r_i_glide_emodel>  (1) 
-26.725754278729632

>  <r_i_glide_emodel_strain>  (1) 
0

>  <r_i_glide_energy>  (1) 
-19.889647045668422

>  <r_i_glide_erotb>  (1) 
0

>  <r_i_glide_esite>  (1) 
0

>  <r_i_glide_evdw>  (1) 
-19.606721837096863

>  <r_i_glide_gscore>  (1) 
-5.2033410190397129

>  <r_i_glide_gscore_strain>  (1) 
0

>  <r_i_glide_hbond>  (1) 
0

>  <r_i_glide_ligand_efficiency>  (1) 
-0.52033410190397134

>  <r_i_glide_ligand_efficiency_ln>  (1) 
-1.5755357916675166

>  <r_i_glide_ligand_efficiency_sa>  (1) 
-1.1210258395485011

>  <r_i_glide_lipo>  (1) 
-1.2980182269770286

>  <r_i_glide_metal>  (1) 
-0

>  <r_i_glide_rewards>  (1) 
-2.8825479189221075

>  <r_lp_Energy>  (1) 
15.262369

>  <r_lp_tautomer_probability>  (1) 
1

>  <s_epik_cmdline>  (1) 
J2VwaWtfcHl0aG9uJywgJy1waHQnLCAnMS4wJywgJy1waCcsICc3LjQnLCAnLXRuJywgJzgnLCAnLW1hJywgJzUwMCcsICctaW1hZScsICc8aW5maWxlLm1hZT4nLCAnLW9tYWUnLCAnPG91dGZpbGUubWFlPic=

>  <s_epik_input>  (1) 
TzFbQ0gyXVtDSF09W0NIXWMoYzEyKVtjSF1bY0hdW2NIXVtjSF0y

>  <s_glide_docking_method>  (1) 
confgen

>  <s_i_glide_gridfile>  (1) 
gpcr_drd2_6luq_protein_autoprepared_prepared

>  <s_lp_Force_Field>  (1) 
S-OPLS

>  <s_lp_Variant>  (1) 
Pocket2Mol_58_num_sample_100-1

>  <s_m_source_file>  (1) 
generated__ligand_Pocket2Mol_2026-05-06_prepared.sdf

>  <GenAI_Model>  (1) 
Pocket2Mol

>  <Protein>  (1) 
generic_title2

$$$$
Pocket2Mol_69_num_sample_100
     RDKit          3D

  0  0  0  0  0  0  0  0  0  0999 V3000
M  V30 BEGIN CTAB
M  V30 COUNTS 18 19 0 0 1
M  V30 BEGIN ATOM
M  V30 1 C 9.834839 6.718902 -11.382567 0
M  V30 2 O 10.670560 7.605702 -10.600823 0
M  V30 3 C 10.645890 7.605980 -9.210026 0
M  V30 4 C 9.845603 6.675573 -8.501212 0
M  V30 5 C 9.835153 6.688255 -7.091667 0
M  V30 6 C 11.430067 8.537955 -8.500489 0
M  V30 7 C 11.416047 8.546318 -7.091666 0
M  V30 8 C 9.047376 5.722164 -9.238986 0
M  V30 9 F 12.169994 9.443195 -6.412411 0
M  V30 10 C 9.034831 5.726420 -10.567162 0
M  V30 11 C 10.619292 7.622634 -6.388535 0
M  V30 12 H 10.466740 6.171722 -12.082487 0
M  V30 13 H 9.145858 7.320867 -11.975419 0
M  V30 14 H 9.223748 5.981913 -6.549504 0
M  V30 15 H 12.042452 9.246999 -9.038032 0
M  V30 16 H 8.458998 5.008832 -8.680611 0
M  V30 17 H 8.432702 5.011952 -11.108385 0
M  V30 18 H 10.609236 7.630683 -5.308862 0
M  V30 END ATOM
M  V30 BEGIN BOND
M  V30 1 1 2 1
M  V30 2 1 3 2
M  V30 3 2 4 3
M  V30 4 1 5 4
M  V30 5 1 6 3
M  V30 6 2 7 6
M  V30 7 1 8 4
M  V30 8 1 9 7
M  V30 9 1 10 1
M  V30 10 2 10 8
M  V30 11 2 11 5
M  V30 12 1 11 7
M  V30 13 1 12 1
M  V30 14 1 13 1
M  V30 15 1 14 5
M  V30 16 1 15 6
M  V30 17 1 16 8
M  V30 18 1 17 10
M  V30 19 1 18 11
M  V30 END BOND
M  V30 END CTAB
M  END
>  <i_epik_Tot_Q>  (1) 
0

>  <i_epik_Tot_abs_Q>  (1) 
0

>  <i_i_glide_confnum>  (1) 
1

>  <i_i_glide_lignum>  (1) 
76

>  <i_i_glide_posenum>  (1) 
169

>  <i_i_glide_rotatable_bonds>  (1) 
0

>  <i_lp_mmshare_version>  (1) 
72125

>  <i_m_source_file_index>  (1) 
70

>  <i_f3d_flags>  (1) 
0

>  <num_sample>  (1) 
100

>  <b_lp_Chiralities_Consistent>  (1) 
1

>  <r_epik_Charging_Adjusted_Penalty>  (1) 
0

>  <r_epik_Ionization_Penalty>  (1) 
0

>  <r_epik_Ionization_Penalty_Charging>  (1) 
0

>  <r_epik_Ionization_Penalty_Neutral>  (1) 
0

>  <r_epik_State_Penalty>  (1) 
-0

>  <r_glide_ring_energy>  (1) 
0

>  <r_i_docking_score>  (1) 
-5.1890440074251352

>  <r_i_glide_ecoul>  (1) 
-0.76983270709947316

>  <r_i_glide_eff_state_penalty>  (1) 
-0

>  <r_i_glide_einternal>  (1) 
0

>  <r_i_glide_emodel>  (1) 
-28.067415461560977

>  <r_i_glide_emodel_strain>  (1) 
0

>  <r_i_glide_energy>  (1) 
-21.318925114649101

>  <r_i_glide_erotb>  (1) 
0

>  <r_i_glide_esite>  (1) 
0

>  <r_i_glide_evdw>  (1) 
-20.54909240754963

>  <r_i_glide_gscore>  (1) 
-5.1890440074251352

>  <r_i_glide_gscore_strain>  (1) 
0

>  <r_i_glide_hbond>  (1) 
0

>  <r_i_glide_ligand_efficiency>  (1) 
-0.47173127340228499

>  <r_i_glide_ligand_efficiency_ln>  (1) 
-1.5271347675031921

>  <r_i_glide_ligand_efficiency_sa>  (1) 
-1.0491209601455924

>  <r_i_glide_lipo>  (1) 
-0.71263209555769391

>  <r_i_glide_metal>  (1) 
-0

>  <r_i_glide_rewards>  (1) 
-3.3334823854250391

>  <r_lp_Energy>  (1) 
13.322941

>  <r_lp_tautomer_probability>  (1) 
1

>  <s_epik_cmdline>  (1) 
J2VwaWtfcHl0aG9uJywgJy1waHQnLCAnMS4wJywgJy1waCcsICc3LjQnLCAnLXRuJywgJzgnLCAnLW1hJywgJzUwMCcsICctaW1hZScsICc8aW5maWxlLm1hZT4nLCAnLW9tYWUnLCAnPG91dGZpbGUubWFlPic=

>  <s_epik_input>  (1) 
TzFbQ0gyXVtDSF09W0NIXWMoYzEyKVtjSF1bY0hdYyhGKVtjSF0y

>  <s_glide_docking_method>  (1) 
confgen

>  <s_i_glide_gridfile>  (1) 
gpcr_drd2_6luq_protein_autoprepared_prepared

>  <s_lp_Force_Field>  (1) 
S-OPLS

>  <s_lp_Variant>  (1) 
Pocket2Mol_69_num_sample_100-1

>  <s_m_source_file>  (1) 
generated__ligand_Pocket2Mol_2026-05-06_prepared.sdf

>  <GenAI_Model>  (1) 
Pocket2Mol

>  <Protein>  (1) 
generic_title2

$$$$
Pocket2Mol_52_num_sample_100
     RDKit          3D

  0  0  0  0  0  0  0  0  0  0999 V3000
M  V30 BEGIN CTAB
M  V30 COUNTS 15 16 0 0 1
M  V30 BEGIN ATOM
M  V30 1 C 9.675268 6.259311 -9.074730 0
M  V30 2 O 10.632403 7.262046 -9.443871 0
M  V30 3 C 10.962060 7.874914 -8.243826 0
M  V30 4 C 10.261092 7.274002 -7.271001 0
M  V30 5 C 10.421407 7.718584 -5.941338 0
M  V30 6 C 11.834839 8.912485 -8.009748 0
M  V30 7 C 9.437291 6.258431 -7.707482 0
M  V30 8 N 11.288454 8.767588 -5.639906 0 CHG=1
M  V30 9 O 11.434840 9.174917 -4.429657 0 CHG=-1
M  V30 10 C 11.995315 9.365323 -6.680658 0
M  V30 11 H 9.291367 5.673178 -9.896670 0
M  V30 12 H 9.904306 7.299486 -5.091667 0
M  V30 13 H 12.380470 9.369301 -8.822531 0
M  V30 14 H 8.788073 5.655057 -7.091448 0
M  V30 15 H 12.649577 10.169299 -6.378837 0
M  V30 END ATOM
M  V30 BEGIN BOND
M  V30 1 1 2 1
M  V30 2 1 3 2
M  V30 3 1 4 3
M  V30 4 2 5 4
M  V30 5 2 6 3
M  V30 6 2 7 1
M  V30 7 1 7 4
M  V30 8 1 8 5
M  V30 9 1 9 8
M  V30 10 1 10 6
M  V30 11 2 10 8
M  V30 12 1 11 1
M  V30 13 1 12 5
M  V30 14 1 13 6
M  V30 15 1 14 7
M  V30 16 1 15 10
M  V30 END BOND
M  V30 END CTAB
M  END
>  <i_epik_Tot_Q>  (1) 
0

>  <i_epik_Tot_abs_Q>  (1) 
2

>  <i_i_glide_confnum>  (1) 
1

>  <i_i_glide_lignum>  (1) 
59

>  <i_i_glide_posenum>  (1) 
67

>  <i_i_glide_rotatable_bonds>  (1) 
0

>  <i_lp_mmshare_version>  (1) 
72125

>  <i_m_source_file_index>  (1) 
53

>  <i_f3d_flags>  (1) 
0

>  <num_sample>  (1) 
100

>  <b_lp_Chiralities_Consistent>  (1) 
1

>  <r_epik_Charging_Adjusted_Penalty>  (1) 
1.0992902245007022e-07

>  <r_epik_Ionization_Penalty>  (1) 
1.0992902245007022e-07

>  <r_epik_Ionization_Penalty_Charging>  (1) 
1.0992902245007022e-07

>  <r_epik_Ionization_Penalty_Neutral>  (1) 
0

>  <r_epik_State_Penalty>  (1) 
-0

>  <r_glide_ring_energy>  (1) 
0

>  <r_i_docking_score>  (1) 
-5.186314540333238

>  <r_i_glide_ecoul>  (1) 
-2.5479892974466911

>  <r_i_glide_eff_state_penalty>  (1) 
-0

>  <r_i_glide_einternal>  (1) 
0

>  <r_i_glide_emodel>  (1) 
-25.375547255142489

>  <r_i_glide_emodel_strain>  (1) 
0

>  <r_i_glide_energy>  (1) 
-17.945864180634139

>  <r_i_glide_erotb>  (1) 
0

>  <r_i_glide_esite>  (1) 
0

>  <r_i_glide_evdw>  (1) 
-15.397874883187447

>  <r_i_glide_gscore>  (1) 
-5.186314540333238

>  <r_i_glide_gscore_strain>  (1) 
0

>  <r_i_glide_hbond>  (1) 
0

>  <r_i_glide_ligand_efficiency>  (1) 
-0.51863145403332378

>  <r_i_glide_ligand_efficiency_ln>  (1) 
-1.5703802912861353

>  <r_i_glide_ligand_efficiency_sa>  (1) 
-1.1173575959110693

>  <r_i_glide_lipo>  (1) 
-0.75063565600400395

>  <r_i_glide_metal>  (1) 
-0

>  <r_i_glide_rewards>  (1) 
-3.2835867455528573

>  <r_lp_Energy>  (1) 
10.75684

>  <r_lp_tautomer_probability>  (1) 
1

>  <s_epik_cmdline>  (1) 
J2VwaWtfcHl0aG9uJywgJy1waHQnLCAnMS4wJywgJy1waCcsICc3LjQnLCAnLXRuJywgJzgnLCAnLW1hJywgJzUwMCcsICctaW1hZScsICc8aW5maWxlLm1hZT4nLCAnLW9tYWUnLCAnPG91dGZpbGUubWFlPic=

>  <s_epik_input>  (1) 
bzFbY0hdW2NIXWMoYzEyKVtjSF1bbitdKFtPLV0pW2NIXVtjSF0y

>  <s_glide_docking_method>  (1) 
confgen

>  <s_i_glide_gridfile>  (1) 
gpcr_drd2_6luq_protein_autoprepared_prepared

>  <s_lp_Force_Field>  (1) 
S-OPLS

>  <s_lp_Variant>  (1) 
Pocket2Mol_52_num_sample_100-1

>  <s_m_source_file>  (1) 
generated__ligand_Pocket2Mol_2026-05-06_prepared.sdf

>  <GenAI_Model>  (1) 
Pocket2Mol

>  <Protein>  (1) 
generic_title2

$$$$
Pocket2Mol_27_num_sample_100
     RDKit          3D

  0  0  0  0  0  0  0  0  0  0999 V3000
M  V30 BEGIN CTAB
M  V30 COUNTS 15 15 0 0 1
M  V30 BEGIN ATOM
M  V30 1 C 11.439214 9.548448 -5.816407 0
M  V30 2 O 11.838760 9.286930 -4.445199 0
M  V30 3 C 11.834839 7.993361 -3.933642 0
M  V30 4 C 12.312034 7.910552 -2.501003 0
M  V30 5 C 10.994254 8.318047 -6.577335 0
M  V30 6 C 11.434838 6.941311 -4.677091 0
M  V30 7 C 11.000152 7.110845 -6.027393 0
M  V30 8 H 10.634845 10.282997 -5.816551 0
M  V30 9 H 12.282106 9.997905 -6.339994 0
M  V30 10 H 12.292794 6.881814 -2.138498 0
M  V30 11 H 13.333237 8.284165 -2.422992 0
M  V30 12 H 11.675906 8.517575 -1.857189 0
M  V30 13 H 10.667406 8.453699 -7.598506 0
M  V30 14 H 11.442321 5.951200 -4.244068 0
M  V30 15 H 10.676321 6.254412 -6.601084 0
M  V30 END ATOM
M  V30 BEGIN BOND
M  V30 1 1 2 1
M  V30 2 1 3 2
M  V30 3 1 4 3
M  V30 4 1 5 1
M  V30 5 2 6 3
M  V30 6 2 7 5
M  V30 7 1 7 6
M  V30 8 1 8 1
M  V30 9 1 9 1
M  V30 10 1 10 4
M  V30 11 1 11 4
M  V30 12 1 12 4
M  V30 13 1 13 5
M  V30 14 1 14 6
M  V30 15 1 15 7
M  V30 END BOND
M  V30 END CTAB
M  END
>  <i_epik_Tot_Q>  (1) 
0

>  <i_epik_Tot_abs_Q>  (1) 
0

>  <i_i_glide_confnum>  (1) 
1

>  <i_i_glide_lignum>  (1) 
31

>  <i_i_glide_posenum>  (1) 
383

>  <i_i_glide_rotatable_bonds>  (1) 
0

>  <i_lp_mmshare_version>  (1) 
72125

>  <i_m_source_file_index>  (1) 
28

>  <i_f3d_flags>  (1) 
0

>  <num_sample>  (1) 
100

>  <b_lp_Chiralities_Consistent>  (1) 
1

>  <r_epik_Charging_Adjusted_Penalty>  (1) 
0

>  <r_epik_Ionization_Penalty>  (1) 
0

>  <r_epik_Ionization_Penalty_Charging>  (1) 
0

>  <r_epik_Ionization_Penalty_Neutral>  (1) 
0

>  <r_epik_State_Penalty>  (1) 
-0

>  <r_glide_ring_energy>  (1) 
0

>  <r_i_docking_score>  (1) 
-5.1856093961970151

>  <r_i_glide_ecoul>  (1) 
-0.67088815559611725

>  <r_i_glide_eff_state_penalty>  (1) 
-0

>  <r_i_glide_einternal>  (1) 
0

>  <r_i_glide_emodel>  (1) 
-22.848954357271161

>  <r_i_glide_emodel_strain>  (1) 
0.013587839579534133

>  <r_i_glide_energy>  (1) 
-17.144160610292328

>  <r_i_glide_erotb>  (1) 
0

>  <r_i_glide_esite>  (1) 
0

>  <r_i_glide_evdw>  (1) 
-16.473272454696211

>  <r_i_glide_gscore>  (1) 
-5.1856093961970151

>  <r_i_glide_gscore_strain>  (1) 
0

>  <r_i_glide_hbond>  (1) 
0

>  <r_i_glide_ligand_efficiency>  (1) 
-0.7408013423138593

>  <r_i_glide_ligand_efficiency_ln>  (1) 
-1.7602741203291357

>  <r_i_glide_ligand_efficiency_sa>  (1) 
-1.4171019879518245

>  <r_i_glide_lipo>  (1) 
-1.6130493638866656

>  <r_i_glide_metal>  (1) 
-0

>  <r_i_glide_rewards>  (1) 
-2.6482631862361203

>  <r_lp_Energy>  (1) 
4.7929789999999999

>  <r_lp_tautomer_probability>  (1) 
1

>  <s_epik_cmdline>  (1) 
J2VwaWtfcHl0aG9uJywgJy1waHQnLCAnMS4wJywgJy1waCcsICc3LjQnLCAnLXRuJywgJzgnLCAnLW1hJywgJzUwMCcsICctaW1hZScsICc8aW5maWxlLm1hZT4nLCAnLW9tYWUnLCAnPG91dGZpbGUubWFlPic=

>  <s_epik_input>  (1) 
TzFbQ0gyXVtDSF09W0NIXVtDSF09QzFbQ0gzXQ==

>  <s_glide_docking_method>  (1) 
confgen

>  <s_i_glide_gridfile>  (1) 
gpcr_drd2_6luq_protein_autoprepared_prepared

>  <s_lp_Force_Field>  (1) 
S-OPLS

>  <s_lp_Variant>  (1) 
Pocket2Mol_27_num_sample_100-1

>  <s_m_source_file>  (1) 
generated__ligand_Pocket2Mol_2026-05-06_prepared.sdf

>  <GenAI_Model>  (1) 
Pocket2Mol

>  <Protein>  (1) 
generic_title2

$$$$
Pocket2Mol_78_num_sample_100
     RDKit          3D

  0  0  0  0  0  0  0  0  0  0999 V3000
M  V30 BEGIN CTAB
M  V30 COUNTS 22 23 0 0 1
M  V30 BEGIN ATOM
M  V30 1 C 8.400021 5.224180 -9.691736 0
M  V30 2 O 9.434863 5.978217 -10.309079 0
M  V30 3 C 10.137338 6.856333 -9.508864 0
M  V30 4 C 8.831363 4.798827 -8.291986 0
M  V30 5 O 9.114450 5.944665 -7.504297 0
M  V30 6 C 9.976787 6.840353 -8.095697 0
M  V30 7 C 10.710584 7.753690 -7.296519 0
M  V30 8 O 10.566395 7.764964 -5.930783 0
M  V30 9 C 11.029177 7.769206 -10.101674 0
M  V30 10 C 11.757161 8.668630 -9.302795 0
M  V30 11 C 11.595707 8.662825 -7.905043 0
M  V30 12 C 10.938415 6.569301 -5.264247 0
M  V30 13 H 7.460538 5.769305 -9.662064 0
M  V30 14 H 8.215395 4.341406 -10.303045 0
M  V30 15 H 8.035122 4.216626 -7.832444 0
M  V30 16 H 9.718440 4.168879 -8.357412 0
M  V30 17 H 11.154951 7.774694 -11.173052 0
M  V30 18 H 12.440925 9.366518 -9.763695 0
M  V30 19 H 12.154994 9.357048 -7.295797 0
M  V30 20 H 11.272892 6.807514 -4.254295 0
M  V30 21 H 10.090468 5.894445 -5.172957 0
M  V30 22 H 11.752641 6.047120 -5.770031 0
M  V30 END ATOM
M  V30 BEGIN BOND
M  V30 1 1 2 1
M  V30 2 1 3 2
M  V30 3 1 4 1
M  V30 4 1 5 4
M  V30 5 1 6 3
M  V30 6 1 6 5
M  V30 7 2 7 6
M  V30 8 1 8 7
M  V30 9 2 9 3
M  V30 10 1 10 9
M  V30 11 1 11 7
M  V30 12 2 11 10
M  V30 13 1 12 8
M  V30 14 1 13 1
M  V30 15 1 14 1
M  V30 16 1 15 4
M  V30 17 1 16 4
M  V30 18 1 17 9
M  V30 19 1 18 10
M  V30 20 1 19 11
M  V30 21 1 20 12
M  V30 22 1 21 12
M  V30 23 1 22 12
M  V30 END BOND
M  V30 END CTAB
M  END
>  <i_epik_Tot_Q>  (1) 
0

>  <i_epik_Tot_abs_Q>  (1) 
0

>  <i_i_glide_confnum>  (1) 
1

>  <i_i_glide_lignum>  (1) 
85

>  <i_i_glide_posenum>  (1) 
171

>  <i_i_glide_rotatable_bonds>  (1) 
1

>  <i_lp_mmshare_version>  (1) 
72125

>  <i_m_source_file_index>  (1) 
79

>  <i_f3d_flags>  (1) 
0

>  <num_sample>  (1) 
100

>  <b_lp_Chiralities_Consistent>  (1) 
1

>  <r_epik_Charging_Adjusted_Penalty>  (1) 
0

>  <r_epik_Ionization_Penalty>  (1) 
0

>  <r_epik_Ionization_Penalty_Charging>  (1) 
0

>  <r_epik_Ionization_Penalty_Neutral>  (1) 
0

>  <r_epik_State_Penalty>  (1) 
-0

>  <r_glide_ring_energy>  (1) 
0

>  <r_i_docking_score>  (1) 
-5.1832818024863467

>  <r_i_glide_ecoul>  (1) 
-0.44168540758778652

>  <r_i_glide_eff_state_penalty>  (1) 
-0

>  <r_i_glide_einternal>  (1) 
4.0489560866760304

>  <r_i_glide_emodel>  (1) 
-26.208461176123752

>  <r_i_glide_emodel_strain>  (1) 
0

>  <r_i_glide_energy>  (1) 
-21.978050789108092

>  <r_i_glide_erotb>  (1) 
0

>  <r_i_glide_esite>  (1) 
0

>  <r_i_glide_evdw>  (1) 
-21.536365381520305

>  <r_i_glide_gscore>  (1) 
-5.1832818024863467

>  <r_i_glide_gscore_strain>  (1) 
0

>  <r_i_glide_hbond>  (1) 
0

>  <r_i_glide_ligand_efficiency>  (1) 
-0.43194015020719556

>  <r_i_glide_ligand_efficiency_ln>  (1) 
-1.4873516921326042

>  <r_i_glide_ligand_efficiency_sa>  (1) 
-0.98889608374560456

>  <r_i_glide_lipo>  (1) 
-1.2250759759467349

>  <r_i_glide_metal>  (1) 
-0

>  <r_i_glide_rewards>  (1) 
-2.8151347463254282

>  <r_lp_Energy>  (1) 
20.318058000000001

>  <r_lp_tautomer_probability>  (1) 
1

>  <s_epik_cmdline>  (1) 
J2VwaWtfcHl0aG9uJywgJy1waHQnLCAnMS4wJywgJy1waCcsICc3LjQnLCAnLXRuJywgJzgnLCAnLW1hJywgJzUwMCcsICctaW1hZScsICc8aW5maWxlLm1hZT4nLCAnLW9tYWUnLCAnPG91dGZpbGUubWFlPic=

>  <s_epik_input>  (1) 
TzFbQ0gyXVtDSDJdT2MoYzEyKWMoT1tDSDNdKVtjSF1bY0hdW2NIXTI=

>  <s_glide_docking_method>  (1) 
confgen

>  <s_i_glide_gridfile>  (1) 
gpcr_drd2_6luq_protein_autoprepared_prepared

>  <s_lp_Force_Field>  (1) 
S-OPLS

>  <s_lp_Variant>  (1) 
Pocket2Mol_78_num_sample_100-1

>  <s_m_source_file>  (1) 
generated__ligand_Pocket2Mol_2026-05-06_prepared.sdf

>  <GenAI_Model>  (1) 
Pocket2Mol

>  <Protein>  (1) 
generic_title2

$$$$
Pocket2Mol_75_num_sample_100
     RDKit          3D

  0  0  0  0  0  0  0  0  0  0999 V3000
M  V30 BEGIN CTAB
M  V30 COUNTS 17 18 0 0 1
M  V30 BEGIN ATOM
M  V30 1 C 11.434839 8.603865 -5.641678 0
M  V30 2 O 11.861351 9.123492 -6.848457 0
M  V30 3 C 11.250465 8.391639 -7.839419 0
M  V30 4 C 10.438125 7.407647 -7.257346 0
M  V30 5 C 9.723413 6.559340 -8.139758 0
M  V30 6 C 9.834831 6.717901 -9.550782 0
M  V30 7 C 10.566997 7.546234 -5.841783 0
M  V30 8 N 9.074556 5.830305 -10.457355 0 CHG=1
M  V30 9 C 10.674931 7.729260 -10.085299 0
M  V30 10 O 8.365841 4.969303 -9.946780 0 CHG=-1
M  V30 11 C 11.388396 8.569302 -9.217195 0
M  V30 12 O 9.203908 6.006698 -11.665348 0
M  V30 13 H 11.830904 9.079258 -4.756131 0
M  V30 14 H 9.081553 5.790805 -7.735311 0
M  V30 15 H 10.075739 6.944436 -5.091664 0
M  V30 16 H 10.764118 7.853715 -11.153873 0
M  V30 17 H 12.030925 9.345362 -9.607855 0
M  V30 END ATOM
M  V30 BEGIN BOND
M  V30 1 1 2 1
M  V30 2 1 3 2
M  V30 3 1 4 3
M  V30 4 2 5 4
M  V30 5 1 6 5
M  V30 6 2 7 1
M  V30 7 1 7 4
M  V30 8 1 8 6
M  V30 9 2 9 6
M  V30 10 1 10 8
M  V30 11 2 11 3
M  V30 12 1 11 9
M  V30 13 2 12 8
M  V30 14 1 13 1
M  V30 15 1 14 5
M  V30 16 1 15 7
M  V30 17 1 16 9
M  V30 18 1 17 11
M  V30 END BOND
M  V30 END CTAB
M  END
>  <i_epik_Tot_Q>  (1) 
0

>  <i_epik_Tot_abs_Q>  (1) 
2

>  <i_i_glide_confnum>  (1) 
1

>  <i_i_glide_lignum>  (1) 
82

>  <i_i_glide_posenum>  (1) 
247

>  <i_i_glide_rotatable_bonds>  (1) 
1

>  <i_lp_mmshare_version>  (1) 
72125

>  <i_m_source_file_index>  (1) 
76

>  <i_f3d_flags>  (1) 
0

>  <num_sample>  (1) 
100

>  <b_lp_Chiralities_Consistent>  (1) 
1

>  <r_epik_Charging_Adjusted_Penalty>  (1) 
0

>  <r_epik_Ionization_Penalty>  (1) 
0

>  <r_epik_Ionization_Penalty_Charging>  (1) 
0

>  <r_epik_Ionization_Penalty_Neutral>  (1) 
0

>  <r_epik_State_Penalty>  (1) 
-0

>  <r_glide_ring_energy>  (1) 
0

>  <r_i_docking_score>  (1) 
-5.1781210013328547

>  <r_i_glide_ecoul>  (1) 
-0.34985821076526963

>  <r_i_glide_eff_state_penalty>  (1) 
-0

>  <r_i_glide_einternal>  (1) 
3.0409084370131012e-05

>  <r_i_glide_emodel>  (1) 
-31.554664940918759

>  <r_i_glide_emodel_strain>  (1) 
0

>  <r_i_glide_energy>  (1) 
-23.064597252519398

>  <r_i_glide_erotb>  (1) 
0

>  <r_i_glide_esite>  (1) 
-0.12566591267151836

>  <r_i_glide_evdw>  (1) 
-22.714739041754129

>  <r_i_glide_gscore>  (1) 
-5.1781210013328547

>  <r_i_glide_gscore_strain>  (1) 
0

>  <r_i_glide_hbond>  (1) 
0

>  <r_i_glide_ligand_efficiency>  (1) 
-0.43151008344440456

>  <r_i_glide_ligand_efficiency_ln>  (1) 
-1.4858707913016433

>  <r_i_glide_ligand_efficiency_sa>  (1) 
-0.98791147664837331

>  <r_i_glide_lipo>  (1) 
-0.97971254517081385

>  <r_i_glide_metal>  (1) 
-0

>  <r_i_glide_rewards>  (1) 
-2.8845268597880249

>  <r_lp_Energy>  (1) 
17.097996999999999

>  <r_lp_tautomer_probability>  (1) 
1

>  <s_epik_cmdline>  (1) 
J2VwaWtfcHl0aG9uJywgJy1waHQnLCAnMS4wJywgJy1waCcsICc3LjQnLCAnLXRuJywgJzgnLCAnLW1hJywgJzUwMCcsICctaW1hZScsICc8aW5maWxlLm1hZT4nLCAnLW9tYWUnLCAnPG91dGZpbGUubWFlPic=

>  <s_epik_input>  (1) 
bzFbY0hdW2NIXWMoYzEyKVtjSF1jKFtOK10oW08tXSk9TylbY0hdW2NIXTI=

>  <s_glide_docking_method>  (1) 
confgen

>  <s_i_glide_gridfile>  (1) 
gpcr_drd2_6luq_protein_autoprepared_prepared

>  <s_lp_Force_Field>  (1) 
S-OPLS

>  <s_lp_Variant>  (1) 
Pocket2Mol_75_num_sample_100-1

>  <s_m_source_file>  (1) 
generated__ligand_Pocket2Mol_2026-05-06_prepared.sdf

>  <GenAI_Model>  (1) 
Pocket2Mol

>  <Protein>  (1) 
generic_title2

$$$$
Pocket2Mol_23_num_sample_100
     RDKit          3D

  0  0  0  0  0  0  0  0  0  0999 V3000
M  V30 BEGIN CTAB
M  V30 COUNTS 11 11 0 0 1
M  V30 BEGIN ATOM
M  V30 1 N 12.246232 7.807401 -2.328045 0
M  V30 2 C 12.234847 8.948146 -3.061996 0
M  V30 3 C 11.834874 8.998048 -4.413133 0
M  V30 4 C 11.845849 6.670780 -2.948930 0
M  V30 5 C 11.434838 6.625964 -4.296199 0
M  V30 6 F 11.837492 10.169301 -5.091667 0
M  V30 7 C 11.430575 7.814136 -5.041986 0
M  V30 8 H 12.549909 9.845313 -2.554165 0
M  V30 9 H 11.856214 5.770363 -2.352108 0
M  V30 10 H 11.124723 5.697264 -4.745159 0
M  V30 11 H 11.117861 7.816536 -6.075906 0
M  V30 END ATOM
M  V30 BEGIN BOND
M  V30 1 2 2 1
M  V30 2 1 3 2
M  V30 3 1 4 1
M  V30 4 2 5 4
M  V30 5 1 6 3
M  V30 6 2 7 3
M  V30 7 1 7 5
M  V30 8 1 8 2
M  V30 9 1 9 4
M  V30 10 1 10 5
M  V30 11 1 11 7
M  V30 END BOND
M  V30 END CTAB
M  END
>  <i_epik_Tot_Q>  (1) 
0

>  <i_epik_Tot_abs_Q>  (1) 
0

>  <i_i_glide_confnum>  (1) 
1

>  <i_i_glide_lignum>  (1) 
27

>  <i_i_glide_posenum>  (1) 
253

>  <i_i_glide_rotatable_bonds>  (1) 
0

>  <i_lp_mmshare_version>  (1) 
72125

>  <i_m_source_file_index>  (1) 
24

>  <i_f3d_flags>  (1) 
0

>  <num_sample>  (1) 
100

>  <b_lp_Chiralities_Consistent>  (1) 
1

>  <r_epik_Charging_Adjusted_Penalty>  (1) 
0

>  <r_epik_Ionization_Penalty>  (1) 
7.3223601380878174e-05

>  <r_epik_Ionization_Penalty_Charging>  (1) 
0

>  <r_epik_Ionization_Penalty_Neutral>  (1) 
7.3223601380878174e-05

>  <r_epik_State_Penalty>  (1) 
-0

>  <r_glide_ring_energy>  (1) 
0

>  <r_i_docking_score>  (1) 
-5.1769273484000244

>  <r_i_glide_ecoul>  (1) 
-1.3296702155171074

>  <r_i_glide_eff_state_penalty>  (1) 
-0

>  <r_i_glide_einternal>  (1) 
0

>  <r_i_glide_emodel>  (1) 
-21.436598291212299

>  <r_i_glide_emodel_strain>  (1) 
0

>  <r_i_glide_energy>  (1) 
-16.103693368302046

>  <r_i_glide_erotb>  (1) 
0

>  <r_i_glide_esite>  (1) 
0

>  <r_i_glide_evdw>  (1) 
-14.774023152784938

>  <r_i_glide_gscore>  (1) 
-5.1769273484000244

>  <r_i_glide_gscore_strain>  (1) 
0

>  <r_i_glide_hbond>  (1) 
0

>  <r_i_glide_ligand_efficiency>  (1) 
-0.73956104977143211

>  <r_i_glide_ligand_efficiency_ln>  (1) 
-1.7573269673754808

>  <r_i_glide_ligand_efficiency_sa>  (1) 
-1.4147293936716554

>  <r_i_glide_lipo>  (1) 
-1.3897454220178032

>  <r_i_glide_metal>  (1) 
-0

>  <r_i_glide_rewards>  (1) 
-2.8490302364154081

>  <r_lp_Energy>  (1) 
10.789624

>  <r_lp_tautomer_probability>  (1) 
1

>  <s_epik_cmdline>  (1) 
J2VwaWtfcHl0aG9uJywgJy1waHQnLCAnMS4wJywgJy1waCcsICc3LjQnLCAnLXRuJywgJzgnLCAnLW1hJywgJzUwMCcsICctaW1hZScsICc8aW5maWxlLm1hZT4nLCAnLW9tYWUnLCAnPG91dGZpbGUubWFlPic=

>  <s_epik_input>  (1) 
W2NIXTFbY0hdW2NIXW5bY0hdYzFG

>  <s_glide_docking_method>  (1) 
confgen

>  <s_i_glide_gridfile>  (1) 
gpcr_drd2_6luq_protein_autoprepared_prepared

>  <s_lp_Force_Field>  (1) 
S-OPLS

>  <s_lp_Variant>  (1) 
Pocket2Mol_23_num_sample_100-1

>  <s_m_source_file>  (1) 
generated__ligand_Pocket2Mol_2026-05-06_prepared.sdf

>  <GenAI_Model>  (1) 
Pocket2Mol

>  <Protein>  (1) 
generic_title2

$$$$
Pocket2Mol_27_num_sample_100
     RDKit          3D

  0  0  0  0  0  0  0  0  0  0999 V3000
M  V30 BEGIN CTAB
M  V30 COUNTS 15 15 0 0 1
M  V30 BEGIN ATOM
M  V30 1 C 11.791816 9.655994 -4.677325 0
M  V30 2 O 11.056383 8.898776 -5.670828 0
M  V30 3 C 10.905554 7.521954 -5.554902 0
M  V30 4 C 10.105508 6.907719 -6.682036 0
M  V30 5 C 12.354316 8.819372 -3.547159 0
M  V30 6 C 11.434840 6.838768 -4.518519 0
M  V30 7 C 12.178737 7.505535 -3.491670 0
M  V30 8 H 12.613193 10.169301 -5.176038 0
M  V30 9 H 11.131368 10.418760 -4.262929 0
M  V30 10 H 10.012030 5.828676 -6.561667 0
M  V30 11 H 9.102160 7.335761 -6.707971 0
M  V30 12 H 10.587917 7.105726 -7.638871 0
M  V30 13 H 12.912172 9.332023 -2.776260 0
M  V30 14 H 11.294769 5.769302 -4.461465 0
M  V30 15 H 12.593809 6.938445 -2.671148 0
M  V30 END ATOM
M  V30 BEGIN BOND
M  V30 1 1 2 1
M  V30 2 1 3 2
M  V30 3 1 4 3
M  V30 4 1 5 1
M  V30 5 2 6 3
M  V30 6 2 7 5
M  V30 7 1 7 6
M  V30 8 1 8 1
M  V30 9 1 9 1
M  V30 10 1 10 4
M  V30 11 1 11 4
M  V30 12 1 12 4
M  V30 13 1 13 5
M  V30 14 1 14 6
M  V30 15 1 15 7
M  V30 END BOND
M  V30 END CTAB
M  END
>  <i_epik_Tot_Q>  (1) 
0

>  <i_epik_Tot_abs_Q>  (1) 
0

>  <i_i_glide_confnum>  (1) 
1

>  <i_i_glide_lignum>  (1) 
31

>  <i_i_glide_posenum>  (1) 
22

>  <i_i_glide_rotatable_bonds>  (1) 
0

>  <i_lp_mmshare_version>  (1) 
72125

>  <i_m_source_file_index>  (1) 
28

>  <i_f3d_flags>  (1) 
0

>  <num_sample>  (1) 
100

>  <b_lp_Chiralities_Consistent>  (1) 
1

>  <r_epik_Charging_Adjusted_Penalty>  (1) 
0

>  <r_epik_Ionization_Penalty>  (1) 
0

>  <r_epik_Ionization_Penalty_Charging>  (1) 
0

>  <r_epik_Ionization_Penalty_Neutral>  (1) 
0

>  <r_epik_State_Penalty>  (1) 
-0

>  <r_glide_ring_energy>  (1) 
0

>  <r_i_docking_score>  (1) 
-5.1695796272469607

>  <r_i_glide_ecoul>  (1) 
-0.72382690484688172

>  <r_i_glide_eff_state_penalty>  (1) 
-0

>  <r_i_glide_einternal>  (1) 
0

>  <r_i_glide_emodel>  (1) 
-22.833745979163087

>  <r_i_glide_emodel_strain>  (1) 
0

>  <r_i_glide_energy>  (1) 
-17.133041068304202

>  <r_i_glide_erotb>  (1) 
0

>  <r_i_glide_esite>  (1) 
0

>  <r_i_glide_evdw>  (1) 
-16.409214163457321

>  <r_i_glide_gscore>  (1) 
-5.1695796272469607

>  <r_i_glide_gscore_strain>  (1) 
0

>  <r_i_glide_hbond>  (1) 
0

>  <r_i_glide_ligand_efficiency>  (1) 
-0.73851137532099442

>  <r_i_glide_ligand_efficiency_ln>  (1) 
-1.7548327564928372

>  <r_i_glide_ligand_efficiency_sa>  (1) 
-1.4127214386836537

>  <r_i_glide_lipo>  (1) 
-1.6726613652588738

>  <r_i_glide_metal>  (1) 
-0

>  <r_i_glide_rewards>  (1) 
-2.5678835180881889

>  <r_lp_Energy>  (1) 
4.7929789999999999

>  <r_lp_tautomer_probability>  (1) 
1

>  <s_epik_cmdline>  (1) 
J2VwaWtfcHl0aG9uJywgJy1waHQnLCAnMS4wJywgJy1waCcsICc3LjQnLCAnLXRuJywgJzgnLCAnLW1hJywgJzUwMCcsICctaW1hZScsICc8aW5maWxlLm1hZT4nLCAnLW9tYWUnLCAnPG91dGZpbGUubWFlPic=

>  <s_epik_input>  (1) 
TzFbQ0gyXVtDSF09W0NIXVtDSF09QzFbQ0gzXQ==

>  <s_glide_docking_method>  (1) 
confgen

>  <s_i_glide_gridfile>  (1) 
gpcr_drd2_6luq_protein_autoprepared_prepared

>  <s_lp_Force_Field>  (1) 
S-OPLS

>  <s_lp_Variant>  (1) 
Pocket2Mol_27_num_sample_100-1

>  <s_m_source_file>  (1) 
generated__ligand_Pocket2Mol_2026-05-06_prepared.sdf

>  <GenAI_Model>  (1) 
Pocket2Mol

>  <Protein>  (1) 
generic_title2

$$$$
Pocket2Mol_20_num_sample_100
     RDKit          3D

  0  0  0  0  0  0  0  0  0  0999 V3000
M  V30 BEGIN CTAB
M  V30 COUNTS 12 12 0 0 1
M  V30 BEGIN ATOM
M  V30 1 N 11.709983 8.862044 -4.900432 0
M  V30 2 C 12.282348 9.151965 -3.709029 0
M  V30 3 C 12.456570 8.207756 -2.678225 0
M  V30 4 C 11.297097 7.584673 -5.091774 0
M  V30 5 O 13.033804 8.569715 -1.495197 0
M  V30 6 C 12.025176 6.889938 -2.889131 0
M  V30 7 C 11.434712 6.570366 -4.122395 0
M  V30 8 H 12.612394 10.169301 -3.574924 0
M  V30 9 H 10.843318 7.366584 -6.046304 0
M  V30 10 H 13.334872 9.474494 -1.477072 0
M  V30 11 H 12.144151 6.137338 -2.121580 0
M  V30 12 H 11.089956 5.569681 -4.324174 0
M  V30 END ATOM
M  V30 BEGIN BOND
M  V30 1 2 2 1
M  V30 2 1 3 2
M  V30 3 1 4 1
M  V30 4 1 5 3
M  V30 5 2 6 3
M  V30 6 2 7 4
M  V30 7 1 7 6
M  V30 8 1 8 2
M  V30 9 1 9 4
M  V30 10 1 10 5
M  V30 11 1 11 6
M  V30 12 1 12 7
M  V30 END BOND
M  V30 END CTAB
M  END
>  <i_epik_Tot_Q>  (1) 
0

>  <i_epik_Tot_abs_Q>  (1) 
0

>  <i_i_glide_confnum>  (1) 
1

>  <i_i_glide_lignum>  (1) 
24

>  <i_i_glide_posenum>  (1) 
301

>  <i_i_glide_rotatable_bonds>  (1) 
1

>  <i_lp_mmshare_version>  (1) 
72125

>  <i_m_source_file_index>  (1) 
21

>  <i_f3d_flags>  (1) 
0

>  <num_sample>  (1) 
100

>  <b_lp_Chiralities_Consistent>  (1) 
1

>  <r_epik_Charging_Adjusted_Penalty>  (1) 
0.49104251329211085

>  <r_epik_Ionization_Penalty>  (1) 
0.049438115990627488

>  <r_epik_Ionization_Penalty_Charging>  (1) 
0

>  <r_epik_Ionization_Penalty_Neutral>  (1) 
0.049438115990627488

>  <r_epik_State_Penalty>  (1) 
0.49104251329211085

>  <r_glide_ring_energy>  (1) 
0

>  <r_i_docking_score>  (1) 
-5.1683606448010835

>  <r_i_glide_ecoul>  (1) 
-4.8603465025750534

>  <r_i_glide_eff_state_penalty>  (1) 
0.49104251329211085

>  <r_i_glide_einternal>  (1) 
0.0019226504254115651

>  <r_i_glide_emodel>  (1) 
-27.551692895884102

>  <r_i_glide_emodel_strain>  (1) 
0

>  <r_i_glide_energy>  (1) 
-19.130006973314352

>  <r_i_glide_erotb>  (1) 
0

>  <r_i_glide_esite>  (1) 
0

>  <r_i_glide_evdw>  (1) 
-14.269660470739298

>  <r_i_glide_gscore>  (1) 
-5.6594031580931947

>  <r_i_glide_gscore_strain>  (1) 
0

>  <r_i_glide_hbond>  (1) 
-0.32000000000000001

>  <r_i_glide_ligand_efficiency>  (1) 
-0.73833723497158332

>  <r_i_glide_ligand_efficiency_ln>  (1) 
-1.7544189684327132

>  <r_i_glide_ligand_efficiency_sa>  (1) 
-1.4123883201790863

>  <r_i_glide_lipo>  (1) 
-1.4468681591699719

>  <r_i_glide_metal>  (1) 
-0

>  <r_i_glide_rewards>  (1) 
-2.4500000000000002

>  <r_lp_Energy>  (1) 
10.560834

>  <r_lp_tautomer_probability>  (1) 
0.43658000000000002

>  <s_epik_cmdline>  (1) 
J2VwaWtfcHl0aG9uJywgJy1waHQnLCAnMS4wJywgJy1waCcsICc3LjQnLCAnLXRuJywgJzgnLCAnLW1hJywgJzUwMCcsICctaW1hZScsICc8aW5maWxlLm1hZT4nLCAnLW9tYWUnLCAnPG91dGZpbGUubWFlPic=

>  <s_epik_input>  (1) 
W2NIXTFbY0hdW2NIXW5bY0hdYzFbT0hd

>  <s_glide_docking_method>  (1) 
confgen

>  <s_i_glide_gridfile>  (1) 
gpcr_drd2_6luq_protein_autoprepared_prepared

>  <s_lp_Force_Field>  (1) 
S-OPLS

>  <s_lp_Variant>  (1) 
Pocket2Mol_20_num_sample_100-2

>  <s_m_source_file>  (1) 
generated__ligand_Pocket2Mol_2026-05-06_prepared.sdf

>  <GenAI_Model>  (1) 
Pocket2Mol

>  <Protein>  (1) 
generic_title2

$$$$
Pocket2Mol_35_num_sample_100
     RDKit          3D

  0  0  0  0  0  0  0  0  0  0999 V3000
M  V30 BEGIN CTAB
M  V30 COUNTS 16 17 0 0 1
M  V30 BEGIN ATOM
M  V30 1 C 12.015562 6.967247 -2.589975 0
M  V30 2 O 11.474587 6.232753 -3.757300 0
M  V30 3 C 11.434839 7.206071 -4.689550 0
M  V30 4 C 11.834839 8.422621 -4.292819 0
M  V30 5 C 11.830838 9.497954 -5.194821 0
M  V30 6 N 11.434320 9.365775 -6.487497 0
M  V30 7 C 11.022872 8.121820 -6.873948 0
M  V30 8 C 11.009116 7.006960 -6.004628 0
M  V30 9 C 12.257928 8.521876 -2.893750 0
M  V30 10 H 11.325722 6.849449 -1.753903 0
M  V30 11 H 12.951662 6.494270 -2.290295 0
M  V30 12 H 12.149184 10.480088 -4.884745 0
M  V30 13 H 10.702282 8.019113 -7.900167 0
M  V30 14 H 10.679909 6.036376 -6.344864 0
M  V30 15 H 13.300550 8.824688 -2.794295 0
M  V30 16 H 11.605241 9.178813 -2.317600 0
M  V30 END ATOM
M  V30 BEGIN BOND
M  V30 1 1 2 1
M  V30 2 1 3 2
M  V30 3 2 4 3
M  V30 4 1 5 4
M  V30 5 2 6 5
M  V30 6 1 7 6
M  V30 7 1 8 3
M  V30 8 2 8 7
M  V30 9 1 9 1
M  V30 10 1 9 4
M  V30 11 1 10 1
M  V30 12 1 11 1
M  V30 13 1 12 5
M  V30 14 1 13 7
M  V30 15 1 14 8
M  V30 16 1 15 9
M  V30 17 1 16 9
M  V30 END BOND
M  V30 END CTAB
M  END
>  <i_epik_Tot_Q>  (1) 
0

>  <i_epik_Tot_abs_Q>  (1) 
0

>  <i_i_glide_confnum>  (1) 
1

>  <i_i_glide_lignum>  (1) 
40

>  <i_i_glide_posenum>  (1) 
256

>  <i_i_glide_rotatable_bonds>  (1) 
0

>  <i_lp_mmshare_version>  (1) 
72125

>  <i_m_source_file_index>  (1) 
36

>  <i_f3d_flags>  (1) 
0

>  <num_sample>  (1) 
100

>  <b_lp_Chiralities_Consistent>  (1) 
1

>  <r_epik_Charging_Adjusted_Penalty>  (1) 
0.44367302241175355

>  <r_epik_Ionization_Penalty>  (1) 
0.44367302241175355

>  <r_epik_Ionization_Penalty_Charging>  (1) 
0

>  <r_epik_Ionization_Penalty_Neutral>  (1) 
0.44367302241175355

>  <r_epik_State_Penalty>  (1) 
0.44367302241175355

>  <r_glide_ring_energy>  (1) 
0

>  <r_i_docking_score>  (1) 
-5.1575953128078735

>  <r_i_glide_ecoul>  (1) 
-0.15864868726765224

>  <r_i_glide_eff_state_penalty>  (1) 
0.44367302241175355

>  <r_i_glide_einternal>  (1) 
0

>  <r_i_glide_emodel>  (1) 
-27.793590319884377

>  <r_i_glide_emodel_strain>  (1) 
0

>  <r_i_glide_energy>  (1) 
-20.28005255065008

>  <r_i_glide_erotb>  (1) 
0

>  <r_i_glide_esite>  (1) 
0

>  <r_i_glide_evdw>  (1) 
-20.121403863382426

>  <r_i_glide_gscore>  (1) 
-5.6012683352196273

>  <r_i_glide_gscore_strain>  (1) 
0

>  <r_i_glide_hbond>  (1) 
0

>  <r_i_glide_ligand_efficiency>  (1) 
-0.57306614586754145

>  <r_i_glide_ligand_efficiency_ln>  (1) 
-1.6131476497984838

>  <r_i_glide_ligand_efficiency_sa>  (1) 
-1.1920256195577761

>  <r_i_glide_lipo>  (1) 
-1.8910080740732438

>  <r_i_glide_metal>  (1) 
-0

>  <r_i_glide_rewards>  (1) 
-2.680392764887114

>  <r_lp_Energy>  (1) 
12.810587999999999

>  <s_epik_cmdline>  (1) 
J2VwaWtfcHl0aG9uJywgJy1waHQnLCAnMS4wJywgJy1waCcsICc3LjQnLCAnLXRuJywgJzgnLCAnLW1hJywgJzUwMCcsICctaW1hZScsICc8aW5maWxlLm1hZT4nLCAnLW9tYWUnLCAnPG91dGZpbGUubWFlPic=

>  <s_epik_input>  (1) 
TzFbQ0gyXVtDSDJdYyhjMTIpW2NIXW5bY0hdW2NIXTI=

>  <s_glide_docking_method>  (1) 
confgen

>  <s_i_glide_gridfile>  (1) 
gpcr_drd2_6luq_protein_autoprepared_prepared

>  <s_lp_Force_Field>  (1) 
S-OPLS

>  <s_lp_Variant>  (1) 
Pocket2Mol_35_num_sample_100-2

>  <s_m_source_file>  (1) 
generated__ligand_Pocket2Mol_2026-05-06_prepared.sdf

>  <GenAI_Model>  (1) 
Pocket2Mol

>  <Protein>  (1) 
generic_title2

$$$$
Pocket2Mol_67_num_sample_100
     RDKit          3D

  0  0  0  0  0  0  0  0  0  0999 V3000
M  V30 BEGIN CTAB
M  V30 COUNTS 21 22 0 0 1
M  V30 BEGIN ATOM
M  V30 1 C 9.437234 6.826618 -10.798336 0
M  V30 2 O 10.632528 7.369300 -10.259567 0
M  V30 3 C 10.632461 7.489923 -8.889316 0
M  V30 4 C 9.087977 5.525187 -10.067726 0
M  V30 5 O 8.949790 5.743991 -8.671319 0
M  V30 6 C 9.785505 6.673159 -8.091007 0
M  V30 7 C 9.793623 6.816683 -6.691666 0
M  V30 8 C 11.479096 8.432657 -8.272850 0
M  V30 9 C 11.479854 8.571234 -6.869265 0
M  V30 10 C 12.386293 9.590245 -6.208131 0
M  V30 11 C 10.637113 7.762784 -6.081524 0
M  V30 12 H 9.579707 6.638002 -11.862380 0
M  V30 13 H 8.634852 7.557601 -10.709620 0
M  V30 14 H 9.834839 4.754361 -10.242630 0
M  V30 15 H 8.144785 5.131157 -10.446459 0
M  V30 16 H 9.148146 6.199136 -6.084129 0
M  V30 17 H 12.124135 9.053256 -8.877856 0
M  V30 18 H 13.370125 9.588536 -6.678184 0
M  V30 19 H 11.958866 10.589785 -6.291667 0
M  V30 20 H 12.522826 9.369301 -5.149136 0
M  V30 21 H 10.637156 7.868075 -5.007657 0
M  V30 END ATOM
M  V30 BEGIN BOND
M  V30 1 1 2 1
M  V30 2 1 3 2
M  V30 3 1 4 1
M  V30 4 1 5 4
M  V30 5 2 6 3
M  V30 6 1 6 5
M  V30 7 1 7 6
M  V30 8 1 8 3
M  V30 9 2 9 8
M  V30 10 1 10 9
M  V30 11 2 11 7
M  V30 12 1 11 9
M  V30 13 1 12 1
M  V30 14 1 13 1
M  V30 15 1 14 4
M  V30 16 1 15 4
M  V30 17 1 16 7
M  V30 18 1 17 8
M  V30 19 1 18 10
M  V30 20 1 19 10
M  V30 21 1 20 10
M  V30 22 1 21 11
M  V30 END BOND
M  V30 END CTAB
M  END
>  <i_epik_Tot_Q>  (1) 
0

>  <i_epik_Tot_abs_Q>  (1) 
0

>  <i_i_glide_confnum>  (1) 
1

>  <i_i_glide_lignum>  (1) 
74

>  <i_i_glide_posenum>  (1) 
201

>  <i_i_glide_rotatable_bonds>  (1) 
0

>  <i_lp_mmshare_version>  (1) 
72125

>  <i_m_source_file_index>  (1) 
68

>  <i_f3d_flags>  (1) 
0

>  <num_sample>  (1) 
100

>  <b_lp_Chiralities_Consistent>  (1) 
1

>  <r_epik_Charging_Adjusted_Penalty>  (1) 
0

>  <r_epik_Ionization_Penalty>  (1) 
0

>  <r_epik_Ionization_Penalty_Charging>  (1) 
0

>  <r_epik_Ionization_Penalty_Neutral>  (1) 
0

>  <r_epik_State_Penalty>  (1) 
-0

>  <r_glide_ring_energy>  (1) 
0

>  <r_i_docking_score>  (1) 
-5.1554569948682945

>  <r_i_glide_ecoul>  (1) 
-0.46152686665795112

>  <r_i_glide_eff_state_penalty>  (1) 
-0

>  <r_i_glide_einternal>  (1) 
0

>  <r_i_glide_emodel>  (1) 
-27.66273661427169

>  <r_i_glide_emodel_strain>  (1) 
0

>  <r_i_glide_energy>  (1) 
-21.039375709079671

>  <r_i_glide_erotb>  (1) 
0

>  <r_i_glide_esite>  (1) 
0

>  <r_i_glide_evdw>  (1) 
-20.577848842421719

>  <r_i_glide_gscore>  (1) 
-5.1554569948682945

>  <r_i_glide_gscore_strain>  (1) 
0

>  <r_i_glide_hbond>  (1) 
0

>  <r_i_glide_ligand_efficiency>  (1) 
-0.4686779086243904

>  <r_i_glide_ligand_efficiency_ln>  (1) 
-1.5172501154287978

>  <r_i_glide_ligand_efficiency_sa>  (1) 
-1.0423303376703092

>  <r_i_glide_lipo>  (1) 
-1.0254017334907404

>  <r_i_glide_metal>  (1) 
-0

>  <r_i_glide_rewards>  (1) 
-3.0319337892577751

>  <r_lp_Energy>  (1) 
14.201067

>  <r_lp_tautomer_probability>  (1) 
1

>  <s_epik_cmdline>  (1) 
J2VwaWtfcHl0aG9uJywgJy1waHQnLCAnMS4wJywgJy1waCcsICc3LjQnLCAnLXRuJywgJzgnLCAnLW1hJywgJzUwMCcsICctaW1hZScsICc8aW5maWxlLm1hZT4nLCAnLW9tYWUnLCAnPG91dGZpbGUubWFlPic=

>  <s_epik_input>  (1) 
TzFbQ0gyXVtDSDJdT2MoYzEyKVtjSF1bY0hdYyhbY0hdMilbQ0gzXQ==

>  <s_glide_docking_method>  (1) 
confgen

>  <s_i_glide_gridfile>  (1) 
gpcr_drd2_6luq_protein_autoprepared_prepared

>  <s_lp_Force_Field>  (1) 
S-OPLS

>  <s_lp_Variant>  (1) 
Pocket2Mol_67_num_sample_100-1

>  <s_m_source_file>  (1) 
generated__ligand_Pocket2Mol_2026-05-06_prepared.sdf

>  <GenAI_Model>  (1) 
Pocket2Mol

>  <Protein>  (1) 
generic_title2

$$$$
Pocket2Mol_59_num_sample_100
     RDKit          3D

  0  0  0  0  0  0  0  0  0  0999 V3000
M  V30 BEGIN CTAB
M  V30 COUNTS 17 18 0 0 1
M  V30 BEGIN ATOM
M  V30 1 C 9.060801 5.769292 -9.356336 0
M  V30 2 O 9.065903 5.582233 -7.891297 0
M  V30 3 C 9.845706 6.608815 -7.484891 0
M  V30 4 C 10.282769 7.429032 -8.438182 0
M  V30 5 C 11.109635 8.526442 -8.136229 0
M  V30 6 N 11.481537 8.774141 -6.822819 0 CHG=1
M  V30 7 C 9.834864 7.097937 -9.796057 0
M  V30 8 O 12.234790 9.768951 -6.525587 0 CHG=-1
M  V30 9 C 11.019704 7.920334 -5.836078 0
M  V30 10 C 10.192789 6.825235 -6.159791 0
M  V30 11 H 8.033428 5.769313 -9.721582 0
M  V30 12 H 9.543106 4.899300 -9.803266 0
M  V30 13 H 11.498100 9.225942 -8.861802 0
M  V30 14 H 9.164938 7.863021 -10.190516 0
M  V30 15 H 10.661634 6.916583 -10.481603 0
M  V30 16 H 11.343384 8.167713 -4.836293 0
M  V30 17 H 9.834839 6.169301 -5.386483 0
M  V30 END ATOM
M  V30 BEGIN BOND
M  V30 1 1 2 1
M  V30 2 1 3 2
M  V30 3 2 4 3
M  V30 4 1 5 4
M  V30 5 2 6 5
M  V30 6 1 7 1
M  V30 7 1 7 4
M  V30 8 1 8 6
M  V30 9 1 9 6
M  V30 10 1 10 3
M  V30 11 2 10 9
M  V30 12 1 11 1
M  V30 13 1 12 1
M  V30 14 1 13 5
M  V30 15 1 14 7
M  V30 16 1 15 7
M  V30 17 1 16 9
M  V30 18 1 17 10
M  V30 END BOND
M  V30 END CTAB
M  END
>  <i_epik_Tot_Q>  (1) 
0

>  <i_epik_Tot_abs_Q>  (1) 
2

>  <i_i_glide_confnum>  (1) 
1

>  <i_i_glide_lignum>  (1) 
66

>  <i_i_glide_posenum>  (1) 
221

>  <i_i_glide_rotatable_bonds>  (1) 
0

>  <i_lp_mmshare_version>  (1) 
72125

>  <i_m_source_file_index>  (1) 
60

>  <i_f3d_flags>  (1) 
0

>  <num_sample>  (1) 
100

>  <b_lp_Chiralities_Consistent>  (1) 
1

>  <r_epik_Charging_Adjusted_Penalty>  (1) 
1.5203065777176405e-06

>  <r_epik_Ionization_Penalty>  (1) 
1.5203065777176405e-06

>  <r_epik_Ionization_Penalty_Charging>  (1) 
1.5203065777176405e-06

>  <r_epik_Ionization_Penalty_Neutral>  (1) 
0

>  <r_epik_State_Penalty>  (1) 
-0

>  <r_glide_ring_energy>  (1) 
0

>  <r_i_docking_score>  (1) 
-5.1477616296728987

>  <r_i_glide_ecoul>  (1) 
-3.3718963942604687

>  <r_i_glide_eff_state_penalty>  (1) 
-0

>  <r_i_glide_einternal>  (1) 
0

>  <r_i_glide_emodel>  (1) 
-27.620257036291655

>  <r_i_glide_emodel_strain>  (1) 
0

>  <r_i_glide_energy>  (1) 
-19.932181456121768

>  <r_i_glide_erotb>  (1) 
0

>  <r_i_glide_esite>  (1) 
0

>  <r_i_glide_evdw>  (1) 
-16.5602850618613

>  <r_i_glide_gscore>  (1) 
-5.1477616296728987

>  <r_i_glide_gscore_strain>  (1) 
0

>  <r_i_glide_hbond>  (1) 
0

>  <r_i_glide_ligand_efficiency>  (1) 
-0.5147761629672899

>  <r_i_glide_ligand_efficiency_ln>  (1) 
-1.5587067357002025

>  <r_i_glide_ligand_efficiency_sa>  (1) 
-1.1090516230982357

>  <r_i_glide_lipo>  (1) 
-0.67370497280653752

>  <r_i_glide_metal>  (1) 
-0

>  <r_i_glide_rewards>  (1) 
-3.140257944634226

>  <r_lp_Energy>  (1) 
12.910414999999999

>  <r_lp_tautomer_probability>  (1) 
1

>  <s_epik_cmdline>  (1) 
J2VwaWtfcHl0aG9uJywgJy1waHQnLCAnMS4wJywgJy1waCcsICc3LjQnLCAnLXRuJywgJzgnLCAnLW1hJywgJzUwMCcsICctaW1hZScsICc8aW5maWxlLm1hZT4nLCAnLW9tYWUnLCAnPG91dGZpbGUubWFlPic=

>  <s_epik_input>  (1) 
TzFbQ0gyXVtDSDJdYyhjMTIpW2NIXVtuK10oW08tXSlbY0hdW2NIXTI=

>  <s_glide_docking_method>  (1) 
confgen

>  <s_i_glide_gridfile>  (1) 
gpcr_drd2_6luq_protein_autoprepared_prepared

>  <s_lp_Force_Field>  (1) 
S-OPLS

>  <s_lp_Variant>  (1) 
Pocket2Mol_59_num_sample_100-1

>  <s_m_source_file>  (1) 
generated__ligand_Pocket2Mol_2026-05-06_prepared.sdf

>  <GenAI_Model>  (1) 
Pocket2Mol

>  <Protein>  (1) 
generic_title2

$$$$
Pocket2Mol_78_num_sample_100
     RDKit          3D

  0  0  0  0  0  0  0  0  0  0999 V3000
M  V30 BEGIN CTAB
M  V30 COUNTS 22 23 0 0 1
M  V30 BEGIN ATOM
M  V30 1 C 12.229855 9.597373 -5.055528 0
M  V30 2 O 12.693267 9.369427 -6.375954 0
M  V30 3 C 11.891540 8.576503 -7.165227 0
M  V30 4 C 11.778961 8.279991 -4.426407 0
M  V30 5 O 10.724805 7.724172 -5.211298 0
M  V30 6 C 10.894536 7.752899 -6.581676 0
M  V30 7 C 10.070384 6.956757 -7.407992 0
M  V30 8 O 9.094102 6.169304 -6.832610 0
M  V30 9 C 12.070741 8.581512 -8.561980 0
M  V30 10 C 11.256371 7.785772 -9.383038 0
M  V30 11 C 10.257850 6.977256 -8.815695 0
M  V30 12 C 8.269427 5.365855 -7.666220 0
M  V30 13 H 13.039604 10.024328 -4.465521 0
M  V30 14 H 11.414972 10.322852 -5.071112 0
M  V30 15 H 12.595375 7.571057 -4.291663 0
M  V30 16 H 11.434849 8.479628 -3.414441 0
M  V30 17 H 12.834338 9.202992 -9.004860 0
M  V30 18 H 11.395676 7.796825 -10.453769 0
M  V30 19 H 9.640150 6.374061 -9.460818 0
M  V30 20 H 7.434844 4.969301 -7.091663 0
M  V30 21 H 7.834774 5.910543 -8.498093 0
M  V30 22 H 8.835476 4.522375 -8.061171 0
M  V30 END ATOM
M  V30 BEGIN BOND
M  V30 1 1 2 1
M  V30 2 1 3 2
M  V30 3 1 4 1
M  V30 4 1 5 4
M  V30 5 1 6 3
M  V30 6 1 6 5
M  V30 7 2 7 6
M  V30 8 1 8 7
M  V30 9 2 9 3
M  V30 10 1 10 9
M  V30 11 1 11 7
M  V30 12 2 11 10
M  V30 13 1 12 8
M  V30 14 1 13 1
M  V30 15 1 14 1
M  V30 16 1 15 4
M  V30 17 1 16 4
M  V30 18 1 17 9
M  V30 19 1 18 10
M  V30 20 1 19 11
M  V30 21 1 20 12
M  V30 22 1 21 12
M  V30 23 1 22 12
M  V30 END BOND
M  V30 END CTAB
M  END
>  <i_epik_Tot_Q>  (1) 
0

>  <i_epik_Tot_abs_Q>  (1) 
0

>  <i_i_glide_confnum>  (1) 
2

>  <i_i_glide_lignum>  (1) 
85

>  <i_i_glide_posenum>  (1) 
359

>  <i_i_glide_rotatable_bonds>  (1) 
1

>  <i_lp_mmshare_version>  (1) 
72125

>  <i_m_source_file_index>  (1) 
79

>  <i_f3d_flags>  (1) 
0

>  <num_sample>  (1) 
100

>  <b_lp_Chiralities_Consistent>  (1) 
1

>  <r_epik_Charging_Adjusted_Penalty>  (1) 
0

>  <r_epik_Ionization_Penalty>  (1) 
0

>  <r_epik_Ionization_Penalty_Charging>  (1) 
0

>  <r_epik_Ionization_Penalty_Neutral>  (1) 
0

>  <r_epik_State_Penalty>  (1) 
-0

>  <r_glide_ring_energy>  (1) 
0.0030884499939853893

>  <r_i_docking_score>  (1) 
-5.1455117830724051

>  <r_i_glide_ecoul>  (1) 
-0.092382387794417764

>  <r_i_glide_eff_state_penalty>  (1) 
-0

>  <r_i_glide_einternal>  (1) 
0.10227178957154015

>  <r_i_glide_emodel>  (1) 
-25.913708134026923

>  <r_i_glide_emodel_strain>  (1) 
0

>  <r_i_glide_energy>  (1) 
-19.755534300611227

>  <r_i_glide_erotb>  (1) 
0

>  <r_i_glide_esite>  (1) 
0

>  <r_i_glide_evdw>  (1) 
-19.663151912816808

>  <r_i_glide_gscore>  (1) 
-5.1455117830724051

>  <r_i_glide_gscore_strain>  (1) 
0

>  <r_i_glide_hbond>  (1) 
0

>  <r_i_glide_ligand_efficiency>  (1) 
-0.42879264858936711

>  <r_i_glide_ligand_efficiency_ln>  (1) 
-1.4765135196334243

>  <r_i_glide_ligand_efficiency_sa>  (1) 
-0.9816901038848288

>  <r_i_glide_lipo>  (1) 
-1.4156292524539333

>  <r_i_glide_metal>  (1) 
-0

>  <r_i_glide_rewards>  (1) 
-2.7328675768084691

>  <r_lp_Energy>  (1) 
20.318058000000001

>  <r_lp_tautomer_probability>  (1) 
1

>  <s_epik_cmdline>  (1) 
J2VwaWtfcHl0aG9uJywgJy1waHQnLCAnMS4wJywgJy1waCcsICc3LjQnLCAnLXRuJywgJzgnLCAnLW1hJywgJzUwMCcsICctaW1hZScsICc8aW5maWxlLm1hZT4nLCAnLW9tYWUnLCAnPG91dGZpbGUubWFlPic=

>  <s_epik_input>  (1) 
TzFbQ0gyXVtDSDJdT2MoYzEyKWMoT1tDSDNdKVtjSF1bY0hdW2NIXTI=

>  <s_glide_docking_method>  (1) 
confgen

>  <s_i_glide_gridfile>  (1) 
gpcr_drd2_6luq_protein_autoprepared_prepared

>  <s_lp_Force_Field>  (1) 
S-OPLS

>  <s_lp_Variant>  (1) 
Pocket2Mol_78_num_sample_100-1

>  <s_m_source_file>  (1) 
generated__ligand_Pocket2Mol_2026-05-06_prepared.sdf

>  <GenAI_Model>  (1) 
Pocket2Mol

>  <Protein>  (1) 
generic_title2

$$$$
Pocket2Mol_89_num_sample_100
     RDKit          3D

  0  0  0  0  0  0  0  0  0  0999 V3000
M  V30 BEGIN CTAB
M  V30 COUNTS 23 24 0 0 1
M  V30 BEGIN ATOM
M  V30 1 C 8.516574 6.134455 -11.252532 0
M  V30 2 O 8.995656 5.182622 -10.317353 0
M  V30 3 C 9.396267 7.378924 -11.254609 0
M  V30 4 O 10.634838 7.039742 -10.657342 0
M  V30 5 C 8.869458 5.369301 -8.992308 0
M  V30 6 C 10.634839 7.216047 -9.295882 0
M  V30 7 C 11.499959 8.174941 -8.726791 0
M  V30 8 O 8.115747 4.699932 -8.291667 0
M  V30 9 C 9.777332 6.447331 -8.448829 0
M  V30 10 C 12.435508 8.969301 -9.610447 0
M  V30 11 C 9.786432 6.683494 -7.055259 0
M  V30 12 C 10.640091 7.655068 -6.504289 0
M  V30 13 C 11.498256 8.394308 -7.335628 0
M  V30 14 H 7.466635 6.379535 -11.091666 0
M  V30 15 H 8.573327 5.661386 -12.232830 0
M  V30 16 H 8.916081 8.202722 -10.722425 0
M  V30 17 H 9.562984 7.724740 -12.274809 0
M  V30 18 H 13.430022 8.969301 -9.164099 0
M  V30 19 H 12.535954 8.546445 -10.609295 0
M  V30 20 H 12.083601 9.995206 -9.708739 0
M  V30 21 H 9.137831 6.112328 -6.406488 0
M  V30 22 H 10.641611 7.827469 -5.438255 0
M  V30 23 H 12.158750 9.132821 -6.905642 0
M  V30 END ATOM
M  V30 BEGIN BOND
M  V30 1 1 2 1
M  V30 2 1 3 1
M  V30 3 1 4 3
M  V30 4 1 5 2
M  V30 5 1 6 4
M  V30 6 2 7 6
M  V30 7 2 8 5
M  V30 8 1 9 5
M  V30 9 1 9 6
M  V30 10 1 10 7
M  V30 11 2 11 9
M  V30 12 1 12 11
M  V30 13 1 13 7
M  V30 14 2 13 12
M  V30 15 1 14 1
M  V30 16 1 15 1
M  V30 17 1 16 3
M  V30 18 1 17 3
M  V30 19 1 18 10
M  V30 20 1 19 10
M  V30 21 1 20 10
M  V30 22 1 21 11
M  V30 23 1 22 12
M  V30 24 1 23 13
M  V30 END BOND
M  V30 END CTAB
M  END
>  <i_epik_Tot_Q>  (1) 
0

>  <i_epik_Tot_abs_Q>  (1) 
0

>  <i_i_glide_confnum>  (1) 
6

>  <i_i_glide_lignum>  (1) 
96

>  <i_i_glide_posenum>  (1) 
110

>  <i_i_glide_rotatable_bonds>  (1) 
0

>  <i_lp_mmshare_version>  (1) 
72125

>  <i_m_source_file_index>  (1) 
90

>  <i_f3d_flags>  (1) 
0

>  <num_sample>  (1) 
100

>  <b_lp_Chiralities_Consistent>  (1) 
1

>  <r_epik_Charging_Adjusted_Penalty>  (1) 
0

>  <r_epik_Ionization_Penalty>  (1) 
1.0524661445465699e-15

>  <r_epik_Ionization_Penalty_Charging>  (1) 
0

>  <r_epik_Ionization_Penalty_Neutral>  (1) 
1.0524661445465699e-15

>  <r_epik_State_Penalty>  (1) 
-0

>  <r_glide_ring_energy>  (1) 
1.0468128739231415

>  <r_i_docking_score>  (1) 
-5.130488643702229

>  <r_i_glide_ecoul>  (1) 
-1.6266618924512759

>  <r_i_glide_eff_state_penalty>  (1) 
-0

>  <r_i_glide_einternal>  (1) 
0

>  <r_i_glide_emodel>  (1) 
-29.614775068647877

>  <r_i_glide_emodel_strain>  (1) 
0.78665980993328333

>  <r_i_glide_energy>  (1) 
-23.915184574971633

>  <r_i_glide_erotb>  (1) 
0

>  <r_i_glide_esite>  (1) 
-0.046176977164951727

>  <r_i_glide_evdw>  (1) 
-22.288522682520355

>  <r_i_glide_gscore>  (1) 
-5.130488643702229

>  <r_i_glide_gscore_strain>  (1) 
0

>  <r_i_glide_hbond>  (1) 
0

>  <r_i_glide_ligand_efficiency>  (1) 
-0.39465297259247917

>  <r_i_glide_ligand_efficiency_ln>  (1) 
-1.4391476930700224

>  <r_i_glide_ligand_efficiency_sa>  (1) 
-0.92796122406880577

>  <r_i_glide_lipo>  (1) 
-0.83729201516287277

>  <r_i_glide_metal>  (1) 
-0

>  <r_i_glide_rewards>  (1) 
-2.8885942333806964

>  <r_lp_Energy>  (1) 
16.296527999999999

>  <r_lp_tautomer_probability>  (1) 
1

>  <s_epik_Chemistry_Notes>  (1) 
This compound has an ester and may undergo hydrolysis at high or low pH.

>  <s_epik_cmdline>  (1) 
J2VwaWtfcHl0aG9uJywgJy1waHQnLCAnMS4wJywgJy1waCcsICc3LjQnLCAnLXRuJywgJzgnLCAnLW1hJywgJzUwMCcsICctaW1hZScsICc8aW5maWxlLm1hZT4nLCAnLW9tYWUnLCAnPG91dGZpbGUubWFlPic=

>  <s_epik_input>  (1) 
TzFbQ0gyXVtDSDJdT0MoPU8pYyhjMTIpW2NIXVtjSF1bY0hdYzJbQ0gzXQ==

>  <s_glide_docking_method>  (1) 
confgen

>  <s_i_glide_gridfile>  (1) 
gpcr_drd2_6luq_protein_autoprepared_prepared

>  <s_lp_Force_Field>  (1) 
S-OPLS

>  <s_lp_Variant>  (1) 
Pocket2Mol_89_num_sample_100-1

>  <s_m_source_file>  (1) 
generated__ligand_Pocket2Mol_2026-05-06_prepared.sdf

>  <GenAI_Model>  (1) 
Pocket2Mol

>  <Protein>  (1) 
generic_title2

$$$$
Pocket2Mol_25_num_sample_100
     RDKit          3D

  0  0  0  0  0  0  0  0  0  0999 V3000
M  V30 BEGIN CTAB
M  V30 COUNTS 15 15 0 0 1
M  V30 BEGIN ATOM
M  V30 1 N 9.426071 7.759545 -8.911435 0 CHG=1
M  V30 2 C 10.416100 8.167613 -9.764316 0
M  V30 3 C 11.612465 7.993591 -9.104846 0
M  V30 4 C 9.967584 7.347470 -7.767760 0
M  V30 5 C 13.018881 8.259266 -9.521525 0
M  V30 6 N 9.307153 6.881723 -6.707960 0
M  V30 7 N 11.290430 7.483335 -7.870523 0
M  V30 8 H 10.206564 8.543586 -10.755458 0
M  V30 9 H 13.045974 8.661138 -10.534942 0
M  V30 10 H 13.483081 8.982746 -8.850784 0
M  V30 11 H 13.601588 7.338167 -9.499733 0
M  V30 12 H 8.299677 6.800261 -6.685379 0
M  V30 13 H 9.773028 6.581799 -5.862876 0
M  V30 14 H 11.956492 7.245363 -7.145944 0
M  V30 15 H 8.430952 7.769322 -9.117589 0
M  V30 END ATOM
M  V30 BEGIN BOND
M  V30 1 1 2 1
M  V30 2 2 3 2
M  V30 3 2 4 1
M  V30 4 1 5 3
M  V30 5 1 6 4
M  V30 6 1 7 3
M  V30 7 1 7 4
M  V30 8 1 8 2
M  V30 9 1 9 5
M  V30 10 1 10 5
M  V30 11 1 11 5
M  V30 12 1 12 6
M  V30 13 1 13 6
M  V30 14 1 14 7
M  V30 15 1 15 1
M  V30 END BOND
M  V30 END CTAB
M  END
>  <i_epik_Tot_Q>  (1) 
1

>  <i_epik_Tot_abs_Q>  (1) 
1

>  <i_i_glide_confnum>  (1) 
1

>  <i_i_glide_lignum>  (1) 
29

>  <i_i_glide_posenum>  (1) 
65

>  <i_i_glide_rotatable_bonds>  (1) 
0

>  <i_lp_mmshare_version>  (1) 
72125

>  <i_m_source_file_index>  (1) 
26

>  <i_f3d_flags>  (1) 
0

>  <num_sample>  (1) 
100

>  <b_lp_Chiralities_Consistent>  (1) 
1

>  <r_epik_Charging_Adjusted_Penalty>  (1) 
0.028937443406262361

>  <r_epik_Ionization_Penalty>  (1) 
0.025358402846536118

>  <r_epik_Ionization_Penalty_Charging>  (1) 
0

>  <r_epik_Ionization_Penalty_Neutral>  (1) 
0.025358402846536118

>  <r_epik_State_Penalty>  (1) 
0.028937443406262361

>  <r_glide_ring_energy>  (1) 
0

>  <r_i_docking_score>  (1) 
-5.1294661048787047

>  <r_i_glide_ecoul>  (1) 
-8.1963512571058406

>  <r_i_glide_eff_state_penalty>  (1) 
0.028937443406262361

>  <r_i_glide_einternal>  (1) 
0

>  <r_i_glide_emodel>  (1) 
-25.717938734343115

>  <r_i_glide_emodel_strain>  (1) 
0

>  <r_i_glide_energy>  (1) 
-15.585383064505503

>  <r_i_glide_erotb>  (1) 
0

>  <r_i_glide_esite>  (1) 
-0.21103593319553304

>  <r_i_glide_evdw>  (1) 
-7.3890318073996619

>  <r_i_glide_gscore>  (1) 
-5.1584035482849666

>  <r_i_glide_gscore_strain>  (1) 
0

>  <r_i_glide_hbond>  (1) 
-0.29356532246528333

>  <r_i_glide_ligand_efficiency>  (1) 
-0.73278087212552923

>  <r_i_glide_ligand_efficiency_ln>  (1) 
-1.7412160742660832

>  <r_i_glide_ligand_efficiency_sa>  (1) 
-1.4017593804280715

>  <r_i_glide_lipo>  (1) 
-0.27489801368829109

>  <r_i_glide_metal>  (1) 
-0

>  <r_i_glide_rewards>  (1) 
-2.7800000000000002

>  <r_lp_Energy>  (1) 
-0.73901799999999995

>  <r_lp_tautomer_probability>  (1) 
0.99999998112300037

>  <s_epik_cmdline>  (1) 
J2VwaWtfcHl0aG9uJywgJy1waHQnLCAnMS4wJywgJy1waCcsICc3LjQnLCAnLXRuJywgJzgnLCAnLW1hJywgJzUwMCcsICctaW1hZScsICc8aW5maWxlLm1hZT4nLCAnLW9tYWUnLCAnPG91dGZpbGUubWFlPic=

>  <s_epik_input>  (1) 
W05IMl1jKFtuSF0xKW5bY0hdYzFbQ0gzXQ==

>  <s_glide_docking_method>  (1) 
confgen

>  <s_i_glide_gridfile>  (1) 
gpcr_drd2_6luq_protein_autoprepared_prepared

>  <s_lp_Force_Field>  (1) 
S-OPLS

>  <s_lp_Variant>  (1) 
Pocket2Mol_25_num_sample_100-1

>  <s_m_source_file>  (1) 
generated__ligand_Pocket2Mol_2026-05-06_prepared.sdf

>  <GenAI_Model>  (1) 
Pocket2Mol

>  <Protein>  (1) 
generic_title2

$$$$
Pocket2Mol_74_num_sample_100
     RDKit          3D

  0  0  0  0  0  0  0  0  0  0999 V3000
M  V30 BEGIN CTAB
M  V30 COUNTS 20 21 0 0 1
M  V30 BEGIN ATOM
M  V30 1 C 8.870978 6.262495 -11.157938 0
M  V30 2 O 9.332836 5.392187 -10.143577 0
M  V30 3 C 9.629180 7.583434 -11.108988 0
M  V30 4 O 10.860422 7.369411 -10.437404 0
M  V30 5 C 9.075637 5.628149 -8.848753 0
M  V30 6 C 10.774138 7.555150 -9.079788 0
M  V30 7 C 11.549459 8.567584 -8.478750 0
M  V30 8 O 8.269732 4.969301 -8.195392 0
M  V30 9 C 9.908848 6.750141 -8.268958 0
M  V30 10 C 9.835014 6.998290 -6.879026 0
M  V30 11 C 10.612545 8.016306 -6.295890 0
M  V30 12 C 11.469171 8.796058 -7.092330 0
M  V30 13 H 7.793645 6.418568 -11.091651 0
M  V30 14 H 9.062785 5.771567 -12.112041 0
M  V30 15 H 9.034846 8.351077 -10.608239 0
M  V30 16 H 9.818071 7.948736 -12.118442 0
M  V30 17 H 12.204497 9.174756 -9.086926 0
M  V30 18 H 9.183114 6.400033 -6.257635 0
M  V30 19 H 10.552918 8.196636 -5.233057 0
M  V30 20 H 12.064571 9.575023 -6.639690 0
M  V30 END ATOM
M  V30 BEGIN BOND
M  V30 1 1 2 1
M  V30 2 1 3 1
M  V30 3 1 4 3
M  V30 4 1 5 2
M  V30 5 1 6 4
M  V30 6 2 7 6
M  V30 7 2 8 5
M  V30 8 1 9 5
M  V30 9 1 9 6
M  V30 10 2 10 9
M  V30 11 1 11 10
M  V30 12 1 12 7
M  V30 13 2 12 11
M  V30 14 1 13 1
M  V30 15 1 14 1
M  V30 16 1 15 3
M  V30 17 1 16 3
M  V30 18 1 17 7
M  V30 19 1 18 10
M  V30 20 1 19 11
M  V30 21 1 20 12
M  V30 END BOND
M  V30 END CTAB
M  END
>  <i_epik_Tot_Q>  (1) 
0

>  <i_epik_Tot_abs_Q>  (1) 
0

>  <i_i_glide_confnum>  (1) 
6

>  <i_i_glide_lignum>  (1) 
81

>  <i_i_glide_posenum>  (1) 
184

>  <i_i_glide_rotatable_bonds>  (1) 
0

>  <i_lp_mmshare_version>  (1) 
72125

>  <i_m_source_file_index>  (1) 
75

>  <i_f3d_flags>  (1) 
0

>  <num_sample>  (1) 
100

>  <b_lp_Chiralities_Consistent>  (1) 
1

>  <r_epik_Charging_Adjusted_Penalty>  (1) 
0

>  <r_epik_Ionization_Penalty>  (1) 
6.5779134034160639e-16

>  <r_epik_Ionization_Penalty_Charging>  (1) 
0

>  <r_epik_Ionization_Penalty_Neutral>  (1) 
6.5779134034160639e-16

>  <r_epik_State_Penalty>  (1) 
-0

>  <r_glide_ring_energy>  (1) 
1.0387810876674941

>  <r_i_docking_score>  (1) 
-5.129275581806974

>  <r_i_glide_ecoul>  (1) 
-1.4456497644823298

>  <r_i_glide_eff_state_penalty>  (1) 
-0

>  <r_i_glide_einternal>  (1) 
0

>  <r_i_glide_emodel>  (1) 
-31.922771958865496

>  <r_i_glide_emodel_strain>  (1) 
0.74125700718693821

>  <r_i_glide_energy>  (1) 
-24.997354739945941

>  <r_i_glide_erotb>  (1) 
0

>  <r_i_glide_esite>  (1) 
-0.06374397764981006

>  <r_i_glide_evdw>  (1) 
-23.551704975463611

>  <r_i_glide_gscore>  (1) 
-5.129275581806974

>  <r_i_glide_gscore_strain>  (1) 
0

>  <r_i_glide_hbond>  (1) 
0

>  <r_i_glide_ligand_efficiency>  (1) 
-0.42743963181724781

>  <r_i_glide_ligand_efficiency_ln>  (1) 
-1.4718545135546188

>  <r_i_glide_ligand_efficiency_sa>  (1) 
-0.97859246874591188

>  <r_i_glide_lipo>  (1) 
-0.76682928351394375

>  <r_i_glide_metal>  (1) 
-0

>  <r_i_glide_rewards>  (1) 
-2.9042696071976901

>  <r_lp_Energy>  (1) 
17.344456999999998

>  <r_lp_tautomer_probability>  (1) 
1

>  <s_epik_Chemistry_Notes>  (1) 
This compound has an ester and may undergo hydrolysis at high or low pH.

>  <s_epik_cmdline>  (1) 
J2VwaWtfcHl0aG9uJywgJy1waHQnLCAnMS4wJywgJy1waCcsICc3LjQnLCAnLXRuJywgJzgnLCAnLW1hJywgJzUwMCcsICctaW1hZScsICc8aW5maWxlLm1hZT4nLCAnLW9tYWUnLCAnPG91dGZpbGUubWFlPic=

>  <s_epik_input>  (1) 
TzFbQ0gyXVtDSDJdT0MoPU8pYyhjMTIpW2NIXVtjSF1bY0hdW2NIXTI=

>  <s_glide_docking_method>  (1) 
confgen

>  <s_i_glide_gridfile>  (1) 
gpcr_drd2_6luq_protein_autoprepared_prepared

>  <s_lp_Force_Field>  (1) 
S-OPLS

>  <s_lp_Variant>  (1) 
Pocket2Mol_74_num_sample_100-1

>  <s_m_source_file>  (1) 
generated__ligand_Pocket2Mol_2026-05-06_prepared.sdf

>  <GenAI_Model>  (1) 
Pocket2Mol

>  <Protein>  (1) 
generic_title2

$$$$
Pocket2Mol_35_num_sample_100
     RDKit          3D

  0  0  0  0  0  0  0  0  0  0999 V3000
M  V30 BEGIN CTAB
M  V30 COUNTS 17 18 0 0 1
M  V30 BEGIN ATOM
M  V30 1 C 12.502421 8.725604 -2.075012 0
M  V30 2 O 12.234696 9.769299 -3.092427 0
M  V30 3 C 11.838216 9.025570 -4.142441 0
M  V30 4 C 11.834840 7.692040 -3.949672 0
M  V30 5 C 11.423193 6.825426 -4.969429 0
M  V30 6 N 11.034839 7.341139 -6.155558 0 CHG=1
M  V30 7 C 11.026917 8.672629 -6.399632 0
M  V30 8 C 11.435022 9.570454 -5.380265 0
M  V30 9 C 12.262236 7.246079 -2.626033 0
M  V30 10 H 11.862065 8.913466 -1.211980 0
M  V30 11 H 13.528899 8.832928 -1.725321 0
M  V30 12 H 11.388572 5.767719 -4.879984 0
M  V30 13 H 10.697676 8.969656 -7.383345 0
M  V30 14 H 11.434825 10.636876 -5.544052 0
M  V30 15 H 11.471621 6.711226 -2.097780 0
M  V30 16 H 13.172287 6.649552 -2.685192 0
M  V30 17 H 10.734182 6.702828 -6.895179 0
M  V30 END ATOM
M  V30 BEGIN BOND
M  V30 1 1 2 1
M  V30 2 1 3 2
M  V30 3 2 4 3
M  V30 4 1 5 4
M  V30 5 2 6 5
M  V30 6 1 7 6
M  V30 7 1 8 3
M  V30 8 2 8 7
M  V30 9 1 9 1
M  V30 10 1 9 4
M  V30 11 1 10 1
M  V30 12 1 11 1
M  V30 13 1 12 5
M  V30 14 1 13 7
M  V30 15 1 14 8
M  V30 16 1 15 9
M  V30 17 1 16 9
M  V30 18 1 17 6
M  V30 END BOND
M  V30 END CTAB
M  END
>  <i_epik_Tot_Q>  (1) 
1

>  <i_epik_Tot_abs_Q>  (1) 
1

>  <i_i_glide_confnum>  (1) 
1

>  <i_i_glide_lignum>  (1) 
39

>  <i_i_glide_posenum>  (1) 
355

>  <i_i_glide_rotatable_bonds>  (1) 
0

>  <i_lp_mmshare_version>  (1) 
72125

>  <i_m_source_file_index>  (1) 
36

>  <i_f3d_flags>  (1) 
0

>  <num_sample>  (1) 
100

>  <b_lp_Chiralities_Consistent>  (1) 
1

>  <r_epik_Charging_Adjusted_Penalty>  (1) 
0.75885481127580245

>  <r_epik_Ionization_Penalty>  (1) 
0.37942740563790117

>  <r_epik_Ionization_Penalty_Charging>  (1) 
0.37942740563790117

>  <r_epik_Ionization_Penalty_Neutral>  (1) 
0

>  <r_epik_State_Penalty>  (1) 
0.37942740563790123

>  <r_glide_ring_energy>  (1) 
0

>  <r_i_docking_score>  (1) 
-5.1279243361106843

>  <r_i_glide_ecoul>  (1) 
-0.78362647247206907

>  <r_i_glide_eff_state_penalty>  (1) 
0.37942740563790123

>  <r_i_glide_einternal>  (1) 
0

>  <r_i_glide_emodel>  (1) 
-28.669227271581107

>  <r_i_glide_emodel_strain>  (1) 
0

>  <r_i_glide_energy>  (1) 
-18.434029383643651

>  <r_i_glide_erotb>  (1) 
0

>  <r_i_glide_esite>  (1) 
0

>  <r_i_glide_evdw>  (1) 
-17.650402911171582

>  <r_i_glide_gscore>  (1) 
-5.507351741748586

>  <r_i_glide_gscore_strain>  (1) 
0

>  <r_i_glide_hbond>  (1) 
0

>  <r_i_glide_ligand_efficiency>  (1) 
-0.56976937067896494

>  <r_i_glide_ligand_efficiency_ln>  (1) 
-1.6038674206561476

>  <r_i_glide_ligand_efficiency_sa>  (1) 
-1.1851680508197791

>  <r_i_glide_lipo>  (1) 
-2.0156209586525304

>  <r_i_glide_metal>  (1) 
-0

>  <r_i_glide_rewards>  (1) 
-2.4916666666666667

>  <r_lp_Energy>  (1) 
18.327531999999998

>  <s_epik_cmdline>  (1) 
J2VwaWtfcHl0aG9uJywgJy1waHQnLCAnMS4wJywgJy1waCcsICc3LjQnLCAnLXRuJywgJzgnLCAnLW1hJywgJzUwMCcsICctaW1hZScsICc8aW5maWxlLm1hZT4nLCAnLW9tYWUnLCAnPG91dGZpbGUubWFlPic=

>  <s_epik_input>  (1) 
TzFbQ0gyXVtDSDJdYyhjMTIpW2NIXW5bY0hdW2NIXTI=

>  <s_glide_docking_method>  (1) 
confgen

>  <s_i_glide_gridfile>  (1) 
gpcr_drd2_6luq_protein_autoprepared_prepared

>  <s_lp_Force_Field>  (1) 
S-OPLS

>  <s_lp_Variant>  (1) 
Pocket2Mol_35_num_sample_100-1

>  <s_m_source_file>  (1) 
generated__ligand_Pocket2Mol_2026-05-06_prepared.sdf

>  <GenAI_Model>  (1) 
Pocket2Mol

>  <Protein>  (1) 
generic_title2

$$$$
Pocket2Mol_87_num_sample_100
     RDKit          3D

  0  0  0  0  0  0  0  0  0  0999 V3000
M  V30 BEGIN CTAB
M  V30 COUNTS 21 22 0 0 1
M  V30 BEGIN ATOM
M  V30 1 C 7.217340 4.609200 -15.562461 0
M  V30 2 O 6.234853 5.093098 -14.704136 0
M  V30 3 C 8.436545 5.369300 -15.151710 0
M  V30 4 O 8.919535 4.575808 -14.117698 0
M  V30 5 C 5.944148 4.607811 -13.488375 0
M  V30 6 C 8.481428 4.744382 -12.827603 0
M  V30 7 C 9.452366 4.869485 -11.819365 0
M  V30 8 O 4.832338 4.169302 -13.209505 0
M  V30 9 C 7.081484 4.739516 -12.466267 0
M  V30 10 C 6.736879 4.846531 -11.083864 0
M  V30 11 C 9.080288 4.985752 -10.472393 0
M  V30 12 O 5.434839 4.845016 -10.691667 0
M  V30 13 C 7.735301 4.969300 -10.108480 0
M  V30 14 H 7.338698 3.526212 -15.500419 0
M  V30 15 H 6.935951 4.863056 -16.584331 0
M  V30 16 H 9.173743 5.381008 -15.954585 0
M  V30 17 H 8.234843 6.400089 -14.853409 0
M  V30 18 H 10.498580 4.866458 -12.085702 0
M  V30 19 H 9.836824 5.081039 -9.711055 0
M  V30 20 H 5.335160 4.928795 -9.746892 0
M  V30 21 H 7.461348 5.058118 -9.067123 0
M  V30 END ATOM
M  V30 BEGIN BOND
M  V30 1 1 2 1
M  V30 2 1 3 1
M  V30 3 1 4 3
M  V30 4 1 5 2
M  V30 5 1 6 4
M  V30 6 2 7 6
M  V30 7 2 8 5
M  V30 8 1 9 5
M  V30 9 1 9 6
M  V30 10 2 10 9
M  V30 11 1 11 7
M  V30 12 1 12 10
M  V30 13 1 13 10
M  V30 14 2 13 11
M  V30 15 1 14 1
M  V30 16 1 15 1
M  V30 17 1 16 3
M  V30 18 1 17 3
M  V30 19 1 18 7
M  V30 20 1 19 11
M  V30 21 1 20 12
M  V30 22 1 21 13
M  V30 END BOND
M  V30 END CTAB
M  END
>  <i_epik_Tot_Q>  (1) 
0

>  <i_epik_Tot_abs_Q>  (1) 
0

>  <i_i_glide_confnum>  (1) 
1

>  <i_i_glide_lignum>  (1) 
94

>  <i_i_glide_posenum>  (1) 
349

>  <i_i_glide_rotatable_bonds>  (1) 
1

>  <i_lp_mmshare_version>  (1) 
72125

>  <i_m_source_file_index>  (1) 
88

>  <i_f3d_flags>  (1) 
0

>  <num_sample>  (1) 
100

>  <b_lp_Chiralities_Consistent>  (1) 
1

>  <r_epik_Charging_Adjusted_Penalty>  (1) 
0.011568550508496497

>  <r_epik_Ionization_Penalty>  (1) 
0.011568550508503217

>  <r_epik_Ionization_Penalty_Charging>  (1) 
0

>  <r_epik_Ionization_Penalty_Neutral>  (1) 
0.011568550508503217

>  <r_epik_State_Penalty>  (1) 
0.011568550508496497

>  <r_glide_ring_energy>  (1) 
0

>  <r_i_docking_score>  (1) 
-5.123670938250835

>  <r_i_glide_ecoul>  (1) 
-4.801784774663699

>  <r_i_glide_eff_state_penalty>  (1) 
0.011568550508496497

>  <r_i_glide_einternal>  (1) 
0.0096641259347958197

>  <r_i_glide_emodel>  (1) 
-26.864577091804222

>  <r_i_glide_emodel_strain>  (1) 
0

>  <r_i_glide_energy>  (1) 
-20.177527690529136

>  <r_i_glide_erotb>  (1) 
0

>  <r_i_glide_esite>  (1) 
0

>  <r_i_glide_evdw>  (1) 
-15.375742915865436

>  <r_i_glide_gscore>  (1) 
-5.1352394887593311

>  <r_i_glide_gscore_strain>  (1) 
0

>  <r_i_glide_hbond>  (1) 
-0.32000000000000001

>  <r_i_glide_ligand_efficiency>  (1) 
-0.39412853371160267

>  <r_i_glide_ligand_efficiency_ln>  (1) 
-1.4372352660569641

>  <r_i_glide_ligand_efficiency_sa>  (1) 
-0.9267280927366115

>  <r_i_glide_lipo>  (1) 
-0.68171388707966518

>  <r_i_glide_metal>  (1) 
-0

>  <r_i_glide_rewards>  (1) 
-2.6444707396868399

>  <r_lp_Energy>  (1) 
16.036466999999998

>  <s_epik_Chemistry_Notes>  (1) 
This compound has an ester and may undergo hydrolysis at high or low pH.

>  <s_epik_cmdline>  (1) 
J2VwaWtfcHl0aG9uJywgJy1waHQnLCAnMS4wJywgJy1waCcsICc3LjQnLCAnLXRuJywgJzgnLCAnLW1hJywgJzUwMCcsICctaW1hZScsICc8aW5maWxlLm1hZT4nLCAnLW9tYWUnLCAnPG91dGZpbGUubWFlPic=

>  <s_epik_input>  (1) 
TzFbQ0gyXVtDSDJdT0MoPU8pYyhjMTIpYyhbT0hdKVtjSF1bY0hdW2NIXTI=

>  <s_glide_docking_method>  (1) 
confgen

>  <s_i_glide_gridfile>  (1) 
gpcr_drd2_6luq_protein_autoprepared_prepared

>  <s_lp_Force_Field>  (1) 
S-OPLS

>  <s_lp_Variant>  (1) 
Pocket2Mol_87_num_sample_100-1

>  <s_m_source_file>  (1) 
generated__ligand_Pocket2Mol_2026-05-06_prepared.sdf

>  <GenAI_Model>  (1) 
Pocket2Mol

>  <Protein>  (1) 
generic_title2

$$$$
Pocket2Mol_35_num_sample_100
     RDKit          3D

  0  0  0  0  0  0  0  0  0  0999 V3000
M  V30 BEGIN CTAB
M  V30 COUNTS 17 18 0 0 1
M  V30 BEGIN ATOM
M  V30 1 C 9.917596 7.708540 -7.567087 0
M  V30 2 O 10.524846 8.969301 -7.091669 0
M  V30 3 C 11.055985 8.596416 -5.912550 0
M  V30 4 C 10.916133 7.297004 -5.591143 0
M  V30 5 C 11.434839 6.794956 -4.383741 0
M  V30 6 N 12.079692 7.644011 -3.546267 0 CHG=1
M  V30 7 C 12.239234 8.963575 -3.830608 0
M  V30 8 C 11.722777 9.482516 -5.044330 0
M  V30 9 C 10.198891 6.488722 -6.577018 0
M  V30 10 H 10.287622 7.482503 -8.567674 0
M  V30 11 H 8.842804 7.865471 -7.659464 0
M  V30 12 H 11.358031 5.769309 -4.063196 0
M  V30 13 H 12.765696 9.550343 -3.091689 0
M  V30 14 H 11.834771 10.526039 -5.298440 0
M  V30 15 H 10.837829 5.724024 -7.018605 0
M  V30 16 H 9.281884 6.060196 -6.172764 0
M  V30 17 H 12.455177 7.279689 -2.669276 0
M  V30 END ATOM
M  V30 BEGIN BOND
M  V30 1 1 2 1
M  V30 2 1 3 2
M  V30 3 2 4 3
M  V30 4 1 5 4
M  V30 5 2 6 5
M  V30 6 1 7 6
M  V30 7 1 8 3
M  V30 8 2 8 7
M  V30 9 1 9 1
M  V30 10 1 9 4
M  V30 11 1 10 1
M  V30 12 1 11 1
M  V30 13 1 12 5
M  V30 14 1 13 7
M  V30 15 1 14 8
M  V30 16 1 15 9
M  V30 17 1 16 9
M  V30 18 1 17 6
M  V30 END BOND
M  V30 END CTAB
M  END
>  <i_epik_Tot_Q>  (1) 
1

>  <i_epik_Tot_abs_Q>  (1) 
1

>  <i_i_glide_confnum>  (1) 
1

>  <i_i_glide_lignum>  (1) 
39

>  <i_i_glide_posenum>  (1) 
17

>  <i_i_glide_rotatable_bonds>  (1) 
0

>  <i_lp_mmshare_version>  (1) 
72125

>  <i_m_source_file_index>  (1) 
36

>  <i_f3d_flags>  (1) 
0

>  <num_sample>  (1) 
100

>  <b_lp_Chiralities_Consistent>  (1) 
1

>  <r_epik_Charging_Adjusted_Penalty>  (1) 
0.75885481127580245

>  <r_epik_Ionization_Penalty>  (1) 
0.37942740563790117

>  <r_epik_Ionization_Penalty_Charging>  (1) 
0.37942740563790117

>  <r_epik_Ionization_Penalty_Neutral>  (1) 
0

>  <r_epik_State_Penalty>  (1) 
0.37942740563790123

>  <r_glide_ring_energy>  (1) 
0

>  <r_i_docking_score>  (1) 
-5.1166537904767058

>  <r_i_glide_ecoul>  (1) 
-1.9256310411400248

>  <r_i_glide_eff_state_penalty>  (1) 
0.37942740563790123

>  <r_i_glide_einternal>  (1) 
0

>  <r_i_glide_emodel>  (1) 
-29.328552332208254

>  <r_i_glide_emodel_strain>  (1) 
0

>  <r_i_glide_energy>  (1) 
-19.114300312680534

>  <r_i_glide_erotb>  (1) 
0

>  <r_i_glide_esite>  (1) 
0

>  <r_i_glide_evdw>  (1) 
-17.188669271540508

>  <r_i_glide_gscore>  (1) 
-5.4960811961146074

>  <r_i_glide_gscore_strain>  (1) 
0

>  <r_i_glide_hbond>  (1) 
0

>  <r_i_glide_ligand_efficiency>  (1) 
-0.56851708783074506

>  <r_i_glide_ligand_efficiency_ln>  (1) 
-1.6003423177547529

>  <r_i_glide_ligand_efficiency_sa>  (1) 
-1.1825631975253115

>  <r_i_glide_lipo>  (1) 
-1.6984045982695746

>  <r_i_glide_metal>  (1) 
-0

>  <r_i_glide_rewards>  (1) 
-2.6493984780970039

>  <r_lp_Energy>  (1) 
18.327531999999998

>  <s_epik_cmdline>  (1) 
J2VwaWtfcHl0aG9uJywgJy1waHQnLCAnMS4wJywgJy1waCcsICc3LjQnLCAnLXRuJywgJzgnLCAnLW1hJywgJzUwMCcsICctaW1hZScsICc8aW5maWxlLm1hZT4nLCAnLW9tYWUnLCAnPG91dGZpbGUubWFlPic=

>  <s_epik_input>  (1) 
TzFbQ0gyXVtDSDJdYyhjMTIpW2NIXW5bY0hdW2NIXTI=

>  <s_glide_docking_method>  (1) 
confgen

>  <s_i_glide_gridfile>  (1) 
gpcr_drd2_6luq_protein_autoprepared_prepared

>  <s_lp_Force_Field>  (1) 
S-OPLS

>  <s_lp_Variant>  (1) 
Pocket2Mol_35_num_sample_100-1

>  <s_m_source_file>  (1) 
generated__ligand_Pocket2Mol_2026-05-06_prepared.sdf

>  <GenAI_Model>  (1) 
Pocket2Mol

>  <Protein>  (1) 
generic_title2

$$$$
Pocket2Mol_35_num_sample_100
     RDKit          3D

  0  0  0  0  0  0  0  0  0  0999 V3000
M  V30 BEGIN CTAB
M  V30 COUNTS 16 17 0 0 1
M  V30 BEGIN ATOM
M  V30 1 C 9.833971 7.734750 -7.447991 0
M  V30 2 O 10.550865 8.969301 -7.068653 0
M  V30 3 C 11.102146 8.616556 -5.891796 0
M  V30 4 C 10.897574 7.357818 -5.502176 0
M  V30 5 C 11.434854 6.890114 -4.291695 0
M  V30 6 N 12.185568 7.679436 -3.470955 0
M  V30 7 C 12.374196 8.969266 -3.881307 0
M  V30 8 C 11.850403 9.482155 -5.091677 0
M  V30 9 C 10.094584 6.547905 -6.414351 0
M  V30 10 H 8.767911 7.962151 -7.483483 0
M  V30 11 H 10.123433 7.437635 -8.456381 0
M  V30 12 H 11.271751 5.871639 -3.971125 0
M  V30 13 H 12.960553 9.599601 -3.229014 0
M  V30 14 H 12.023555 10.505712 -5.387688 0
M  V30 15 H 10.684587 5.742068 -6.848287 0
M  V30 16 H 9.182724 6.169446 -5.951031 0
M  V30 END ATOM
M  V30 BEGIN BOND
M  V30 1 1 2 1
M  V30 2 1 3 2
M  V30 3 2 4 3
M  V30 4 1 5 4
M  V30 5 2 6 5
M  V30 6 1 7 6
M  V30 7 1 8 3
M  V30 8 2 8 7
M  V30 9 1 9 1
M  V30 10 1 9 4
M  V30 11 1 10 1
M  V30 12 1 11 1
M  V30 13 1 12 5
M  V30 14 1 13 7
M  V30 15 1 14 8
M  V30 16 1 15 9
M  V30 17 1 16 9
M  V30 END BOND
M  V30 END CTAB
M  END
>  <i_epik_Tot_Q>  (1) 
0

>  <i_epik_Tot_abs_Q>  (1) 
0

>  <i_i_glide_confnum>  (1) 
1

>  <i_i_glide_lignum>  (1) 
40

>  <i_i_glide_posenum>  (1) 
156

>  <i_i_glide_rotatable_bonds>  (1) 
0

>  <i_lp_mmshare_version>  (1) 
72125

>  <i_m_source_file_index>  (1) 
36

>  <i_f3d_flags>  (1) 
0

>  <num_sample>  (1) 
100

>  <b_lp_Chiralities_Consistent>  (1) 
1

>  <r_epik_Charging_Adjusted_Penalty>  (1) 
0.44367302241175355

>  <r_epik_Ionization_Penalty>  (1) 
0.44367302241175355

>  <r_epik_Ionization_Penalty_Charging>  (1) 
0

>  <r_epik_Ionization_Penalty_Neutral>  (1) 
0.44367302241175355

>  <r_epik_State_Penalty>  (1) 
0.44367302241175355

>  <r_glide_ring_energy>  (1) 
0

>  <r_i_docking_score>  (1) 
-5.1152812139547672

>  <r_i_glide_ecoul>  (1) 
-1.5572474306609561

>  <r_i_glide_eff_state_penalty>  (1) 
0.44367302241175355

>  <r_i_glide_einternal>  (1) 
0

>  <r_i_glide_emodel>  (1) 
-28.329962355813628

>  <r_i_glide_emodel_strain>  (1) 
0

>  <r_i_glide_energy>  (1) 
-20.873184691769232

>  <r_i_glide_erotb>  (1) 
0

>  <r_i_glide_esite>  (1) 
0

>  <r_i_glide_evdw>  (1) 
-19.315937261108274

>  <r_i_glide_gscore>  (1) 
-5.558954236366521

>  <r_i_glide_gscore_strain>  (1) 
0

>  <r_i_glide_hbond>  (1) 
0

>  <r_i_glide_ligand_efficiency>  (1) 
-0.56836457932830742

>  <r_i_glide_ligand_efficiency_ln>  (1) 
-1.5999130152491772

>  <r_i_glide_ligand_efficiency_sa>  (1) 
-1.1822459670565133

>  <r_i_glide_lipo>  (1) 
-1.6445498490191752

>  <r_i_glide_metal>  (1) 
-0

>  <r_i_glide_rewards>  (1) 
-2.715020409692789

>  <r_lp_Energy>  (1) 
12.810587999999999

>  <s_epik_cmdline>  (1) 
J2VwaWtfcHl0aG9uJywgJy1waHQnLCAnMS4wJywgJy1waCcsICc3LjQnLCAnLXRuJywgJzgnLCAnLW1hJywgJzUwMCcsICctaW1hZScsICc8aW5maWxlLm1hZT4nLCAnLW9tYWUnLCAnPG91dGZpbGUubWFlPic=

>  <s_epik_input>  (1) 
TzFbQ0gyXVtDSDJdYyhjMTIpW2NIXW5bY0hdW2NIXTI=

>  <s_glide_docking_method>  (1) 
confgen

>  <s_i_glide_gridfile>  (1) 
gpcr_drd2_6luq_protein_autoprepared_prepared

>  <s_lp_Force_Field>  (1) 
S-OPLS

>  <s_lp_Variant>  (1) 
Pocket2Mol_35_num_sample_100-2

>  <s_m_source_file>  (1) 
generated__ligand_Pocket2Mol_2026-05-06_prepared.sdf

>  <GenAI_Model>  (1) 
Pocket2Mol

>  <Protein>  (1) 
generic_title2

$$$$
Pocket2Mol_48_num_sample_100
     RDKit          3D

  0  0  0  0  0  0  0  0  0  0999 V3000
M  V30 BEGIN CTAB
M  V30 COUNTS 20 21 0 0 1
M  V30 BEGIN ATOM
M  V30 1 C 10.559867 7.840775 -9.619801 0
M  V30 2 O 10.685072 8.844383 -8.660837 0
M  V30 3 C 10.921441 8.457924 -7.357287 0
M  V30 4 C 10.531949 7.173528 -6.903106 0
M  V30 5 C 10.794436 6.791414 -5.570858 0
M  V30 6 C 11.549075 9.354452 -6.467323 0
M  V30 7 C 11.805759 8.969308 -5.137474 0
M  V30 8 C 9.830044 6.207952 -7.845600 0
M  V30 9 C 11.434833 7.686299 -4.691708 0
M  V30 10 N 9.434834 6.861119 -9.106657 0 CHG=1
M  V30 11 H 10.255064 8.280611 -10.569717 0
M  V30 12 H 11.507582 7.315787 -9.748751 0
M  V30 13 H 10.503498 5.811274 -5.221898 0
M  V30 14 H 11.834860 10.337484 -6.806952 0
M  V30 15 H 12.290643 9.657083 -4.459798 0
M  V30 16 H 10.508348 5.382809 -8.065857 0
M  V30 17 H 8.946367 5.786390 -7.364342 0
M  V30 18 H 11.635273 7.390049 -3.672201 0
M  V30 19 H 8.551422 7.369297 -8.986473 0
M  V30 20 H 9.250470 6.145491 -9.794087 0
M  V30 END ATOM
M  V30 BEGIN BOND
M  V30 1 1 2 1
M  V30 2 1 3 2
M  V30 3 1 4 3
M  V30 4 2 5 4
M  V30 5 2 6 3
M  V30 6 1 7 6
M  V30 7 1 8 4
M  V30 8 1 9 5
M  V30 9 2 9 7
M  V30 10 1 10 1
M  V30 11 1 10 8
M  V30 12 1 11 1
M  V30 13 1 12 1
M  V30 14 1 13 5
M  V30 15 1 14 6
M  V30 16 1 15 7
M  V30 17 1 16 8
M  V30 18 1 17 8
M  V30 19 1 18 9
M  V30 20 1 19 10
M  V30 21 1 20 10
M  V30 END BOND
M  V30 END CTAB
M  END
>  <i_epik_Tot_Q>  (1) 
1

>  <i_epik_Tot_abs_Q>  (1) 
1

>  <i_i_glide_confnum>  (1) 
1

>  <i_i_glide_lignum>  (1) 
55

>  <i_i_glide_posenum>  (1) 
246

>  <i_i_glide_rotatable_bonds>  (1) 
0

>  <i_lp_mmshare_version>  (1) 
72125

>  <i_m_source_file_index>  (1) 
49

>  <i_f3d_flags>  (1) 
0

>  <num_sample>  (1) 
100

>  <b_lp_Chiralities_Consistent>  (1) 
1

>  <r_epik_Charging_Adjusted_Penalty>  (1) 
1.7789378330503367

>  <r_epik_Ionization_Penalty>  (1) 
0.88946891652516835

>  <r_epik_Ionization_Penalty_Charging>  (1) 
0.88946891652516835

>  <r_epik_Ionization_Penalty_Neutral>  (1) 
0

>  <r_epik_State_Penalty>  (1) 
0.88946891652516835

>  <r_glide_ring_energy>  (1) 
0

>  <r_i_docking_score>  (1) 
-5.1071507214710481

>  <r_i_glide_ecoul>  (1) 
-6.0649054118997654

>  <r_i_glide_eff_state_penalty>  (1) 
0.88946891652516835

>  <r_i_glide_einternal>  (1) 
0

>  <r_i_glide_emodel>  (1) 
-36.523241705218481

>  <r_i_glide_emodel_strain>  (1) 
0

>  <r_i_glide_energy>  (1) 
-22.733110399224383

>  <r_i_glide_erotb>  (1) 
0

>  <r_i_glide_esite>  (1) 
-0.12483307877754089

>  <r_i_glide_evdw>  (1) 
-16.668204987324618

>  <r_i_glide_gscore>  (1) 
-5.9966196379962167

>  <r_i_glide_gscore_strain>  (1) 
0

>  <r_i_glide_hbond>  (1) 
-0.20000000000000001

>  <r_i_glide_ligand_efficiency>  (1) 
-0.51071507214710476

>  <r_i_glide_ligand_efficiency_ln>  (1) 
-1.546410032645374

>  <r_i_glide_ligand_efficiency_sa>  (1) 
-1.100302268155859

>  <r_i_glide_lipo>  (1) 
-1.2960456936990405

>  <r_i_glide_metal>  (1) 
-0

>  <r_i_glide_rewards>  (1) 
-2.63259480436844

>  <r_lp_Energy>  (1) 
22.335957999999998

>  <r_lp_tautomer_probability>  (1) 
1

>  <s_epik_Chemistry_Notes>  (1) 
This compound contains an acetal/aminal-like group ( X-CH(R)-Y where X, Y are N, S, or O) that may be acid/base labile, releasing an aldehyde.

>  <s_epik_cmdline>  (1) 
J2VwaWtfcHl0aG9uJywgJy1waHQnLCAnMS4wJywgJy1waCcsICc3LjQnLCAnLXRuJywgJzgnLCAnLW1hJywgJzUwMCcsICctaW1hZScsICc8aW5maWxlLm1hZT4nLCAnLW9tYWUnLCAnPG91dGZpbGUubWFlPic=

>  <s_epik_input>  (1) 
TzFbQ0gyXVtOSF1bQ0gyXWMoYzEyKVtjSF1bY0hdW2NIXVtjSF0y

>  <s_glide_docking_method>  (1) 
confgen

>  <s_i_glide_gridfile>  (1) 
gpcr_drd2_6luq_protein_autoprepared_prepared

>  <s_lp_Force_Field>  (1) 
S-OPLS

>  <s_lp_Variant>  (1) 
Pocket2Mol_48_num_sample_100-2

>  <s_m_source_file>  (1) 
generated__ligand_Pocket2Mol_2026-05-06_prepared.sdf

>  <GenAI_Model>  (1) 
Pocket2Mol

>  <Protein>  (1) 
generic_title2

$$$$
Pocket2Mol_14_num_sample_100
     RDKit          3D

  0  0  0  0  0  0  0  0  0  0999 V3000
M  V30 BEGIN CTAB
M  V30 COUNTS 17 17 0 0 1
M  V30 BEGIN ATOM
M  V30 1 C 11.267507 8.340595 -6.521805 0
M  V30 2 O 10.278892 7.325164 -6.655456 0
M  V30 3 C 9.438891 7.520010 -7.787104 0
M  V30 4 C 10.264976 7.454151 -9.081410 0 CFG=1
M  V30 5 O 9.436492 7.704960 -10.195258 0
M  V30 6 C 12.202007 8.325848 -7.742740 0
M  V30 7 C 11.401408 8.486103 -9.039412 0
M  V30 8 H 10.794585 9.317163 -6.407824 0
M  V30 9 H 11.835541 8.160958 -5.609924 0
M  V30 10 H 8.942447 8.488647 -7.705853 0
M  V30 11 H 8.644569 6.766258 -7.800113 0
M  V30 12 H 10.676118 6.454265 -9.209378 0
M  V30 13 H 8.514600 7.775493 -9.891667 0
M  V30 14 H 12.947500 9.113462 -7.655477 0
M  V30 15 H 12.751654 7.383675 -7.766187 0
M  V30 16 H 12.055750 8.350697 -9.897305 0
M  V30 17 H 10.998598 9.498651 -9.110109 0
M  V30 END ATOM
M  V30 BEGIN BOND
M  V30 1 1 2 1
M  V30 2 1 3 2
M  V30 3 1 4 3
M  V30 4 1 5 4
M  V30 5 1 6 1
M  V30 6 1 7 4
M  V30 7 1 7 6
M  V30 8 1 8 1
M  V30 9 1 9 1
M  V30 10 1 10 3
M  V30 11 1 11 3
M  V30 12 1 4 12 CFG=3
M  V30 13 1 13 5
M  V30 14 1 14 6
M  V30 15 1 15 6
M  V30 16 1 16 7
M  V30 17 1 17 7
M  V30 END BOND
M  V30 END CTAB
M  END
>  <i_epik_Tot_Q>  (1) 
0

>  <i_epik_Tot_abs_Q>  (1) 
0

>  <i_i_glide_confnum>  (1) 
1

>  <i_i_glide_lignum>  (1) 
17

>  <i_i_glide_posenum>  (1) 
344

>  <i_i_glide_rotatable_bonds>  (1) 
1

>  <i_lp_mmshare_version>  (1) 
72125

>  <i_m_source_file_index>  (1) 
15

>  <i_f3d_flags>  (1) 
0

>  <num_sample>  (1) 
100

>  <b_lp_Chiralities_Consistent>  (1) 
1

>  <r_epik_Charging_Adjusted_Penalty>  (1) 
0

>  <r_epik_Ionization_Penalty>  (1) 
4.2263924331700322e-08

>  <r_epik_Ionization_Penalty_Charging>  (1) 
0

>  <r_epik_Ionization_Penalty_Neutral>  (1) 
4.2263924331700322e-08

>  <r_epik_State_Penalty>  (1) 
-0

>  <r_glide_ring_energy>  (1) 
0

>  <r_i_docking_score>  (1) 
-5.1039489083109046

>  <r_i_glide_ecoul>  (1) 
-6.381059558890481

>  <r_i_glide_eff_state_penalty>  (1) 
-0

>  <r_i_glide_einternal>  (1) 
1.4439748859600376

>  <r_i_glide_emodel>  (1) 
-23.806237316180901

>  <r_i_glide_emodel_strain>  (1) 
0.86481211689933968

>  <r_i_glide_energy>  (1) 
-18.630194731682117

>  <r_i_glide_erotb>  (1) 
0

>  <r_i_glide_esite>  (1) 
0

>  <r_i_glide_evdw>  (1) 
-12.249135172791634

>  <r_i_glide_gscore>  (1) 
-5.1039489083109046

>  <r_i_glide_gscore_strain>  (1) 
0

>  <r_i_glide_hbond>  (1) 
-0.16

>  <r_i_glide_ligand_efficiency>  (1) 
-0.72913555833012922

>  <r_i_glide_ligand_efficiency_ln>  (1) 
-1.732554168343398

>  <r_i_glide_ligand_efficiency_sa>  (1) 
-1.3947861459978605

>  <r_i_glide_lipo>  (1) 
-0.74933321583775081

>  <r_i_glide_metal>  (1) 
-0

>  <r_i_glide_rewards>  (1) 
-2.625

>  <r_lp_Energy>  (1) 
6.7642049999999996

>  <r_lp_tautomer_probability>  (1) 
1

>  <s_epik_cmdline>  (1) 
J2VwaWtfcHl0aG9uJywgJy1waHQnLCAnMS4wJywgJy1waCcsICc3LjQnLCAnLXRuJywgJzgnLCAnLW1hJywgJzUwMCcsICctaW1hZScsICc8aW5maWxlLm1hZT4nLCAnLW9tYWUnLCAnPG91dGZpbGUubWFlPic=

>  <s_epik_input>  (1) 
W0NIMl0xW0NIMl1bQ0gyXU9bQ0gyXVtDQEhdMVtPSF0=

>  <s_glide_docking_method>  (1) 
confgen

>  <s_i_glide_gridfile>  (1) 
gpcr_drd2_6luq_protein_autoprepared_prepared

>  <s_lp_Force_Field>  (1) 
S-OPLS

>  <s_lp_Variant>  (1) 
Pocket2Mol_14_num_sample_100-1

>  <s_m_source_file>  (1) 
generated__ligand_Pocket2Mol_2026-05-06_prepared.sdf

>  <GenAI_Model>  (1) 
Pocket2Mol

>  <Protein>  (1) 
generic_title2

$$$$
Pocket2Mol_48_num_sample_100
     RDKit          3D

  0  0  0  0  0  0  0  0  0  0999 V3000
M  V30 BEGIN CTAB
M  V30 COUNTS 20 21 0 0 1
M  V30 BEGIN ATOM
M  V30 1 C 9.306711 5.383360 -8.373629 0
M  V30 2 O 9.341737 5.929197 -7.090964 0
M  V30 3 C 10.173897 7.004399 -6.855966 0
M  V30 4 C 10.591616 7.838612 -7.920622 0
M  V30 5 C 11.434294 8.939721 -7.660920 0
M  V30 6 C 10.600629 7.281852 -5.540591 0
M  V30 7 C 11.434261 8.389400 -5.285032 0
M  V30 8 C 10.131122 7.553501 -9.340069 0
M  V30 9 C 11.848792 9.217580 -6.343894 0
M  V30 10 N 9.034839 6.569027 -9.372361 0 CHG=1
M  V30 11 H 10.249449 4.891696 -8.607402 0
M  V30 12 H 8.500732 4.653994 -8.439006 0
M  V30 13 H 11.757704 9.574790 -8.472135 0
M  V30 14 H 10.279796 6.646946 -4.725016 0
M  V30 15 H 11.755711 8.602260 -4.275446 0
M  V30 16 H 9.798974 8.474677 -9.821640 0
M  V30 17 H 10.978265 7.169624 -9.908760 0
M  V30 18 H 12.489682 10.064134 -6.146163 0
M  V30 19 H 8.930257 6.229172 -10.316900 0
M  V30 20 H 8.146698 7.050434 -9.142605 0
M  V30 END ATOM
M  V30 BEGIN BOND
M  V30 1 1 2 1
M  V30 2 1 3 2
M  V30 3 1 4 3
M  V30 4 2 5 4
M  V30 5 2 6 3
M  V30 6 1 7 6
M  V30 7 1 8 4
M  V30 8 1 9 5
M  V30 9 2 9 7
M  V30 10 1 10 1
M  V30 11 1 10 8
M  V30 12 1 11 1
M  V30 13 1 12 1
M  V30 14 1 13 5
M  V30 15 1 14 6
M  V30 16 1 15 7
M  V30 17 1 16 8
M  V30 18 1 17 8
M  V30 19 1 18 9
M  V30 20 1 19 10
M  V30 21 1 20 10
M  V30 END BOND
M  V30 END CTAB
M  END
>  <i_epik_Tot_Q>  (1) 
1

>  <i_epik_Tot_abs_Q>  (1) 
1

>  <i_i_glide_confnum>  (1) 
2

>  <i_i_glide_lignum>  (1) 
55

>  <i_i_glide_posenum>  (1) 
42

>  <i_i_glide_rotatable_bonds>  (1) 
0

>  <i_lp_mmshare_version>  (1) 
72125

>  <i_m_source_file_index>  (1) 
49

>  <i_f3d_flags>  (1) 
0

>  <num_sample>  (1) 
100

>  <b_lp_Chiralities_Consistent>  (1) 
1

>  <r_epik_Charging_Adjusted_Penalty>  (1) 
1.7789378330503367

>  <r_epik_Ionization_Penalty>  (1) 
0.88946891652516835

>  <r_epik_Ionization_Penalty_Charging>  (1) 
0.88946891652516835

>  <r_epik_Ionization_Penalty_Neutral>  (1) 
0

>  <r_epik_State_Penalty>  (1) 
0.88946891652516835

>  <r_glide_ring_energy>  (1) 
2.090668359176616

>  <r_i_docking_score>  (1) 
-5.0982157711584257

>  <r_i_glide_ecoul>  (1) 
-7.1732044111264699

>  <r_i_glide_eff_state_penalty>  (1) 
0.88946891652516835

>  <r_i_glide_einternal>  (1) 
0

>  <r_i_glide_emodel>  (1) 
-36.91010921493185

>  <r_i_glide_emodel_strain>  (1) 
8.3256068705850339e-10

>  <r_i_glide_energy>  (1) 
-23.140525175640377

>  <r_i_glide_erotb>  (1) 
0

>  <r_i_glide_esite>  (1) 
-0.10990758351507873

>  <r_i_glide_evdw>  (1) 
-15.967320764513907

>  <r_i_glide_gscore>  (1) 
-5.9876846876835943

>  <r_i_glide_gscore_strain>  (1) 
0

>  <r_i_glide_hbond>  (1) 
-0.16824205400468734

>  <r_i_glide_ligand_efficiency>  (1) 
-0.50982157711584253

>  <r_i_glide_ligand_efficiency_ln>  (1) 
-1.543704591283219

>  <r_i_glide_ligand_efficiency_sa>  (1) 
-1.0983772914651364

>  <r_i_glide_lipo>  (1) 
-1.0863842420981484

>  <r_i_glide_metal>  (1) 
-0

>  <r_i_glide_rewards>  (1) 
-2.7488041081710142

>  <r_lp_Energy>  (1) 
22.335957999999998

>  <r_lp_tautomer_probability>  (1) 
1

>  <s_epik_Chemistry_Notes>  (1) 
This compound contains an acetal/aminal-like group ( X-CH(R)-Y where X, Y are N, S, or O) that may be acid/base labile, releasing an aldehyde.

>  <s_epik_cmdline>  (1) 
J2VwaWtfcHl0aG9uJywgJy1waHQnLCAnMS4wJywgJy1waCcsICc3LjQnLCAnLXRuJywgJzgnLCAnLW1hJywgJzUwMCcsICctaW1hZScsICc8aW5maWxlLm1hZT4nLCAnLW9tYWUnLCAnPG91dGZpbGUubWFlPic=

>  <s_epik_input>  (1) 
TzFbQ0gyXVtOSF1bQ0gyXWMoYzEyKVtjSF1bY0hdW2NIXVtjSF0y

>  <s_glide_docking_method>  (1) 
confgen

>  <s_i_glide_gridfile>  (1) 
gpcr_drd2_6luq_protein_autoprepared_prepared

>  <s_lp_Force_Field>  (1) 
S-OPLS

>  <s_lp_Variant>  (1) 
Pocket2Mol_48_num_sample_100-2

>  <s_m_source_file>  (1) 
generated__ligand_Pocket2Mol_2026-05-06_prepared.sdf

>  <GenAI_Model>  (1) 
Pocket2Mol

>  <Protein>  (1) 
generic_title2

$$$$
Pocket2Mol_34_num_sample_100
     RDKit          3D

  0  0  0  0  0  0  0  0  0  0999 V3000
M  V30 BEGIN CTAB
M  V30 COUNTS 21 22 0 0 1
M  V30 BEGIN ATOM
M  V30 1 C 11.179140 8.590881 -5.512288 0
M  V30 2 O 10.682298 8.969302 -6.784862 0
M  V30 3 C 11.114756 8.012380 -7.750098 0 CFG=2
M  V30 4 C 12.375676 8.519342 -8.465776 0
M  V30 5 C 9.983951 7.683488 -8.712660 0
M  V30 6 C 11.004859 7.077482 -5.514042 0
M  V30 7 C 9.304340 6.491338 -8.052990 0
M  V30 8 C 11.307985 6.711104 -6.960374 0 CFG=1
M  V30 9 O 10.384023 5.769588 -7.491335 0
M  V30 10 H 10.635042 9.083122 -4.707629 0
M  V30 11 H 12.230763 8.869528 -5.430596 0
M  V30 12 H 12.768430 7.769406 -9.152461 0
M  V30 13 H 12.157702 9.413095 -9.049382 0
M  V30 14 H 13.166915 8.764473 -7.757527 0
M  V30 15 H 10.380559 7.372781 -9.679775 0
M  V30 16 H 9.305045 8.520144 -8.881720 0
M  V30 17 H 9.973922 6.825725 -5.263387 0
M  V30 18 H 11.655140 6.569933 -4.801297 0
M  V30 19 H 8.730306 5.887628 -8.756065 0
M  V30 20 H 8.634769 6.822914 -7.259224 0
M  V30 21 H 12.317141 6.322999 -7.052519 0
M  V30 END ATOM
M  V30 BEGIN BOND
M  V30 1 1 2 1
M  V30 2 1 3 2
M  V30 3 1 3 4 CFG=3
M  V30 4 1 5 3
M  V30 5 1 6 1
M  V30 6 1 7 5
M  V30 7 1 8 3
M  V30 8 1 8 6
M  V30 9 1 9 7
M  V30 10 1 9 8
M  V30 11 1 10 1
M  V30 12 1 11 1
M  V30 13 1 12 4
M  V30 14 1 13 4
M  V30 15 1 14 4
M  V30 16 1 15 5
M  V30 17 1 16 5
M  V30 18 1 17 6
M  V30 19 1 18 6
M  V30 20 1 19 7
M  V30 21 1 20 7
M  V30 22 1 8 21 CFG=1
M  V30 END BOND
M  V30 END CTAB
M  END
>  <i_epik_Tot_Q>  (1) 
0

>  <i_epik_Tot_abs_Q>  (1) 
0

>  <i_i_glide_confnum>  (1) 
2

>  <i_i_glide_lignum>  (1) 
38

>  <i_i_glide_posenum>  (1) 
258

>  <i_i_glide_rotatable_bonds>  (1) 
0

>  <i_lp_mmshare_version>  (1) 
72125

>  <i_m_source_file_index>  (1) 
35

>  <i_f3d_flags>  (1) 
0

>  <num_sample>  (1) 
100

>  <b_lp_Chiralities_Consistent>  (1) 
1

>  <r_epik_Charging_Adjusted_Penalty>  (1) 
0

>  <r_epik_Ionization_Penalty>  (1) 
2.529470820146915e-12

>  <r_epik_Ionization_Penalty_Charging>  (1) 
0

>  <r_epik_Ionization_Penalty_Neutral>  (1) 
2.529470820146915e-12

>  <r_epik_State_Penalty>  (1) 
-0

>  <r_glide_ring_energy>  (1) 
0.058801660810398726

>  <r_i_docking_score>  (1) 
-5.0814501366249676

>  <r_i_glide_ecoul>  (1) 
-0.12019028395202747

>  <r_i_glide_eff_state_penalty>  (1) 
-0

>  <r_i_glide_einternal>  (1) 
0

>  <r_i_glide_emodel>  (1) 
-23.52543554914314

>  <r_i_glide_emodel_strain>  (1) 
0

>  <r_i_glide_energy>  (1) 
-17.714599939464996

>  <r_i_glide_erotb>  (1) 
0

>  <r_i_glide_esite>  (1) 
0

>  <r_i_glide_evdw>  (1) 
-17.594409655512969

>  <r_i_glide_gscore>  (1) 
-5.0814501366249676

>  <r_i_glide_gscore_strain>  (1) 
0

>  <r_i_glide_hbond>  (1) 
0

>  <r_i_glide_ligand_efficiency>  (1) 
-0.56460557073610751

>  <r_i_glide_ligand_efficiency_ln>  (1) 
-1.5893316261376291

>  <r_i_glide_ligand_efficiency_sa>  (1) 
-1.1744269140931649

>  <r_i_glide_lipo>  (1) 
-1.3332232398376644

>  <r_i_glide_metal>  (1) 
-0

>  <r_i_glide_rewards>  (1) 
-2.8504778714188506

>  <r_lp_Energy>  (1) 
-0.369228

>  <r_lp_tautomer_probability>  (1) 
1

>  <s_epik_cmdline>  (1) 
J2VwaWtfcHl0aG9uJywgJy1waHQnLCAnMS4wJywgJy1waCcsICc3LjQnLCAnLXRuJywgJzgnLCAnLW1hJywgJzUwMCcsICctaW1hZScsICc8aW5maWxlLm1hZT4nLCAnLW9tYWUnLCAnPG91dGZpbGUubWFlPic=

>  <s_epik_input>  (1) 
TzFbQ0gyXVtDSDJdW0NASF0oW0NAXTEyW0NIM10pT1tDSDJdW0NIMl0y

>  <s_glide_docking_method>  (1) 
confgen

>  <s_i_glide_gridfile>  (1) 
gpcr_drd2_6luq_protein_autoprepared_prepared

>  <s_lp_Force_Field>  (1) 
S-OPLS

>  <s_lp_Variant>  (1) 
Pocket2Mol_34_num_sample_100-1

>  <s_m_source_file>  (1) 
generated__ligand_Pocket2Mol_2026-05-06_prepared.sdf

>  <GenAI_Model>  (1) 
Pocket2Mol

>  <Protein>  (1) 
generic_title2

$$$$
Pocket2Mol_26_num_sample_100
     RDKit          3D

  0  0  0  0  0  0  0  0  0  0999 V3000
M  V30 BEGIN CTAB
M  V30 COUNTS 15 15 0 0 1
M  V30 BEGIN ATOM
M  V30 1 C 11.782213 9.363072 -4.940143 0
M  V30 2 O 12.755544 9.369300 -3.891656 0
M  V30 3 C 12.355509 8.675570 -2.704617 0
M  V30 4 C 12.163569 7.161382 -2.979338 0 CFG=1
M  V30 5 O 11.434839 6.569302 -1.925112 0
M  V30 6 C 11.261925 7.960451 -5.173748 0
M  V30 7 C 11.434839 6.969301 -4.291823 0
M  V30 8 H 12.244300 9.741102 -5.852298 0
M  V30 9 H 10.951708 10.024683 -4.690607 0
M  V30 10 H 11.434840 9.126137 -2.331395 0
M  V30 11 H 13.108863 8.824431 -1.930609 0
M  V30 12 H 13.132662 6.674538 -3.047590 0
M  V30 13 H 11.383439 5.633490 -2.068382 0
M  V30 14 H 10.729647 7.779133 -6.096495 0
M  V30 15 H 11.045979 5.982860 -4.501712 0
M  V30 END ATOM
M  V30 BEGIN BOND
M  V30 1 1 2 1
M  V30 2 1 3 2
M  V30 3 1 4 3
M  V30 4 1 5 4
M  V30 5 1 6 1
M  V30 6 1 7 4
M  V30 7 2 7 6
M  V30 8 1 8 1
M  V30 9 1 9 1
M  V30 10 1 10 3
M  V30 11 1 11 3
M  V30 12 1 4 12 CFG=3
M  V30 13 1 13 5
M  V30 14 1 14 6
M  V30 15 1 15 7
M  V30 END BOND
M  V30 END CTAB
M  END
>  <i_epik_Tot_Q>  (1) 
0

>  <i_epik_Tot_abs_Q>  (1) 
0

>  <i_i_glide_confnum>  (1) 
1

>  <i_i_glide_lignum>  (1) 
30

>  <i_i_glide_posenum>  (1) 
162

>  <i_i_glide_rotatable_bonds>  (1) 
1

>  <i_lp_mmshare_version>  (1) 
72125

>  <i_m_source_file_index>  (1) 
27

>  <i_f3d_flags>  (1) 
0

>  <num_sample>  (1) 
100

>  <b_lp_Chiralities_Consistent>  (1) 
1

>  <r_epik_Charging_Adjusted_Penalty>  (1) 
0

>  <r_epik_Ionization_Penalty>  (1) 
7.567869706951744e-07

>  <r_epik_Ionization_Penalty_Charging>  (1) 
0

>  <r_epik_Ionization_Penalty_Neutral>  (1) 
7.567869706951744e-07

>  <r_epik_State_Penalty>  (1) 
-0

>  <r_glide_ring_energy>  (1) 
0

>  <r_i_docking_score>  (1) 
-5.0767682395865288

>  <r_i_glide_ecoul>  (1) 
-2.5502116092683713

>  <r_i_glide_eff_state_penalty>  (1) 
-0

>  <r_i_glide_einternal>  (1) 
0.34464561337039601

>  <r_i_glide_emodel>  (1) 
-25.090832344038187

>  <r_i_glide_emodel_strain>  (1) 
0

>  <r_i_glide_energy>  (1) 
-18.703964615801969

>  <r_i_glide_erotb>  (1) 
0

>  <r_i_glide_esite>  (1) 
0

>  <r_i_glide_evdw>  (1) 
-16.153753006533599

>  <r_i_glide_gscore>  (1) 
-5.0767682395865288

>  <r_i_glide_gscore_strain>  (1) 
0

>  <r_i_glide_hbond>  (1) 
0

>  <r_i_glide_ligand_efficiency>  (1) 
-0.72525260565521843

>  <r_i_glide_ligand_efficiency_ln>  (1) 
-1.7233275906987635

>  <r_i_glide_ligand_efficiency_sa>  (1) 
-1.387358324744794

>  <r_i_glide_lipo>  (1) 
-1.5080172561867518

>  <r_i_glide_metal>  (1) 
-0

>  <r_i_glide_rewards>  (1) 
-2.3785315916828407

>  <r_lp_Energy>  (1) 
2.4739009999999997

>  <r_lp_tautomer_probability>  (1) 
1

>  <s_epik_cmdline>  (1) 
J2VwaWtfcHl0aG9uJywgJy1waHQnLCAnMS4wJywgJy1waCcsICc3LjQnLCAnLXRuJywgJzgnLCAnLW1hJywgJzUwMCcsICctaW1hZScsICc8aW5maWxlLm1hZT4nLCAnLW9tYWUnLCAnPG91dGZpbGUubWFlPic=

>  <s_epik_input>  (1) 
W0NIXTE9W0NIXVtDSDJdT1tDSDJdW0NASF0xW09IXQ==

>  <s_glide_docking_method>  (1) 
confgen

>  <s_i_glide_gridfile>  (1) 
gpcr_drd2_6luq_protein_autoprepared_prepared

>  <s_lp_Force_Field>  (1) 
S-OPLS

>  <s_lp_Variant>  (1) 
Pocket2Mol_26_num_sample_100-1

>  <s_m_source_file>  (1) 
generated__ligand_Pocket2Mol_2026-05-06_prepared.sdf

>  <GenAI_Model>  (1) 
Pocket2Mol

>  <Protein>  (1) 
generic_title2

$$$$
Pocket2Mol_26_num_sample_100
     RDKit          3D

  0  0  0  0  0  0  0  0  0  0999 V3000
M  V30 BEGIN CTAB
M  V30 COUNTS 15 15 0 0 1
M  V30 BEGIN ATOM
M  V30 1 C 9.942730 7.435918 -7.364739 0
M  V30 2 O 10.785864 8.536660 -7.001114 0
M  V30 3 C 12.041933 8.569302 -7.685168 0
M  V30 4 C 11.835068 8.799492 -9.203236 0 CFG=1
M  V30 5 O 13.034799 8.569301 -9.917934 0
M  V30 6 C 9.880940 7.278034 -8.868989 0
M  V30 7 C 10.732883 7.892882 -9.695953 0
M  V30 8 H 8.940244 7.611670 -6.973049 0
M  V30 9 H 10.314200 6.512034 -6.919788 0
M  V30 10 H 12.566004 7.629252 -7.505020 0
M  V30 11 H 12.657510 9.359898 -7.256704 0
M  V30 12 H 11.517574 9.825191 -9.390321 0
M  V30 13 H 13.570457 9.357247 -9.891623 0
M  V30 14 H 9.105450 6.637449 -9.265293 0
M  V30 15 H 10.648264 7.753491 -10.763605 0
M  V30 END ATOM
M  V30 BEGIN BOND
M  V30 1 1 2 1
M  V30 2 1 3 2
M  V30 3 1 4 3
M  V30 4 1 5 4
M  V30 5 1 6 1
M  V30 6 1 7 4
M  V30 7 2 7 6
M  V30 8 1 8 1
M  V30 9 1 9 1
M  V30 10 1 10 3
M  V30 11 1 11 3
M  V30 12 1 4 12 CFG=1
M  V30 13 1 13 5
M  V30 14 1 14 6
M  V30 15 1 15 7
M  V30 END BOND
M  V30 END CTAB
M  END
>  <i_epik_Tot_Q>  (1) 
0

>  <i_epik_Tot_abs_Q>  (1) 
0

>  <i_i_glide_confnum>  (1) 
1

>  <i_i_glide_lignum>  (1) 
30

>  <i_i_glide_posenum>  (1) 
13

>  <i_i_glide_rotatable_bonds>  (1) 
1

>  <i_lp_mmshare_version>  (1) 
72125

>  <i_m_source_file_index>  (1) 
27

>  <i_f3d_flags>  (1) 
0

>  <num_sample>  (1) 
100

>  <b_lp_Chiralities_Consistent>  (1) 
1

>  <r_epik_Charging_Adjusted_Penalty>  (1) 
0

>  <r_epik_Ionization_Penalty>  (1) 
7.567869706951744e-07

>  <r_epik_Ionization_Penalty_Charging>  (1) 
0

>  <r_epik_Ionization_Penalty_Neutral>  (1) 
7.567869706951744e-07

>  <r_epik_State_Penalty>  (1) 
-0

>  <r_glide_ring_energy>  (1) 
0

>  <r_i_docking_score>  (1) 
-5.0639944515403243

>  <r_i_glide_ecoul>  (1) 
-5.4052007345478703

>  <r_i_glide_eff_state_penalty>  (1) 
-0

>  <r_i_glide_einternal>  (1) 
0.66621620436312967

>  <r_i_glide_emodel>  (1) 
-25.491833548181276

>  <r_i_glide_emodel_strain>  (1) 
0.018508885278397447

>  <r_i_glide_energy>  (1) 
-19.300763749895218

>  <r_i_glide_erotb>  (1) 
0

>  <r_i_glide_esite>  (1) 
0

>  <r_i_glide_evdw>  (1) 
-13.895563015347346

>  <r_i_glide_gscore>  (1) 
-5.0639944515403243

>  <r_i_glide_gscore_strain>  (1) 
0

>  <r_i_glide_hbond>  (1) 
-0.32000000000000001

>  <r_i_glide_ligand_efficiency>  (1) 
-0.72342777879147491

>  <r_i_glide_ligand_efficiency_ln>  (1) 
-1.7189914815169201

>  <r_i_glide_ligand_efficiency_sa>  (1) 
-1.3838675565339784

>  <r_i_glide_lipo>  (1) 
-0.60510285725744373

>  <r_i_glide_metal>  (1) 
-0

>  <r_i_glide_rewards>  (1) 
-2.6333333333333333

>  <r_lp_Energy>  (1) 
2.4739009999999997

>  <r_lp_tautomer_probability>  (1) 
1

>  <s_epik_cmdline>  (1) 
J2VwaWtfcHl0aG9uJywgJy1waHQnLCAnMS4wJywgJy1waCcsICc3LjQnLCAnLXRuJywgJzgnLCAnLW1hJywgJzUwMCcsICctaW1hZScsICc8aW5maWxlLm1hZT4nLCAnLW9tYWUnLCAnPG91dGZpbGUubWFlPic=

>  <s_epik_input>  (1) 
W0NIXTE9W0NIXVtDSDJdT1tDSDJdW0NASF0xW09IXQ==

>  <s_glide_docking_method>  (1) 
confgen

>  <s_i_glide_gridfile>  (1) 
gpcr_drd2_6luq_protein_autoprepared_prepared

>  <s_lp_Force_Field>  (1) 
S-OPLS

>  <s_lp_Variant>  (1) 
Pocket2Mol_26_num_sample_100-1

>  <s_m_source_file>  (1) 
generated__ligand_Pocket2Mol_2026-05-06_prepared.sdf

>  <GenAI_Model>  (1) 
Pocket2Mol

>  <Protein>  (1) 
generic_title2

$$$$
Pocket2Mol_80_num_sample_100
     RDKit          3D

  0  0  0  0  0  0  0  0  0  0999 V3000
M  V30 BEGIN CTAB
M  V30 COUNTS 19 20 0 0 1
M  V30 BEGIN ATOM
M  V30 1 C 9.242398 6.256977 -11.103649 0
M  V30 2 O 10.110376 7.453584 -11.040372 0
M  V30 3 C 10.372905 7.535628 -9.717179 0
M  V30 4 C 9.834841 6.562762 -8.949682 0
M  V30 5 C 10.032704 6.528164 -7.558959 0
M  V30 6 C 9.038653 5.568132 -9.676455 0
M  V30 7 C 10.810293 7.544478 -6.950155 0
M  V30 8 N 11.034839 7.539282 -5.491664 0 CHG=1
M  V30 9 O 10.634839 6.569302 -4.858496 0 CHG=-1
M  V30 10 O 11.614078 8.505693 -5.002355 0
M  V30 11 C 11.372913 8.569303 -7.758988 0
M  V30 12 C 11.152843 8.560253 -9.154698 0
M  V30 13 H 8.275014 6.558339 -11.507464 0
M  V30 14 H 9.669093 5.544257 -11.810244 0
M  V30 15 H 9.591963 5.742078 -6.964431 0
M  V30 16 H 9.475483 4.571226 -9.613924 0
M  V30 17 H 7.998135 5.563240 -9.348740 0
M  V30 18 H 11.968647 9.351363 -7.311943 0
M  V30 19 H 11.576593 9.331900 -9.780670 0
M  V30 END ATOM
M  V30 BEGIN BOND
M  V30 1 1 2 1
M  V30 2 1 3 2
M  V30 3 2 4 3
M  V30 4 1 5 4
M  V30 5 1 6 1
M  V30 6 1 6 4
M  V30 7 2 7 5
M  V30 8 1 8 7
M  V30 9 1 9 8
M  V30 10 2 10 8
M  V30 11 1 11 7
M  V30 12 1 12 3
M  V30 13 2 12 11
M  V30 14 1 13 1
M  V30 15 1 14 1
M  V30 16 1 15 5
M  V30 17 1 16 6
M  V30 18 1 17 6
M  V30 19 1 18 11
M  V30 20 1 19 12
M  V30 END BOND
M  V30 END CTAB
M  END
>  <i_epik_Tot_Q>  (1) 
0

>  <i_epik_Tot_abs_Q>  (1) 
2

>  <i_i_glide_confnum>  (1) 
1

>  <i_i_glide_lignum>  (1) 
87

>  <i_i_glide_posenum>  (1) 
360

>  <i_i_glide_rotatable_bonds>  (1) 
1

>  <i_lp_mmshare_version>  (1) 
72125

>  <i_m_source_file_index>  (1) 
81

>  <i_f3d_flags>  (1) 
0

>  <num_sample>  (1) 
100

>  <b_lp_Chiralities_Consistent>  (1) 
1

>  <r_epik_Charging_Adjusted_Penalty>  (1) 
0

>  <r_epik_Ionization_Penalty>  (1) 
0

>  <r_epik_Ionization_Penalty_Charging>  (1) 
0

>  <r_epik_Ionization_Penalty_Neutral>  (1) 
0

>  <r_epik_State_Penalty>  (1) 
-0

>  <r_glide_ring_energy>  (1) 
0

>  <r_i_docking_score>  (1) 
-5.0565971826810756

>  <r_i_glide_ecoul>  (1) 
-0.75039348786975701

>  <r_i_glide_eff_state_penalty>  (1) 
-0

>  <r_i_glide_einternal>  (1) 
0.45815314911594096

>  <r_i_glide_emodel>  (1) 
-32.239168385634891

>  <r_i_glide_emodel_strain>  (1) 
0

>  <r_i_glide_energy>  (1) 
-24.160092239793379

>  <r_i_glide_erotb>  (1) 
0

>  <r_i_glide_esite>  (1) 
0

>  <r_i_glide_evdw>  (1) 
-23.409698751923621

>  <r_i_glide_gscore>  (1) 
-5.0565971826810756

>  <r_i_glide_gscore_strain>  (1) 
0

>  <r_i_glide_hbond>  (1) 
0

>  <r_i_glide_ligand_efficiency>  (1) 
-0.42138309855675632

>  <r_i_glide_ligand_efficiency_ln>  (1) 
-1.4509993210259124

>  <r_i_glide_ligand_efficiency_sa>  (1) 
-0.96472646897834669

>  <r_i_glide_lipo>  (1) 
-0.62927313253165129

>  <r_i_glide_metal>  (1) 
-0

>  <r_i_glide_rewards>  (1) 
-3.1442800893727791

>  <r_lp_Energy>  (1) 
14.797289999999998

>  <r_lp_tautomer_probability>  (1) 
1

>  <s_epik_cmdline>  (1) 
J2VwaWtfcHl0aG9uJywgJy1waHQnLCAnMS4wJywgJy1waCcsICc3LjQnLCAnLXRuJywgJzgnLCAnLW1hJywgJzUwMCcsICctaW1hZScsICc8aW5maWxlLm1hZT4nLCAnLW9tYWUnLCAnPG91dGZpbGUubWFlPic=

>  <s_epik_input>  (1) 
TzFbQ0gyXVtDSDJdYyhjMTIpW2NIXWMoW04rXShbTy1dKT1PKVtjSF1bY0hdMg==

>  <s_glide_docking_method>  (1) 
confgen

>  <s_i_glide_gridfile>  (1) 
gpcr_drd2_6luq_protein_autoprepared_prepared

>  <s_lp_Force_Field>  (1) 
S-OPLS

>  <s_lp_Variant>  (1) 
Pocket2Mol_80_num_sample_100-1

>  <s_m_source_file>  (1) 
generated__ligand_Pocket2Mol_2026-05-06_prepared.sdf

>  <GenAI_Model>  (1) 
Pocket2Mol

>  <Protein>  (1) 
generic_title2

$$$$
Pocket2Mol_78_num_sample_100
     RDKit          3D

  0  0  0  0  0  0  0  0  0  0999 V3000
M  V30 BEGIN CTAB
M  V30 COUNTS 22 23 0 0 1
M  V30 BEGIN ATOM
M  V30 1 C 12.634818 8.758343 -10.088603 0
M  V30 2 O 11.629849 7.774097 -10.295264 0
M  V30 3 C 10.947070 7.369311 -9.167539 0
M  V30 4 C 13.434839 8.370082 -8.847890 0
M  V30 5 O 12.566920 8.462616 -7.730815 0
M  V30 6 C 11.415649 7.723616 -7.873434 0
M  V30 7 C 10.704612 7.306236 -6.729522 0
M  V30 8 O 11.158502 7.656318 -5.479243 0
M  V30 9 C 9.784788 6.589583 -9.301386 0
M  V30 10 C 9.079861 6.169286 -8.158157 0
M  V30 11 C 9.532390 6.531279 -6.876047 0
M  V30 12 C 11.223070 6.601673 -4.529183 0
M  V30 13 H 13.284035 8.794801 -10.963679 0
M  V30 14 H 12.186819 9.745466 -9.967684 0
M  V30 15 H 13.834933 7.369301 -8.960202 0
M  V30 16 H 14.310130 8.985493 -8.691616 0
M  V30 17 H 9.428432 6.316439 -10.283680 0
M  V30 18 H 8.182695 5.577003 -8.265957 0
M  V30 19 H 8.980160 6.211751 -6.005930 0
M  V30 20 H 11.732062 6.953942 -3.632336 0
M  V30 21 H 10.240474 6.239845 -4.227180 0
M  V30 22 H 11.801783 5.769299 -4.927190 0
M  V30 END ATOM
M  V30 BEGIN BOND
M  V30 1 1 2 1
M  V30 2 1 3 2
M  V30 3 1 4 1
M  V30 4 1 5 4
M  V30 5 1 6 3
M  V30 6 1 6 5
M  V30 7 2 7 6
M  V30 8 1 8 7
M  V30 9 2 9 3
M  V30 10 1 10 9
M  V30 11 1 11 7
M  V30 12 2 11 10
M  V30 13 1 12 8
M  V30 14 1 13 1
M  V30 15 1 14 1
M  V30 16 1 15 4
M  V30 17 1 16 4
M  V30 18 1 17 9
M  V30 19 1 18 10
M  V30 20 1 19 11
M  V30 21 1 20 12
M  V30 22 1 21 12
M  V30 23 1 22 12
M  V30 END BOND
M  V30 END CTAB
M  END
>  <i_epik_Tot_Q>  (1) 
0

>  <i_epik_Tot_abs_Q>  (1) 
0

>  <i_i_glide_confnum>  (1) 
2

>  <i_i_glide_lignum>  (1) 
85

>  <i_i_glide_posenum>  (1) 
112

>  <i_i_glide_rotatable_bonds>  (1) 
1

>  <i_lp_mmshare_version>  (1) 
72125

>  <i_m_source_file_index>  (1) 
79

>  <i_f3d_flags>  (1) 
0

>  <num_sample>  (1) 
100

>  <b_lp_Chiralities_Consistent>  (1) 
1

>  <r_epik_Charging_Adjusted_Penalty>  (1) 
0

>  <r_epik_Ionization_Penalty>  (1) 
0

>  <r_epik_Ionization_Penalty_Charging>  (1) 
0

>  <r_epik_Ionization_Penalty_Neutral>  (1) 
0

>  <r_epik_State_Penalty>  (1) 
-0

>  <r_glide_ring_energy>  (1) 
0.0030884499939853893

>  <r_i_docking_score>  (1) 
-5.0498076042735676

>  <r_i_glide_ecoul>  (1) 
-1.999441943967692

>  <r_i_glide_eff_state_penalty>  (1) 
-0

>  <r_i_glide_einternal>  (1) 
2.16758327306809

>  <r_i_glide_emodel>  (1) 
-27.077714454260196

>  <r_i_glide_emodel_strain>  (1) 
0.82170053560324163

>  <r_i_glide_energy>  (1) 
-22.889387234920175

>  <r_i_glide_erotb>  (1) 
0

>  <r_i_glide_esite>  (1) 
0

>  <r_i_glide_evdw>  (1) 
-20.889945290952483

>  <r_i_glide_gscore>  (1) 
-5.0498076042735676

>  <r_i_glide_gscore_strain>  (1) 
0

>  <r_i_glide_hbond>  (1) 
0

>  <r_i_glide_ligand_efficiency>  (1) 
-0.42081730035613063

>  <r_i_glide_ligand_efficiency_ln>  (1) 
-1.4490510397404091

>  <r_i_glide_ligand_efficiency_sa>  (1) 
-0.96343111446101215

>  <r_i_glide_lipo>  (1) 
-0.75073185349141902

>  <r_i_glide_metal>  (1) 
-0

>  <r_i_glide_rewards>  (1) 
-2.9546621946393703

>  <r_lp_Energy>  (1) 
20.318058000000001

>  <r_lp_tautomer_probability>  (1) 
1

>  <s_epik_cmdline>  (1) 
J2VwaWtfcHl0aG9uJywgJy1waHQnLCAnMS4wJywgJy1waCcsICc3LjQnLCAnLXRuJywgJzgnLCAnLW1hJywgJzUwMCcsICctaW1hZScsICc8aW5maWxlLm1hZT4nLCAnLW9tYWUnLCAnPG91dGZpbGUubWFlPic=

>  <s_epik_input>  (1) 
TzFbQ0gyXVtDSDJdT2MoYzEyKWMoT1tDSDNdKVtjSF1bY0hdW2NIXTI=

>  <s_glide_docking_method>  (1) 
confgen

>  <s_i_glide_gridfile>  (1) 
gpcr_drd2_6luq_protein_autoprepared_prepared

>  <s_lp_Force_Field>  (1) 
S-OPLS

>  <s_lp_Variant>  (1) 
Pocket2Mol_78_num_sample_100-1

>  <s_m_source_file>  (1) 
generated__ligand_Pocket2Mol_2026-05-06_prepared.sdf

>  <GenAI_Model>  (1) 
Pocket2Mol

>  <Protein>  (1) 
generic_title2

$$$$
Pocket2Mol_85_num_sample_100
     RDKit          3D

  0  0  0  0  0  0  0  0  0  0999 V3000
M  V30 BEGIN CTAB
M  V30 COUNTS 22 23 0 0 1
M  V30 BEGIN ATOM
M  V30 1 C 11.475725 8.219204 -4.707693 0
M  V30 2 O 12.203789 8.970062 -5.663324 0
M  V30 3 C 10.913242 6.907988 -5.286601 0
M  V30 4 O 9.834922 7.122037 -6.188131 0
M  V30 5 C 11.365678 9.537682 -6.650873 0
M  V30 6 C 10.221587 7.429645 -7.467657 0
M  V30 7 C 9.861458 6.613448 -8.551150 0
M  V30 8 C 10.979512 8.568730 -7.744771 0
M  V30 9 C 9.024656 5.365675 -8.343390 0
M  V30 10 N 10.234404 6.883997 -9.830536 0
M  V30 11 N 11.000764 7.963479 -10.091436 0
M  V30 12 C 11.349401 8.798148 -9.079587 0
M  V30 13 H 12.156645 7.975595 -3.891579 0
M  V30 14 H 10.700075 8.857565 -4.291772 0
M  V30 15 H 11.704108 6.314195 -5.749671 0
M  V30 16 H 10.515847 6.299203 -4.474233 0
M  V30 17 H 10.454271 9.920872 -6.196664 0
M  V30 18 H 11.834860 10.411539 -7.089716 0
M  V30 19 H 8.439096 5.416116 -7.424913 0
M  V30 20 H 9.669798 4.489481 -8.291667 0
M  V30 21 H 8.324719 5.234830 -9.169748 0
M  V30 22 H 11.929146 9.669692 -9.349679 0
M  V30 END ATOM
M  V30 BEGIN BOND
M  V30 1 1 2 1
M  V30 2 1 3 1
M  V30 3 1 4 3
M  V30 4 1 5 2
M  V30 5 1 6 4
M  V30 6 1 7 6
M  V30 7 1 8 5
M  V30 8 2 8 6
M  V30 9 1 9 7
M  V30 10 2 10 7
M  V30 11 1 11 10
M  V30 12 1 12 8
M  V30 13 2 12 11
M  V30 14 1 13 1
M  V30 15 1 14 1
M  V30 16 1 15 3
M  V30 17 1 16 3
M  V30 18 1 17 5
M  V30 19 1 18 5
M  V30 20 1 19 9
M  V30 21 1 20 9
M  V30 22 1 21 9
M  V30 23 1 22 12
M  V30 END BOND
M  V30 END CTAB
M  END
>  <i_epik_Tot_Q>  (1) 
0

>  <i_epik_Tot_abs_Q>  (1) 
0

>  <i_i_glide_confnum>  (1) 
1

>  <i_i_glide_lignum>  (1) 
92

>  <i_i_glide_posenum>  (1) 
74

>  <i_i_glide_rotatable_bonds>  (1) 
0

>  <i_lp_mmshare_version>  (1) 
72125

>  <i_m_source_file_index>  (1) 
86

>  <i_f3d_flags>  (1) 
0

>  <num_sample>  (1) 
100

>  <b_lp_Chiralities_Consistent>  (1) 
1

>  <r_epik_Charging_Adjusted_Penalty>  (1) 
0.0091269655628041547

>  <r_epik_Ionization_Penalty>  (1) 
0.0091374853106045584

>  <r_epik_Ionization_Penalty_Charging>  (1) 
0

>  <r_epik_Ionization_Penalty_Neutral>  (1) 
0.0091374853106045584

>  <r_epik_State_Penalty>  (1) 
0.0091269655628041547

>  <r_glide_ring_energy>  (1) 
0

>  <r_i_docking_score>  (1) 
-5.0477132176607418

>  <r_i_glide_ecoul>  (1) 
0.006656832275006741

>  <r_i_glide_eff_state_penalty>  (1) 
0.0091269655628041547

>  <r_i_glide_einternal>  (1) 
0

>  <r_i_glide_emodel>  (1) 
-25.381708134764434

>  <r_i_glide_emodel_strain>  (1) 
0.10619722742661608

>  <r_i_glide_energy>  (1) 
-19.14246628165122

>  <r_i_glide_erotb>  (1) 
0

>  <r_i_glide_esite>  (1) 
-0.054357288971914997

>  <r_i_glide_evdw>  (1) 
-19.149123113926226

>  <r_i_glide_gscore>  (1) 
-5.0568401832235459

>  <r_i_glide_gscore_strain>  (1) 
0

>  <r_i_glide_hbond>  (1) 
0

>  <r_i_glide_ligand_efficiency>  (1) 
-0.42064276813839513

>  <r_i_glide_ligand_efficiency_ln>  (1) 
-1.4484500518737891

>  <r_i_glide_ligand_efficiency_sa>  (1) 
-0.96303153543015962

>  <r_i_glide_lipo>  (1) 
-1.1518926841501782

>  <r_i_glide_metal>  (1) 
-0

>  <r_i_glide_rewards>  (1) 
-2.8941325792463921

>  <r_lp_Energy>  (1) 
19.395567

>  <r_lp_tautomer_probability>  (1) 
1

>  <s_epik_cmdline>  (1) 
J2VwaWtfcHl0aG9uJywgJy1waHQnLCAnMS4wJywgJy1waCcsICc3LjQnLCAnLXRuJywgJzgnLCAnLW1hJywgJzUwMCcsICctaW1hZScsICc8aW5maWxlLm1hZT4nLCAnLW9tYWUnLCAnPG91dGZpbGUubWFlPic=

>  <s_epik_input>  (1) 
TzFbQ0gyXVtDSDJdT1tDSDJdYyhjMTIpW2NIXW5uYzJbQ0gzXQ==

>  <s_glide_docking_method>  (1) 
confgen

>  <s_i_glide_gridfile>  (1) 
gpcr_drd2_6luq_protein_autoprepared_prepared

>  <s_lp_Force_Field>  (1) 
S-OPLS

>  <s_lp_Variant>  (1) 
Pocket2Mol_85_num_sample_100-1

>  <s_m_source_file>  (1) 
generated__ligand_Pocket2Mol_2026-05-06_prepared.sdf

>  <GenAI_Model>  (1) 
Pocket2Mol

>  <Protein>  (1) 
generic_title2

$$$$
Pocket2Mol_29_num_sample_100
     RDKit          3D

  0  0  0  0  0  0  0  0  0  0999 V3000
M  V30 BEGIN CTAB
M  V30 COUNTS 18 18 0 0 1
M  V30 BEGIN ATOM
M  V30 1 C 11.243189 8.388533 -5.563384 0
M  V30 2 O 11.281093 9.089080 -6.797603 0
M  V30 3 C 11.655456 8.376316 -7.968266 0
M  V30 4 C 10.449999 7.647294 -8.601458 0
M  V30 5 O 9.435451 8.569579 -8.964085 0
M  V30 6 C 10.711215 6.940630 -5.615028 0
M  V30 7 C 9.888134 6.463813 -7.805977 0
M  V30 8 O 9.580494 6.794890 -6.458866 0
M  V30 9 H 12.231733 8.406302 -5.107532 0
M  V30 10 H 10.629006 8.990355 -4.900014 0
M  V30 11 H 12.465401 7.683119 -7.738865 0
M  V30 12 H 12.069542 9.096987 -8.674920 0
M  V30 13 H 10.807323 7.230403 -9.546380 0
M  V30 14 H 8.575755 8.153183 -9.091667 0
M  V30 15 H 11.501348 6.234795 -5.874046 0
M  V30 16 H 10.393229 6.650597 -4.612354 0
M  V30 17 H 8.997649 6.065196 -8.288046 0
M  V30 18 H 10.610929 5.647677 -7.818929 0
M  V30 END ATOM
M  V30 BEGIN BOND
M  V30 1 1 2 1
M  V30 2 1 3 2
M  V30 3 1 4 3
M  V30 4 1 5 4
M  V30 5 1 6 1
M  V30 6 1 7 4
M  V30 7 1 8 6
M  V30 8 1 8 7
M  V30 9 1 9 1
M  V30 10 1 10 1
M  V30 11 1 11 3
M  V30 12 1 12 3
M  V30 13 1 13 4
M  V30 14 1 14 5
M  V30 15 1 15 6
M  V30 16 1 16 6
M  V30 17 1 17 7
M  V30 18 1 18 7
M  V30 END BOND
M  V30 END CTAB
M  END
>  <i_epik_Tot_Q>  (1) 
0

>  <i_epik_Tot_abs_Q>  (1) 
0

>  <i_i_glide_confnum>  (1) 
11

>  <i_i_glide_lignum>  (1) 
33

>  <i_i_glide_posenum>  (1) 
159

>  <i_i_glide_rotatable_bonds>  (1) 
1

>  <i_lp_mmshare_version>  (1) 
72125

>  <i_m_source_file_index>  (1) 
30

>  <i_f3d_flags>  (1) 
0

>  <num_sample>  (1) 
100

>  <b_lp_Chiralities_Consistent>  (1) 
1

>  <r_epik_Charging_Adjusted_Penalty>  (1) 
0

>  <r_epik_Ionization_Penalty>  (1) 
1.4561355789117501e-07

>  <r_epik_Ionization_Penalty_Charging>  (1) 
0

>  <r_epik_Ionization_Penalty_Neutral>  (1) 
1.4561355789117501e-07

>  <r_epik_State_Penalty>  (1) 
-0

>  <r_glide_ring_energy>  (1) 
0.7060708747243859

>  <r_i_docking_score>  (1) 
-5.0470062240128764

>  <r_i_glide_ecoul>  (1) 
-4.1442600670885081

>  <r_i_glide_eff_state_penalty>  (1) 
-0

>  <r_i_glide_einternal>  (1) 
0.5273549805045068

>  <r_i_glide_emodel>  (1) 
-26.454417647351889

>  <r_i_glide_emodel_strain>  (1) 
0.092052139485627293

>  <r_i_glide_energy>  (1) 
-19.561385533854967

>  <r_i_glide_erotb>  (1) 
0

>  <r_i_glide_esite>  (1) 
0

>  <r_i_glide_evdw>  (1) 
-15.417125466766457

>  <r_i_glide_gscore>  (1) 
-5.0470062240128764

>  <r_i_glide_gscore_strain>  (1) 
0

>  <r_i_glide_hbond>  (1) 
-0.16

>  <r_i_glide_ligand_efficiency>  (1) 
-0.63087577800160954

>  <r_i_glide_ligand_efficiency_ln>  (1) 
-1.638935552340355

>  <r_i_glide_ligand_efficiency_sa>  (1) 
-1.2617515560032193

>  <r_i_glide_lipo>  (1) 
-0.83808600755204876

>  <r_i_glide_metal>  (1) 
-0

>  <r_i_glide_rewards>  (1) 
-2.6564249330592289

>  <r_lp_Energy>  (1) 
13.809562999999999

>  <r_lp_tautomer_probability>  (1) 
1

>  <s_epik_cmdline>  (1) 
J2VwaWtfcHl0aG9uJywgJy1waHQnLCAnMS4wJywgJy1waCcsICc3LjQnLCAnLXRuJywgJzgnLCAnLW1hJywgJzUwMCcsICctaW1hZScsICc8aW5maWxlLm1hZT4nLCAnLW9tYWUnLCAnPG91dGZpbGUubWFlPic=

>  <s_epik_input>  (1) 
W0NIMl0xT1tDSDJdW0NIMl1PW0NIMl1bQ0hdMVtPSF0=

>  <s_glide_docking_method>  (1) 
confgen

>  <s_i_glide_gridfile>  (1) 
gpcr_drd2_6luq_protein_autoprepared_prepared

>  <s_lp_Force_Field>  (1) 
S-OPLS

>  <s_lp_Variant>  (1) 
Pocket2Mol_29_num_sample_100-1

>  <s_m_source_file>  (1) 
generated__ligand_Pocket2Mol_2026-05-06_prepared.sdf

>  <GenAI_Model>  (1) 
Pocket2Mol

>  <Protein>  (1) 
generic_title2

$$$$
Pocket2Mol_72_num_sample_100
     RDKit          3D

  0  0  0  0  0  0  0  0  0  0999 V3000
M  V30 BEGIN CTAB
M  V30 COUNTS 18 19 0 0 1
M  V30 BEGIN ATOM
M  V30 1 C 8.960398 5.005185 -10.134497 0
M  V30 2 O 8.785344 5.442010 -8.794497 0
M  V30 3 C 9.621932 6.454128 -8.375338 0
M  V30 4 C 9.740788 6.733403 -6.999579 0
M  V30 5 C 9.127207 6.206048 -11.068364 0
M  V30 6 C 10.363535 7.220377 -9.316769 0
M  V30 7 O 10.255354 6.969301 -10.668332 0
M  V30 8 C 10.599293 7.757269 -6.556035 0
M  V30 9 C 11.221738 8.244573 -8.863883 0
M  V30 10 F 11.932049 8.976299 -9.754694 0
M  V30 11 C 11.340413 8.509669 -7.486145 0
M  V30 12 H 9.825507 4.345196 -10.187411 0
M  V30 13 H 8.090550 4.415708 -10.428206 0
M  V30 14 H 9.173203 6.160400 -6.282776 0
M  V30 15 H 9.292770 5.861922 -12.089384 0
M  V30 16 H 8.234838 6.832911 -11.090643 0
M  V30 17 H 10.688722 7.965219 -5.500072 0
M  V30 18 H 11.998105 9.293826 -7.143502 0
M  V30 END ATOM
M  V30 BEGIN BOND
M  V30 1 1 2 1
M  V30 2 1 3 2
M  V30 3 2 4 3
M  V30 4 1 5 1
M  V30 5 1 6 3
M  V30 6 1 7 5
M  V30 7 1 7 6
M  V30 8 1 8 4
M  V30 9 2 9 6
M  V30 10 1 10 9
M  V30 11 2 11 8
M  V30 12 1 11 9
M  V30 13 1 12 1
M  V30 14 1 13 1
M  V30 15 1 14 4
M  V30 16 1 15 5
M  V30 17 1 16 5
M  V30 18 1 17 8
M  V30 19 1 18 11
M  V30 END BOND
M  V30 END CTAB
M  END
>  <i_epik_Tot_Q>  (1) 
0

>  <i_epik_Tot_abs_Q>  (1) 
0

>  <i_i_glide_confnum>  (1) 
1

>  <i_i_glide_lignum>  (1) 
79

>  <i_i_glide_posenum>  (1) 
89

>  <i_i_glide_rotatable_bonds>  (1) 
0

>  <i_lp_mmshare_version>  (1) 
72125

>  <i_m_source_file_index>  (1) 
73

>  <i_f3d_flags>  (1) 
0

>  <num_sample>  (1) 
100

>  <b_lp_Chiralities_Consistent>  (1) 
1

>  <r_epik_Charging_Adjusted_Penalty>  (1) 
0

>  <r_epik_Ionization_Penalty>  (1) 
0

>  <r_epik_Ionization_Penalty_Charging>  (1) 
0

>  <r_epik_Ionization_Penalty_Neutral>  (1) 
0

>  <r_epik_State_Penalty>  (1) 
-0

>  <r_glide_ring_energy>  (1) 
0

>  <r_i_docking_score>  (1) 
-5.0379957320940258

>  <r_i_glide_ecoul>  (1) 
-0.33138107165302078

>  <r_i_glide_eff_state_penalty>  (1) 
-0

>  <r_i_glide_einternal>  (1) 
0

>  <r_i_glide_emodel>  (1) 
-26.625878422621085

>  <r_i_glide_emodel_strain>  (1) 
0

>  <r_i_glide_energy>  (1) 
-20.026343962532454

>  <r_i_glide_erotb>  (1) 
0

>  <r_i_glide_esite>  (1) 
0

>  <r_i_glide_evdw>  (1) 
-19.694962890879435

>  <r_i_glide_gscore>  (1) 
-5.0379957320940258

>  <r_i_glide_gscore_strain>  (1) 
0

>  <r_i_glide_hbond>  (1) 
0

>  <r_i_glide_ligand_efficiency>  (1) 
-0.45799961200854783

>  <r_i_glide_ligand_efficiency_ln>  (1) 
-1.4826812858022353

>  <r_i_glide_ligand_efficiency_sa>  (1) 
-1.0185820185954817

>  <r_i_glide_lipo>  (1) 
-0.64206000077539938

>  <r_i_glide_metal>  (1) 
-0

>  <r_i_glide_rewards>  (1) 
-3.3614804260267013

>  <r_lp_Energy>  (1) 
17.335863

>  <r_lp_tautomer_probability>  (1) 
1

>  <s_epik_cmdline>  (1) 
J2VwaWtfcHl0aG9uJywgJy1waHQnLCAnMS4wJywgJy1waCcsICc3LjQnLCAnLXRuJywgJzgnLCAnLW1hJywgJzUwMCcsICctaW1hZScsICc8aW5maWxlLm1hZT4nLCAnLW9tYWUnLCAnPG91dGZpbGUubWFlPic=

>  <s_epik_input>  (1) 
TzFbQ0gyXVtDSDJdT2MoYzEyKWMoRilbY0hdW2NIXVtjSF0y

>  <s_glide_docking_method>  (1) 
confgen

>  <s_i_glide_gridfile>  (1) 
gpcr_drd2_6luq_protein_autoprepared_prepared

>  <s_lp_Force_Field>  (1) 
S-OPLS

>  <s_lp_Variant>  (1) 
Pocket2Mol_72_num_sample_100-1

>  <s_m_source_file>  (1) 
generated__ligand_Pocket2Mol_2026-05-06_prepared.sdf

>  <GenAI_Model>  (1) 
Pocket2Mol

>  <Protein>  (1) 
generic_title2

$$$$
Pocket2Mol_24_num_sample_100
     RDKit          3D

  0  0  0  0  0  0  0  0  0  0999 V3000
M  V30 BEGIN CTAB
M  V30 COUNTS 15 16 0 0 1
M  V30 BEGIN ATOM
M  V30 1 C 11.434809 8.695980 -5.134000 0
M  V30 2 O 10.955887 9.369302 -6.291665 0
M  V30 3 C 10.917182 8.462346 -7.389156 0 CFG=2
M  V30 4 C 9.631454 7.691036 -7.511933 0 CFG=1
M  V30 5 O 9.434839 7.197680 -8.822434 0
M  V30 6 C 11.051149 7.221810 -5.323825 0
M  V30 7 C 10.823423 7.084023 -6.795554 0 CFG=2
M  V30 8 H 12.515766 8.822905 -5.091665 0
M  V30 9 H 11.034838 9.132476 -4.220678 0
M  V30 10 H 11.591768 8.648347 -8.223002 0
M  V30 11 H 8.737304 7.986501 -6.964682 0
M  V30 12 H 8.519910 7.369301 -9.075332 0
M  V30 13 H 11.834838 6.545225 -4.982436 0
M  V30 14 H 10.131454 6.969269 -4.798818 0
M  V30 15 H 11.352476 6.272925 -7.293072 0
M  V30 END ATOM
M  V30 BEGIN BOND
M  V30 1 1 2 1
M  V30 2 1 3 2
M  V30 3 1 4 3
M  V30 4 1 5 4
M  V30 5 1 6 1
M  V30 6 1 7 3
M  V30 7 1 7 4
M  V30 8 1 7 6
M  V30 9 1 8 1
M  V30 10 1 9 1
M  V30 11 1 3 10 CFG=3
M  V30 12 1 4 11 CFG=1
M  V30 13 1 12 5
M  V30 14 1 13 6
M  V30 15 1 14 6
M  V30 16 1 7 15 CFG=3
M  V30 END BOND
M  V30 END CTAB
M  END
>  <i_epik_Tot_Q>  (1) 
0

>  <i_epik_Tot_abs_Q>  (1) 
0

>  <i_i_glide_confnum>  (1) 
2

>  <i_i_glide_lignum>  (1) 
28

>  <i_i_glide_posenum>  (1) 
312

>  <i_i_glide_rotatable_bonds>  (1) 
1

>  <i_lp_mmshare_version>  (1) 
72125

>  <i_m_source_file_index>  (1) 
25

>  <i_f3d_flags>  (1) 
0

>  <num_sample>  (1) 
100

>  <b_lp_Chiralities_Consistent>  (1) 
1

>  <r_epik_Charging_Adjusted_Penalty>  (1) 
0

>  <r_epik_Ionization_Penalty>  (1) 
4.3639151522347116e-08

>  <r_epik_Ionization_Penalty_Charging>  (1) 
0

>  <r_epik_Ionization_Penalty_Neutral>  (1) 
4.3639151522347116e-08

>  <r_epik_State_Penalty>  (1) 
-0

>  <r_glide_ring_energy>  (1) 
1.4390763670009823

>  <r_i_docking_score>  (1) 
-5.035525847089688

>  <r_i_glide_ecoul>  (1) 
-4.8830318895771834

>  <r_i_glide_eff_state_penalty>  (1) 
-0

>  <r_i_glide_einternal>  (1) 
0.86530524050559809

>  <r_i_glide_emodel>  (1) 
-23.915370401512238

>  <r_i_glide_emodel_strain>  (1) 
0.49908425493499209

>  <r_i_glide_energy>  (1) 
-17.993571769159868

>  <r_i_glide_erotb>  (1) 
0

>  <r_i_glide_esite>  (1) 
0

>  <r_i_glide_evdw>  (1) 
-13.110539879582685

>  <r_i_glide_gscore>  (1) 
-5.035525847089688

>  <r_i_glide_gscore_strain>  (1) 
0

>  <r_i_glide_hbond>  (1) 
-0.16

>  <r_i_glide_ligand_efficiency>  (1) 
-0.7193608352985269

>  <r_i_glide_ligand_efficiency_ln>  (1) 
-1.7093277093683481

>  <r_i_glide_ligand_efficiency_sa>  (1) 
-1.3760877735077448

>  <r_i_glide_lipo>  (1) 
-0.95134943010551498

>  <r_i_glide_metal>  (1) 
-0

>  <r_i_glide_rewards>  (1) 
-2.5361946395684614

>  <r_lp_Energy>  (1) 
3.2309049999999999

>  <r_lp_tautomer_probability>  (1) 
1

>  <s_epik_cmdline>  (1) 
J2VwaWtfcHl0aG9uJywgJy1waHQnLCAnMS4wJywgJy1waCcsICc3LjQnLCAnLXRuJywgJzgnLCAnLW1hJywgJzUwMCcsICctaW1hZScsICc8aW5maWxlLm1hZT4nLCAnLW9tYWUnLCAnPG91dGZpbGUubWFlPic=

>  <s_epik_input>  (1) 
TzFbQ0gyXVtDSDJdW0NIXShbQ0BIXTEyKVtDQEBIXTJbT0hd

>  <s_glide_docking_method>  (1) 
confgen

>  <s_i_glide_gridfile>  (1) 
gpcr_drd2_6luq_protein_autoprepared_prepared

>  <s_lp_Force_Field>  (1) 
S-OPLS

>  <s_lp_Variant>  (1) 
Pocket2Mol_24_num_sample_100-1

>  <s_m_source_file>  (1) 
generated__ligand_Pocket2Mol_2026-05-06_prepared.sdf

>  <GenAI_Model>  (1) 
Pocket2Mol

>  <Protein>  (1) 
generic_title2

$$$$
Pocket2Mol_91_num_sample_100
     RDKit          3D

  0  0  0  0  0  0  0  0  0  0999 V3000
M  V30 BEGIN CTAB
M  V30 COUNTS 22 23 0 0 1
M  V30 BEGIN ATOM
M  V30 1 C 9.434842 6.793032 -8.634661 0
M  V30 2 O 10.707468 7.247985 -9.038097 0
M  V30 3 C 9.571008 5.791086 -7.506184 0
M  V30 4 O 10.868805 5.860503 -6.944219 0
M  V30 5 C 11.179523 8.361377 -8.480158 0
M  V30 6 C 11.197789 7.017570 -6.287290 0
M  V30 7 C 11.434840 6.985607 -4.892421 0
M  V30 8 O 11.446893 9.368918 -9.124136 0
M  V30 9 C 11.357233 8.252892 -6.986718 0
M  V30 10 C 11.834839 8.168072 -4.230512 0
M  V30 11 C 11.725315 9.400852 -6.252785 0
M  V30 12 N 12.134391 8.187124 -2.866513 0
M  V30 13 N 11.949154 9.317340 -4.924242 0 CHG=1
M  V30 14 H 8.827559 7.632745 -8.292477 0
M  V30 15 H 8.919947 6.350780 -9.488614 0
M  V30 16 H 8.800969 5.943923 -6.748626 0
M  V30 17 H 9.434689 4.783613 -7.899334 0
M  V30 18 H 11.337799 6.058818 -4.346897 0
M  V30 19 H 11.860230 10.377146 -6.691556 0
M  V30 20 H 12.069807 7.352284 -2.300454 0
M  V30 21 H 12.431004 9.033863 -2.400152 0
M  V30 22 H 12.229874 10.162987 -4.426207 0
M  V30 END ATOM
M  V30 BEGIN BOND
M  V30 1 1 2 1
M  V30 2 1 3 1
M  V30 3 1 4 3
M  V30 4 1 5 2
M  V30 5 1 6 4
M  V30 6 1 7 6
M  V30 7 2 8 5
M  V30 8 1 9 5
M  V30 9 2 9 6
M  V30 10 2 10 7
M  V30 11 1 11 9
M  V30 12 1 12 10
M  V30 13 1 13 10
M  V30 14 2 13 11
M  V30 15 1 14 1
M  V30 16 1 15 1
M  V30 17 1 16 3
M  V30 18 1 17 3
M  V30 19 1 18 7
M  V30 20 1 19 11
M  V30 21 1 20 12
M  V30 22 1 21 12
M  V30 23 1 22 13
M  V30 END BOND
M  V30 END CTAB
M  END
>  <i_epik_Tot_Q>  (1) 
1

>  <i_epik_Tot_abs_Q>  (1) 
1

>  <i_i_glide_confnum>  (1) 
1

>  <i_i_glide_lignum>  (1) 
98

>  <i_i_glide_posenum>  (1) 
250

>  <i_i_glide_rotatable_bonds>  (1) 
0

>  <i_lp_mmshare_version>  (1) 
72125

>  <i_m_source_file_index>  (1) 
92

>  <i_f3d_flags>  (1) 
0

>  <num_sample>  (1) 
100

>  <b_lp_Chiralities_Consistent>  (1) 
1

>  <r_epik_Charging_Adjusted_Penalty>  (1) 
0.71045643263358682

>  <r_epik_Ionization_Penalty>  (1) 
0.3552545589029974

>  <r_epik_Ionization_Penalty_Charging>  (1) 
0.35522821631679397

>  <r_epik_Ionization_Penalty_Neutral>  (1) 
2.6342586203446271e-05

>  <r_epik_State_Penalty>  (1) 
0.35522821631679286

>  <r_glide_ring_energy>  (1) 
0

>  <r_i_docking_score>  (1) 
-5.0301342258278963

>  <r_i_glide_ecoul>  (1) 
-2.6196199774464386

>  <r_i_glide_eff_state_penalty>  (1) 
0.35522821631679286

>  <r_i_glide_einternal>  (1) 
0

>  <r_i_glide_emodel>  (1) 
-30.575025923760577

>  <r_i_glide_emodel_strain>  (1) 
0

>  <r_i_glide_energy>  (1) 
-20.199651669016468

>  <r_i_glide_erotb>  (1) 
0

>  <r_i_glide_esite>  (1) 
0

>  <r_i_glide_evdw>  (1) 
-17.580031691570031

>  <r_i_glide_gscore>  (1) 
-5.3853624421446895

>  <r_i_glide_gscore_strain>  (1) 
0

>  <r_i_glide_hbond>  (1) 
0

>  <r_i_glide_ligand_efficiency>  (1) 
-0.38693340198676124

>  <r_i_glide_ligand_efficiency_ln>  (1) 
-1.4109973863442653

>  <r_i_glide_ligand_efficiency_sa>  (1) 
-0.90980992992927179

>  <r_i_glide_lipo>  (1) 
-1.2307627284394502

>  <r_i_glide_metal>  (1) 
-0

>  <r_i_glide_rewards>  (1) 
-2.8826551325097718

>  <r_lp_Energy>  (1) 
16.247630000000001

>  <s_epik_Chemistry_Notes>  (1) 
This compound has an ester and may undergo hydrolysis at high or low pH.

>  <s_epik_cmdline>  (1) 
J2VwaWtfcHl0aG9uJywgJy1waHQnLCAnMS4wJywgJy1waCcsICc3LjQnLCAnLXRuJywgJzgnLCAnLW1hJywgJzUwMCcsICctaW1hZScsICc8aW5maWxlLm1hZT4nLCAnLW9tYWUnLCAnPG91dGZpbGUubWFlPic=

>  <s_epik_input>  (1) 
TzFbQ0gyXVtDSDJdT0MoPU8pYyhjMTIpW2NIXW5jKFtjSF0yKVtOSDJd

>  <s_glide_docking_method>  (1) 
confgen

>  <s_i_glide_gridfile>  (1) 
gpcr_drd2_6luq_protein_autoprepared_prepared

>  <s_lp_Force_Field>  (1) 
S-OPLS

>  <s_lp_Variant>  (1) 
Pocket2Mol_91_num_sample_100-1

>  <s_m_source_file>  (1) 
generated__ligand_Pocket2Mol_2026-05-06_prepared.sdf

>  <GenAI_Model>  (1) 
Pocket2Mol

>  <Protein>  (1) 
generic_title2

$$$$
Pocket2Mol_65_num_sample_100
     RDKit          3D

  0  0  0  0  0  0  0  0  0  0999 V3000
M  V30 BEGIN CTAB
M  V30 COUNTS 18 19 0 0 1
M  V30 BEGIN ATOM
M  V30 1 C 9.122387 6.463612 -11.208392 0
M  V30 2 O 10.304427 7.165354 -10.849847 0
M  V30 3 C 10.484059 7.358419 -9.498099 0
M  V30 4 C 11.366969 8.359590 -9.049013 0
M  V30 5 C 8.997966 5.205912 -10.344136 0
M  V30 6 C 9.789383 6.553528 -8.552496 0
M  V30 7 O 8.930350 5.560281 -8.970349 0
M  V30 8 C 9.977363 6.774011 -7.174319 0
M  V30 9 C 10.856696 7.780272 -6.733306 0
M  V30 10 F 11.034839 7.989113 -5.407549 0
M  V30 11 C 11.553168 8.569262 -7.668734 0
M  V30 12 H 9.179628 6.193420 -12.262866 0
M  V30 13 H 8.251678 7.109318 -11.091667 0
M  V30 14 H 11.899419 8.969722 -9.764227 0
M  V30 15 H 9.834677 4.529758 -10.511228 0
M  V30 16 H 8.093528 4.657024 -10.606217 0
M  V30 17 H 9.446087 6.168905 -6.454498 0
M  V30 18 H 12.228446 9.339022 -7.326802 0
M  V30 END ATOM
M  V30 BEGIN BOND
M  V30 1 1 2 1
M  V30 2 1 3 2
M  V30 3 1 4 3
M  V30 4 1 5 1
M  V30 5 2 6 3
M  V30 6 1 7 5
M  V30 7 1 7 6
M  V30 8 1 8 6
M  V30 9 2 9 8
M  V30 10 1 10 9
M  V30 11 2 11 4
M  V30 12 1 11 9
M  V30 13 1 12 1
M  V30 14 1 13 1
M  V30 15 1 14 4
M  V30 16 1 15 5
M  V30 17 1 16 5
M  V30 18 1 17 8
M  V30 19 1 18 11
M  V30 END BOND
M  V30 END CTAB
M  END
>  <i_epik_Tot_Q>  (1) 
0

>  <i_epik_Tot_abs_Q>  (1) 
0

>  <i_i_glide_confnum>  (1) 
1

>  <i_i_glide_lignum>  (1) 
72

>  <i_i_glide_posenum>  (1) 
305

>  <i_i_glide_rotatable_bonds>  (1) 
0

>  <i_lp_mmshare_version>  (1) 
72125

>  <i_m_source_file_index>  (1) 
66

>  <i_f3d_flags>  (1) 
0

>  <num_sample>  (1) 
100

>  <b_lp_Chiralities_Consistent>  (1) 
1

>  <r_epik_Charging_Adjusted_Penalty>  (1) 
0

>  <r_epik_Ionization_Penalty>  (1) 
0

>  <r_epik_Ionization_Penalty_Charging>  (1) 
0

>  <r_epik_Ionization_Penalty_Neutral>  (1) 
0

>  <r_epik_State_Penalty>  (1) 
-0

>  <r_glide_ring_energy>  (1) 
0

>  <r_i_docking_score>  (1) 
-5.0239582685237512

>  <r_i_glide_ecoul>  (1) 
-0.87543527728169424

>  <r_i_glide_eff_state_penalty>  (1) 
-0

>  <r_i_glide_einternal>  (1) 
0

>  <r_i_glide_emodel>  (1) 
-27.776937192744739

>  <r_i_glide_emodel_strain>  (1) 
6.8738934544398944e-09

>  <r_i_glide_energy>  (1) 
-20.730143565975318

>  <r_i_glide_erotb>  (1) 
0

>  <r_i_glide_esite>  (1) 
0

>  <r_i_glide_evdw>  (1) 
-19.854708288693622

>  <r_i_glide_gscore>  (1) 
-5.0239582685237512

>  <r_i_glide_gscore_strain>  (1) 
0

>  <r_i_glide_hbond>  (1) 
0

>  <r_i_glide_ligand_efficiency>  (1) 
-0.45672347895670468

>  <r_i_glide_ligand_efficiency_ln>  (1) 
-1.4785500626645918

>  <r_i_glide_ligand_efficiency_sa>  (1) 
-1.015743924095265

>  <r_i_glide_lipo>  (1) 
-0.71850500849611476

>  <r_i_glide_metal>  (1) 
-0

>  <r_i_glide_rewards>  (1) 
-3.181402554000702

>  <r_lp_Energy>  (1) 
15.305638999999999

>  <r_lp_tautomer_probability>  (1) 
1

>  <s_epik_cmdline>  (1) 
J2VwaWtfcHl0aG9uJywgJy1waHQnLCAnMS4wJywgJy1waCcsICc3LjQnLCAnLXRuJywgJzgnLCAnLW1hJywgJzUwMCcsICctaW1hZScsICc8aW5maWxlLm1hZT4nLCAnLW9tYWUnLCAnPG91dGZpbGUubWFlPic=

>  <s_epik_input>  (1) 
TzFbQ0gyXVtDSDJdT2MoYzEyKVtjSF1jKEYpW2NIXVtjSF0y

>  <s_glide_docking_method>  (1) 
confgen

>  <s_i_glide_gridfile>  (1) 
gpcr_drd2_6luq_protein_autoprepared_prepared

>  <s_lp_Force_Field>  (1) 
S-OPLS

>  <s_lp_Variant>  (1) 
Pocket2Mol_65_num_sample_100-1

>  <s_m_source_file>  (1) 
generated__ligand_Pocket2Mol_2026-05-06_prepared.sdf

>  <GenAI_Model>  (1) 
Pocket2Mol

>  <Protein>  (1) 
generic_title2

$$$$
Pocket2Mol_65_num_sample_100
     RDKit          3D

  0  0  0  0  0  0  0  0  0  0999 V3000
M  V30 BEGIN CTAB
M  V30 COUNTS 18 19 0 0 1
M  V30 BEGIN ATOM
M  V30 1 C 8.943661 4.975567 -10.238523 0
M  V30 2 O 8.661951 5.346185 -8.897097 0
M  V30 3 C 9.448456 6.349635 -8.375659 0
M  V30 4 C 9.462205 6.570481 -6.985825 0
M  V30 5 C 9.130495 6.232573 -11.091885 0
M  V30 6 C 10.243058 7.165460 -9.227668 0
M  V30 7 O 10.234846 6.972094 -10.591593 0
M  V30 8 C 11.048835 8.179758 -8.672839 0
M  V30 9 C 11.060438 8.390526 -7.280118 0
M  V30 10 F 11.834586 9.367928 -6.749510 0
M  V30 11 C 10.266815 7.588298 -6.438750 0
M  V30 12 H 8.116369 4.377131 -10.619548 0
M  V30 13 H 9.834838 4.348101 -10.268036 0
M  V30 14 H 8.854370 5.957691 -6.337852 0
M  V30 15 H 8.234721 6.853267 -11.091638 0
M  V30 16 H 9.328570 5.960942 -12.128625 0
M  V30 17 H 11.656000 8.798850 -9.316624 0
M  V30 18 H 10.275037 7.753123 -5.372083 0
M  V30 END ATOM
M  V30 BEGIN BOND
M  V30 1 1 2 1
M  V30 2 1 3 2
M  V30 3 1 4 3
M  V30 4 1 5 1
M  V30 5 2 6 3
M  V30 6 1 7 5
M  V30 7 1 7 6
M  V30 8 1 8 6
M  V30 9 2 9 8
M  V30 10 1 10 9
M  V30 11 2 11 4
M  V30 12 1 11 9
M  V30 13 1 12 1
M  V30 14 1 13 1
M  V30 15 1 14 4
M  V30 16 1 15 5
M  V30 17 1 16 5
M  V30 18 1 17 8
M  V30 19 1 18 11
M  V30 END BOND
M  V30 END CTAB
M  END
>  <i_epik_Tot_Q>  (1) 
0

>  <i_epik_Tot_abs_Q>  (1) 
0

>  <i_i_glide_confnum>  (1) 
1

>  <i_i_glide_lignum>  (1) 
72

>  <i_i_glide_posenum>  (1) 
359

>  <i_i_glide_rotatable_bonds>  (1) 
0

>  <i_lp_mmshare_version>  (1) 
72125

>  <i_m_source_file_index>  (1) 
66

>  <i_f3d_flags>  (1) 
0

>  <num_sample>  (1) 
100

>  <b_lp_Chiralities_Consistent>  (1) 
1

>  <r_epik_Charging_Adjusted_Penalty>  (1) 
0

>  <r_epik_Ionization_Penalty>  (1) 
0

>  <r_epik_Ionization_Penalty_Charging>  (1) 
0

>  <r_epik_Ionization_Penalty_Neutral>  (1) 
0

>  <r_epik_State_Penalty>  (1) 
-0

>  <r_glide_ring_energy>  (1) 
0

>  <r_i_docking_score>  (1) 
-5.0204641594393369

>  <r_i_glide_ecoul>  (1) 
-0.86972701753293546

>  <r_i_glide_eff_state_penalty>  (1) 
-0

>  <r_i_glide_einternal>  (1) 
0

>  <r_i_glide_emodel>  (1) 
-27.687662104661875

>  <r_i_glide_emodel_strain>  (1) 
0

>  <r_i_glide_energy>  (1) 
-20.645769440400723

>  <r_i_glide_erotb>  (1) 
0

>  <r_i_glide_esite>  (1) 
0

>  <r_i_glide_evdw>  (1) 
-19.776042422867789

>  <r_i_glide_gscore>  (1) 
-5.0204641594393369

>  <r_i_glide_gscore_strain>  (1) 
0

>  <r_i_glide_hbond>  (1) 
0

>  <r_i_glide_ligand_efficiency>  (1) 
-0.45640583267630336

>  <r_i_glide_ligand_efficiency_ln>  (1) 
-1.4775217469562218

>  <r_i_glide_ligand_efficiency_sa>  (1) 
-1.0150374850918091

>  <r_i_glide_lipo>  (1) 
-0.57035231114999008

>  <r_i_glide_metal>  (1) 
-0

>  <r_i_glide_rewards>  (1) 
-3.3308506745160171

>  <r_lp_Energy>  (1) 
15.305638999999999

>  <r_lp_tautomer_probability>  (1) 
1

>  <s_epik_cmdline>  (1) 
J2VwaWtfcHl0aG9uJywgJy1waHQnLCAnMS4wJywgJy1waCcsICc3LjQnLCAnLXRuJywgJzgnLCAnLW1hJywgJzUwMCcsICctaW1hZScsICc8aW5maWxlLm1hZT4nLCAnLW9tYWUnLCAnPG91dGZpbGUubWFlPic=

>  <s_epik_input>  (1) 
TzFbQ0gyXVtDSDJdT2MoYzEyKVtjSF1jKEYpW2NIXVtjSF0y

>  <s_glide_docking_method>  (1) 
confgen

>  <s_i_glide_gridfile>  (1) 
gpcr_drd2_6luq_protein_autoprepared_prepared

>  <s_lp_Force_Field>  (1) 
S-OPLS

>  <s_lp_Variant>  (1) 
Pocket2Mol_65_num_sample_100-1

>  <s_m_source_file>  (1) 
generated__ligand_Pocket2Mol_2026-05-06_prepared.sdf

>  <GenAI_Model>  (1) 
Pocket2Mol

>  <Protein>  (1) 
generic_title2

$$$$
Pocket2Mol_95_num_sample_100
     RDKit          3D

  0  0  0  0  0  0  0  0  0  0999 V3000
M  V30 BEGIN CTAB
M  V30 COUNTS 23 24 0 0 1
M  V30 BEGIN ATOM
M  V30 1 C 9.008358 4.855862 -9.635450 0
M  V30 2 O 9.466068 6.077637 -10.189685 0
M  V30 3 C 10.113330 6.920958 -9.314761 0
M  V30 4 C 8.286255 5.135637 -8.323265 0
M  V30 5 O 9.160208 5.769034 -7.399757 0
M  V30 6 C 9.960581 6.764931 -7.909688 0
M  V30 7 C 10.638308 7.639765 -7.030502 0
M  V30 8 O 10.496358 7.510698 -5.672381 0
M  V30 9 C 11.458239 8.656520 -7.545895 0
M  V30 10 O 12.108668 9.494138 -6.691666 0
M  V30 11 C 10.932921 7.946259 -9.819473 0
M  V30 12 C 11.606276 8.811312 -8.937948 0
M  V30 13 C 11.140225 6.383223 -5.106552 0
M  V30 14 H 9.834985 4.168937 -9.475191 0
M  V30 15 H 8.330683 4.383079 -10.346300 0
M  V30 16 H 7.907320 4.209477 -7.891362 0
M  V30 17 H 7.434653 5.769341 -8.519229 0
M  V30 18 H 11.855793 9.316079 -5.797828 0
M  V30 19 H 11.046447 8.067427 -10.885598 0
M  V30 20 H 12.234598 9.596219 -9.330565 0
M  V30 21 H 11.866211 6.715390 -4.365475 0
M  V30 22 H 10.403872 5.769321 -4.592596 0
M  V30 23 H 11.666487 5.769356 -5.838985 0
M  V30 END ATOM
M  V30 BEGIN BOND
M  V30 1 1 2 1
M  V30 2 1 3 2
M  V30 3 1 4 1
M  V30 4 1 5 4
M  V30 5 2 6 3
M  V30 6 1 6 5
M  V30 7 1 7 6
M  V30 8 1 8 7
M  V30 9 2 9 7
M  V30 10 1 10 9
M  V30 11 1 11 3
M  V30 12 1 12 9
M  V30 13 2 12 11
M  V30 14 1 13 8
M  V30 15 1 14 1
M  V30 16 1 15 1
M  V30 17 1 16 4
M  V30 18 1 17 4
M  V30 19 1 18 10
M  V30 20 1 19 11
M  V30 21 1 20 12
M  V30 22 1 21 13
M  V30 23 1 22 13
M  V30 24 1 23 13
M  V30 END BOND
M  V30 END CTAB
M  END
>  <i_epik_Tot_Q>  (1) 
0

>  <i_epik_Tot_abs_Q>  (1) 
0

>  <i_i_glide_confnum>  (1) 
2

>  <i_i_glide_lignum>  (1) 
104

>  <i_i_glide_posenum>  (1) 
358

>  <i_i_glide_rotatable_bonds>  (1) 
2

>  <i_lp_mmshare_version>  (1) 
72125

>  <i_m_source_file_index>  (1) 
96

>  <i_f3d_flags>  (1) 
0

>  <num_sample>  (1) 
100

>  <b_lp_Chiralities_Consistent>  (1) 
1

>  <r_epik_Charging_Adjusted_Penalty>  (1) 
0

>  <r_epik_Ionization_Penalty>  (1) 
0.0014130578134093086

>  <r_epik_Ionization_Penalty_Charging>  (1) 
0

>  <r_epik_Ionization_Penalty_Neutral>  (1) 
0.0014130578134093086

>  <r_epik_State_Penalty>  (1) 
-0

>  <r_glide_ring_energy>  (1) 
0.003085301398031638

>  <r_i_docking_score>  (1) 
-5.017239284529472

>  <r_i_glide_ecoul>  (1) 
-0.78888752550794283

>  <r_i_glide_eff_state_penalty>  (1) 
-0

>  <r_i_glide_einternal>  (1) 
0.0039176839213670434

>  <r_i_glide_emodel>  (1) 
-30.680045221109864

>  <r_i_glide_emodel_strain>  (1) 
0.17663389787280082

>  <r_i_glide_energy>  (1) 
-23.938223639404271

>  <r_i_glide_erotb>  (1) 
0

>  <r_i_glide_esite>  (1) 
0

>  <r_i_glide_evdw>  (1) 
-23.149336113896329

>  <r_i_glide_gscore>  (1) 
-5.017239284529472

>  <r_i_glide_gscore_strain>  (1) 
0

>  <r_i_glide_hbond>  (1) 
0

>  <r_i_glide_ligand_efficiency>  (1) 
-0.38594148342534401

>  <r_i_glide_ligand_efficiency_ln>  (1) 
-1.407380240627613

>  <r_i_glide_ligand_efficiency_sa>  (1) 
-0.90747759740841727

>  <r_i_glide_lipo>  (1) 
-1.0030679528186572

>  <r_i_glide_metal>  (1) 
-0

>  <r_i_glide_rewards>  (1) 
-2.7383713971898063

>  <r_lp_Energy>  (1) 
25.525124999999999

>  <r_lp_tautomer_probability>  (1) 
1

>  <s_epik_cmdline>  (1) 
J2VwaWtfcHl0aG9uJywgJy1waHQnLCAnMS4wJywgJy1waCcsICc3LjQnLCAnLXRuJywgJzgnLCAnLW1hJywgJzUwMCcsICctaW1hZScsICc8aW5maWxlLm1hZT4nLCAnLW9tYWUnLCAnPG91dGZpbGUubWFlPic=

>  <s_epik_input>  (1) 
TzFbQ0gyXVtDSDJdT2MoYzEyKWMoT1tDSDNdKWMoW09IXSlbY0hdW2NIXTI=

>  <s_glide_docking_method>  (1) 
confgen

>  <s_i_glide_gridfile>  (1) 
gpcr_drd2_6luq_protein_autoprepared_prepared

>  <s_lp_Force_Field>  (1) 
S-OPLS

>  <s_lp_Variant>  (1) 
Pocket2Mol_95_num_sample_100-1

>  <s_m_source_file>  (1) 
generated__ligand_Pocket2Mol_2026-05-06_prepared.sdf

>  <GenAI_Model>  (1) 
Pocket2Mol

>  <Protein>  (1) 
generic_title2

$$$$
Pocket2Mol_64_num_sample_100
     RDKit          3D

  0  0  0  0  0  0  0  0  0  0999 V3000
M  V30 BEGIN CTAB
M  V30 COUNTS 16 17 0 0 1
M  V30 BEGIN ATOM
M  V30 1 C 8.295068 4.969327 -8.706336 0
M  V30 2 O 8.684417 5.591867 -7.550458 0
M  V30 3 C 9.646601 6.569329 -7.647399 0
M  V30 4 C 10.229438 6.876030 -8.903083 0
M  V30 5 C 11.216841 7.875058 -8.992056 0
M  V30 6 C 10.053855 7.267926 -6.495259 0
M  V30 7 C 11.039394 8.268306 -6.589623 0
M  V30 8 O 9.834839 6.198858 -10.034937 0
M  V30 9 C 8.846223 5.260439 -9.897723 0
M  V30 10 F 11.778791 8.168704 -10.189285 0
M  V30 11 C 11.621975 8.568931 -7.836558 0
M  V30 12 H 7.513484 4.241907 -8.545361 0
M  V30 13 H 9.609149 7.035509 -5.538796 0
M  V30 14 H 11.350505 8.804436 -5.705625 0
M  V30 15 H 8.573989 4.800366 -10.835555 0
M  V30 16 H 12.378205 9.334392 -7.907329 0
M  V30 END ATOM
M  V30 BEGIN BOND
M  V30 1 1 2 1
M  V30 2 1 3 2
M  V30 3 1 4 3
M  V30 4 2 5 4
M  V30 5 2 6 3
M  V30 6 1 7 6
M  V30 7 1 8 4
M  V30 8 2 9 1
M  V30 9 1 9 8
M  V30 10 1 10 5
M  V30 11 1 11 5
M  V30 12 2 11 7
M  V30 13 1 12 1
M  V30 14 1 13 6
M  V30 15 1 14 7
M  V30 16 1 15 9
M  V30 17 1 16 11
M  V30 END BOND
M  V30 END CTAB
M  END
>  <i_epik_Tot_Q>  (1) 
0

>  <i_epik_Tot_abs_Q>  (1) 
0

>  <i_i_glide_confnum>  (1) 
1

>  <i_i_glide_lignum>  (1) 
71

>  <i_i_glide_posenum>  (1) 
78

>  <i_i_glide_rotatable_bonds>  (1) 
0

>  <i_lp_mmshare_version>  (1) 
72125

>  <i_m_source_file_index>  (1) 
65

>  <i_f3d_flags>  (1) 
0

>  <num_sample>  (1) 
100

>  <b_lp_Chiralities_Consistent>  (1) 
1

>  <r_epik_Charging_Adjusted_Penalty>  (1) 
0

>  <r_epik_Ionization_Penalty>  (1) 
0

>  <r_epik_Ionization_Penalty_Charging>  (1) 
0

>  <r_epik_Ionization_Penalty_Neutral>  (1) 
0

>  <r_epik_State_Penalty>  (1) 
-0

>  <r_glide_ring_energy>  (1) 
0

>  <r_i_docking_score>  (1) 
-5.014860415772131

>  <r_i_glide_ecoul>  (1) 
-0.20894019752452386

>  <r_i_glide_eff_state_penalty>  (1) 
-0

>  <r_i_glide_einternal>  (1) 
0

>  <r_i_glide_emodel>  (1) 
-25.322685160319274

>  <r_i_glide_emodel_strain>  (1) 
0

>  <r_i_glide_energy>  (1) 
-18.988809393374154

>  <r_i_glide_erotb>  (1) 
0

>  <r_i_glide_esite>  (1) 
0

>  <r_i_glide_evdw>  (1) 
-18.779869195849631

>  <r_i_glide_gscore>  (1) 
-5.014860415772131

>  <r_i_glide_gscore_strain>  (1) 
0

>  <r_i_glide_hbond>  (1) 
0

>  <r_i_glide_ligand_efficiency>  (1) 
-0.45589640143383009

>  <r_i_glide_ligand_efficiency_ln>  (1) 
-1.4758725661494836

>  <r_i_glide_ligand_efficiency_sa>  (1) 
-1.0139045201510346

>  <r_i_glide_lipo>  (1) 
-0.80667844476368566

>  <r_i_glide_metal>  (1) 
-0

>  <r_i_glide_rewards>  (1) 
-3.2378474815872846

>  <r_lp_Energy>  (1) 
23.975801000000001

>  <r_lp_tautomer_probability>  (1) 
1

>  <s_epik_cmdline>  (1) 
J2VwaWtfcHl0aG9uJywgJy1waHQnLCAnMS4wJywgJy1waCcsICc3LjQnLCAnLXRuJywgJzgnLCAnLW1hJywgJzUwMCcsICctaW1hZScsICc8aW5maWxlLm1hZT4nLCAnLW9tYWUnLCAnPG91dGZpbGUubWFlPic=

>  <s_epik_input>  (1) 
TzFbQ0hdPVtDSF1PYyhjMTIpYyhGKVtjSF1bY0hdW2NIXTI=

>  <s_glide_docking_method>  (1) 
confgen

>  <s_i_glide_gridfile>  (1) 
gpcr_drd2_6luq_protein_autoprepared_prepared

>  <s_lp_Force_Field>  (1) 
S-OPLS

>  <s_lp_Variant>  (1) 
Pocket2Mol_64_num_sample_100-1

>  <s_m_source_file>  (1) 
generated__ligand_Pocket2Mol_2026-05-06_prepared.sdf

>  <GenAI_Model>  (1) 
Pocket2Mol

>  <Protein>  (1) 
generic_title2

$$$$
Pocket2Mol_64_num_sample_100
     RDKit          3D

  0  0  0  0  0  0  0  0  0  0999 V3000
M  V30 BEGIN CTAB
M  V30 COUNTS 16 17 0 0 1
M  V30 BEGIN ATOM
M  V30 1 C 8.910746 5.369285 -9.314188 0
M  V30 2 O 9.143941 5.568310 -7.977547 0
M  V30 3 C 9.944441 6.631901 -7.628933 0
M  V30 4 C 10.495208 7.474729 -8.626803 0
M  V30 5 C 11.313395 8.560305 -8.253610 0
M  V30 6 C 10.216721 6.882348 -6.269607 0
M  V30 7 C 11.034840 7.968302 -5.901640 0
M  V30 8 O 10.235554 7.239018 -9.957906 0
M  V30 9 C 9.433433 6.169255 -10.262434 0
M  V30 10 F 11.843091 9.369836 -9.201537 0
M  V30 11 C 11.582338 8.806073 -6.892955 0
M  V30 12 H 8.275140 4.516959 -9.503804 0
M  V30 13 H 9.797216 6.240334 -5.508967 0
M  V30 14 H 11.242485 8.158753 -4.858911 0
M  V30 15 H 9.279234 6.053695 -11.325127 0
M  V30 16 H 12.209640 9.638740 -6.610827 0
M  V30 END ATOM
M  V30 BEGIN BOND
M  V30 1 1 2 1
M  V30 2 1 3 2
M  V30 3 1 4 3
M  V30 4 2 5 4
M  V30 5 2 6 3
M  V30 6 1 7 6
M  V30 7 1 8 4
M  V30 8 2 9 1
M  V30 9 1 9 8
M  V30 10 1 10 5
M  V30 11 1 11 5
M  V30 12 2 11 7
M  V30 13 1 12 1
M  V30 14 1 13 6
M  V30 15 1 14 7
M  V30 16 1 15 9
M  V30 17 1 16 11
M  V30 END BOND
M  V30 END CTAB
M  END
>  <i_epik_Tot_Q>  (1) 
0

>  <i_epik_Tot_abs_Q>  (1) 
0

>  <i_i_glide_confnum>  (1) 
1

>  <i_i_glide_lignum>  (1) 
71

>  <i_i_glide_posenum>  (1) 
53

>  <i_i_glide_rotatable_bonds>  (1) 
0

>  <i_lp_mmshare_version>  (1) 
72125

>  <i_m_source_file_index>  (1) 
65

>  <i_f3d_flags>  (1) 
0

>  <num_sample>  (1) 
100

>  <b_lp_Chiralities_Consistent>  (1) 
1

>  <r_epik_Charging_Adjusted_Penalty>  (1) 
0

>  <r_epik_Ionization_Penalty>  (1) 
0

>  <r_epik_Ionization_Penalty_Charging>  (1) 
0

>  <r_epik_Ionization_Penalty_Neutral>  (1) 
0

>  <r_epik_State_Penalty>  (1) 
-0

>  <r_glide_ring_energy>  (1) 
0

>  <r_i_docking_score>  (1) 
-5.0140663793276561

>  <r_i_glide_ecoul>  (1) 
0.067609277473163643

>  <r_i_glide_eff_state_penalty>  (1) 
-0

>  <r_i_glide_einternal>  (1) 
0

>  <r_i_glide_emodel>  (1) 
-25.959528911235338

>  <r_i_glide_emodel_strain>  (1) 
3.7345095904584014e-09

>  <r_i_glide_energy>  (1) 
-19.626656033005919

>  <r_i_glide_erotb>  (1) 
0

>  <r_i_glide_esite>  (1) 
0

>  <r_i_glide_evdw>  (1) 
-19.694265310479082

>  <r_i_glide_gscore>  (1) 
-5.0140663793276561

>  <r_i_glide_gscore_strain>  (1) 
0

>  <r_i_glide_hbond>  (1) 
0

>  <r_i_glide_ligand_efficiency>  (1) 
-0.45582421630251418

>  <r_i_glide_ligand_efficiency_ln>  (1) 
-1.4756388813591279

>  <r_i_glide_ligand_efficiency_sa>  (1) 
-1.0137439818561529

>  <r_i_glide_lipo>  (1) 
-0.98050455306270323

>  <r_i_glide_metal>  (1) 
-0

>  <r_i_glide_rewards>  (1) 
-3.0589899523619737

>  <r_lp_Energy>  (1) 
23.975801000000001

>  <r_lp_tautomer_probability>  (1) 
1

>  <s_epik_cmdline>  (1) 
J2VwaWtfcHl0aG9uJywgJy1waHQnLCAnMS4wJywgJy1waCcsICc3LjQnLCAnLXRuJywgJzgnLCAnLW1hJywgJzUwMCcsICctaW1hZScsICc8aW5maWxlLm1hZT4nLCAnLW9tYWUnLCAnPG91dGZpbGUubWFlPic=

>  <s_epik_input>  (1) 
TzFbQ0hdPVtDSF1PYyhjMTIpYyhGKVtjSF1bY0hdW2NIXTI=

>  <s_glide_docking_method>  (1) 
confgen

>  <s_i_glide_gridfile>  (1) 
gpcr_drd2_6luq_protein_autoprepared_prepared

>  <s_lp_Force_Field>  (1) 
S-OPLS

>  <s_lp_Variant>  (1) 
Pocket2Mol_64_num_sample_100-1

>  <s_m_source_file>  (1) 
generated__ligand_Pocket2Mol_2026-05-06_prepared.sdf

>  <GenAI_Model>  (1) 
Pocket2Mol

>  <Protein>  (1) 
generic_title2

$$$$
Pocket2Mol_29_num_sample_100
     RDKit          3D

  0  0  0  0  0  0  0  0  0  0999 V3000
M  V30 BEGIN CTAB
M  V30 COUNTS 18 18 0 0 1
M  V30 BEGIN ATOM
M  V30 1 C 9.854034 7.895553 -6.931957 0
M  V30 2 O 9.556355 8.571297 -8.143813 0
M  V30 3 C 10.417817 8.215580 -9.223964 0
M  V30 4 C 11.787079 8.908864 -9.103608 0
M  V30 5 O 12.634134 8.569302 -10.186740 0
M  V30 6 C 10.834800 8.706868 -6.061950 0
M  V30 7 C 12.513979 8.569334 -7.800297 0
M  V30 8 O 11.927795 9.311720 -6.743933 0
M  V30 9 H 8.924602 7.765765 -6.375453 0
M  V30 10 H 10.228650 6.887259 -7.113334 0
M  V30 11 H 9.930884 8.541001 -10.143525 0
M  V30 12 H 10.531581 7.132348 -9.299567 0
M  V30 13 H 11.652187 9.989549 -9.153792 0
M  V30 14 H 13.362072 9.179385 -10.192586 0
M  V30 15 H 10.293529 9.512209 -5.570077 0
M  V30 16 H 11.223756 8.074812 -5.264211 0
M  V30 17 H 12.550420 7.499409 -7.597207 0
M  V30 18 H 13.546297 8.910831 -7.869606 0
M  V30 END ATOM
M  V30 BEGIN BOND
M  V30 1 1 2 1
M  V30 2 1 3 2
M  V30 3 1 4 3
M  V30 4 1 5 4
M  V30 5 1 6 1
M  V30 6 1 7 4
M  V30 7 1 8 6
M  V30 8 1 8 7
M  V30 9 1 9 1
M  V30 10 1 10 1
M  V30 11 1 11 3
M  V30 12 1 12 3
M  V30 13 1 13 4
M  V30 14 1 14 5
M  V30 15 1 15 6
M  V30 16 1 16 6
M  V30 17 1 17 7
M  V30 18 1 18 7
M  V30 END BOND
M  V30 END CTAB
M  END
>  <i_epik_Tot_Q>  (1) 
0

>  <i_epik_Tot_abs_Q>  (1) 
0

>  <i_i_glide_confnum>  (1) 
2

>  <i_i_glide_lignum>  (1) 
33

>  <i_i_glide_posenum>  (1) 
396

>  <i_i_glide_rotatable_bonds>  (1) 
1

>  <i_lp_mmshare_version>  (1) 
72125

>  <i_m_source_file_index>  (1) 
30

>  <i_f3d_flags>  (1) 
0

>  <num_sample>  (1) 
100

>  <b_lp_Chiralities_Consistent>  (1) 
1

>  <r_epik_Charging_Adjusted_Penalty>  (1) 
0

>  <r_epik_Ionization_Penalty>  (1) 
1.4561355789117501e-07

>  <r_epik_Ionization_Penalty_Charging>  (1) 
0

>  <r_epik_Ionization_Penalty_Neutral>  (1) 
1.4561355789117501e-07

>  <r_epik_State_Penalty>  (1) 
-0

>  <r_glide_ring_energy>  (1) 
0.00017037653096552691

>  <r_i_docking_score>  (1) 
-5.0054710784527181

>  <r_i_glide_ecoul>  (1) 
-2.9301290152594577

>  <r_i_glide_eff_state_penalty>  (1) 
-0

>  <r_i_glide_einternal>  (1) 
0.38579612627532467

>  <r_i_glide_emodel>  (1) 
-26.55300146094347

>  <r_i_glide_emodel_strain>  (1) 
0

>  <r_i_glide_energy>  (1) 
-19.556792625871818

>  <r_i_glide_erotb>  (1) 
0

>  <r_i_glide_esite>  (1) 
0

>  <r_i_glide_evdw>  (1) 
-16.626663610612361

>  <r_i_glide_gscore>  (1) 
-5.0054710784527181

>  <r_i_glide_gscore_strain>  (1) 
0

>  <r_i_glide_hbond>  (1) 
-0.30229061896476611

>  <r_i_glide_ligand_efficiency>  (1) 
-0.62568388480658976

>  <r_i_glide_ligand_efficiency_ln>  (1) 
-1.6254476698792057

>  <r_i_glide_ligand_efficiency_sa>  (1) 
-1.2513677696131797

>  <r_i_glide_lipo>  (1) 
-0.81055599621239627

>  <r_i_glide_metal>  (1) 
-0

>  <r_i_glide_rewards>  (1) 
-2.6217719304560192

>  <r_lp_Energy>  (1) 
13.809562999999999

>  <r_lp_tautomer_probability>  (1) 
1

>  <s_epik_cmdline>  (1) 
J2VwaWtfcHl0aG9uJywgJy1waHQnLCAnMS4wJywgJy1waCcsICc3LjQnLCAnLXRuJywgJzgnLCAnLW1hJywgJzUwMCcsICctaW1hZScsICc8aW5maWxlLm1hZT4nLCAnLW9tYWUnLCAnPG91dGZpbGUubWFlPic=

>  <s_epik_input>  (1) 
W0NIMl0xT1tDSDJdW0NIMl1PW0NIMl1bQ0hdMVtPSF0=

>  <s_glide_docking_method>  (1) 
confgen

>  <s_i_glide_gridfile>  (1) 
gpcr_drd2_6luq_protein_autoprepared_prepared

>  <s_lp_Force_Field>  (1) 
S-OPLS

>  <s_lp_Variant>  (1) 
Pocket2Mol_29_num_sample_100-1

>  <s_m_source_file>  (1) 
generated__ligand_Pocket2Mol_2026-05-06_prepared.sdf

>  <GenAI_Model>  (1) 
Pocket2Mol

>  <Protein>  (1) 
generic_title2

$$$$
Pocket2Mol_45_num_sample_100
     RDKit          3D

  0  0  0  0  0  0  0  0  0  0999 V3000
M  V30 BEGIN CTAB
M  V30 COUNTS 14 15 0 0 1
M  V30 BEGIN ATOM
M  V30 1 C 11.434839 9.250032 -5.463702 0
M  V30 2 O 10.252732 8.501969 -5.891667 0
M  V30 3 C 10.611038 8.244358 -7.150825 0
M  V30 4 C 11.797055 8.715184 -7.494112 0
M  V30 5 C 12.294531 8.518961 -8.793090 0
M  V30 6 N 11.594815 7.845099 -9.748539 0
M  V30 7 C 10.367183 7.369311 -9.371962 0
M  V30 8 C 9.834839 7.545115 -8.073142 0
M  V30 9 O 12.437813 9.369302 -6.521872 0
M  V30 10 H 11.126295 10.250137 -5.155144 0
M  V30 11 H 11.881926 8.744930 -4.606467 0
M  V30 12 H 13.262503 8.902567 -9.078436 0
M  V30 13 H 9.805519 6.837715 -10.125896 0
M  V30 14 H 8.860159 7.157187 -7.809150 0
M  V30 END ATOM
M  V30 BEGIN BOND
M  V30 1 1 2 1
M  V30 2 1 3 2
M  V30 3 2 4 3
M  V30 4 1 5 4
M  V30 5 2 6 5
M  V30 6 1 7 6
M  V30 7 1 8 3
M  V30 8 2 8 7
M  V30 9 1 9 1
M  V30 10 1 9 4
M  V30 11 1 10 1
M  V30 12 1 11 1
M  V30 13 1 12 5
M  V30 14 1 13 7
M  V30 15 1 14 8
M  V30 END BOND
M  V30 END CTAB
M  END
>  <i_epik_Tot_Q>  (1) 
0

>  <i_epik_Tot_abs_Q>  (1) 
0

>  <i_i_glide_confnum>  (1) 
1

>  <i_i_glide_lignum>  (1) 
50

>  <i_i_glide_posenum>  (1) 
113

>  <i_i_glide_rotatable_bonds>  (1) 
0

>  <i_lp_mmshare_version>  (1) 
72125

>  <i_m_source_file_index>  (1) 
46

>  <i_f3d_flags>  (1) 
0

>  <num_sample>  (1) 
100

>  <b_lp_Chiralities_Consistent>  (1) 
1

>  <r_epik_Charging_Adjusted_Penalty>  (1) 
0.069790075728531922

>  <r_epik_Ionization_Penalty>  (1) 
0.069790075728531936

>  <r_epik_Ionization_Penalty_Charging>  (1) 
0

>  <r_epik_Ionization_Penalty_Neutral>  (1) 
0.069790075728531936

>  <r_epik_State_Penalty>  (1) 
0.069790075728531922

>  <r_glide_ring_energy>  (1) 
0

>  <r_i_docking_score>  (1) 
-5.0021384162026017

>  <r_i_glide_ecoul>  (1) 
-1.3745834675724282

>  <r_i_glide_eff_state_penalty>  (1) 
0.069790075728531922

>  <r_i_glide_einternal>  (1) 
0

>  <r_i_glide_emodel>  (1) 
-26.457197681080373

>  <r_i_glide_emodel_strain>  (1) 
0

>  <r_i_glide_energy>  (1) 
-19.843901679406308

>  <r_i_glide_erotb>  (1) 
0

>  <r_i_glide_esite>  (1) 
0

>  <r_i_glide_evdw>  (1) 
-18.46931821183388

>  <r_i_glide_gscore>  (1) 
-5.0719284919311338

>  <r_i_glide_gscore_strain>  (1) 
0

>  <r_i_glide_hbond>  (1) 
0

>  <r_i_glide_ligand_efficiency>  (1) 
-0.55579315735584467

>  <r_i_glide_ligand_efficiency_ln>  (1) 
-1.5645251984050972

>  <r_i_glide_ligand_efficiency_sa>  (1) 
-1.1560963555788339

>  <r_i_glide_lipo>  (1) 
-0.71727506120357509

>  <r_i_glide_metal>  (1) 
-0

>  <r_i_glide_rewards>  (1) 
-3.2250000000000001

>  <r_lp_Energy>  (1) 
21.238785

>  <r_lp_tautomer_probability>  (1) 
1

>  <s_epik_Chemistry_Notes>  (1) 
This compound contains an acetal/aminal-like group ( X-CH(R)-Y where X, Y are N, S, or O) that may be acid/base labile, releasing an aldehyde.

>  <s_epik_cmdline>  (1) 
J2VwaWtfcHl0aG9uJywgJy1waHQnLCAnMS4wJywgJy1waCcsICc3LjQnLCAnLXRuJywgJzgnLCAnLW1hJywgJzUwMCcsICctaW1hZScsICc8aW5maWxlLm1hZT4nLCAnLW9tYWUnLCAnPG91dGZpbGUubWFlPic=

>  <s_epik_input>  (1) 
TzFbQ0gyXU9jKGMxMilbY0hdbltjSF1bY0hdMg==

>  <s_glide_docking_method>  (1) 
confgen

>  <s_i_glide_gridfile>  (1) 
gpcr_drd2_6luq_protein_autoprepared_prepared

>  <s_lp_Force_Field>  (1) 
S-OPLS

>  <s_lp_Variant>  (1) 
Pocket2Mol_45_num_sample_100-1

>  <s_m_source_file>  (1) 
generated__ligand_Pocket2Mol_2026-05-06_prepared.sdf

>  <GenAI_Model>  (1) 
Pocket2Mol

>  <Protein>  (1) 
generic_title2

$$$$
Pocket2Mol_14_num_sample_100
     RDKit          3D

  0  0  0  0  0  0  0  0  0  0999 V3000
M  V30 BEGIN CTAB
M  V30 COUNTS 17 17 0 0 1
M  V30 BEGIN ATOM
M  V30 1 C 10.295159 7.689063 -6.688556 0
M  V30 2 O 11.287640 8.704867 -6.589899 0
M  V30 3 C 12.304073 8.569302 -7.576903 0
M  V30 4 C 11.717601 8.739100 -8.985726 0 CFG=1
M  V30 5 O 12.734176 8.569305 -9.952311 0
M  V30 6 C 9.598051 7.775268 -8.052298 0
M  V30 7 C 10.608666 7.703614 -9.203767 0
M  V30 8 H 10.746428 6.706133 -6.542589 0
M  V30 9 H 9.564582 7.825350 -5.891666 0
M  V30 10 H 12.773225 7.589133 -7.491665 0
M  V30 11 H 13.080767 9.307159 -7.379577 0
M  V30 12 H 11.312416 9.745129 -9.091943 0
M  V30 13 H 13.339266 9.300801 -9.891668 0
M  V30 14 H 8.868655 6.969394 -8.146749 0
M  V30 15 H 9.034952 8.707651 -8.114957 0
M  V30 16 H 10.107217 7.867980 -10.158234 0
M  V30 17 H 11.034888 6.700680 -9.239462 0
M  V30 END ATOM
M  V30 BEGIN BOND
M  V30 1 1 2 1
M  V30 2 1 3 2
M  V30 3 1 4 3
M  V30 4 1 5 4
M  V30 5 1 6 1
M  V30 6 1 7 4
M  V30 7 1 7 6
M  V30 8 1 8 1
M  V30 9 1 9 1
M  V30 10 1 10 3
M  V30 11 1 11 3
M  V30 12 1 4 12 CFG=1
M  V30 13 1 13 5
M  V30 14 1 14 6
M  V30 15 1 15 6
M  V30 16 1 16 7
M  V30 17 1 17 7
M  V30 END BOND
M  V30 END CTAB
M  END
>  <i_epik_Tot_Q>  (1) 
0

>  <i_epik_Tot_abs_Q>  (1) 
0

>  <i_i_glide_confnum>  (1) 
1

>  <i_i_glide_lignum>  (1) 
17

>  <i_i_glide_posenum>  (1) 
365

>  <i_i_glide_rotatable_bonds>  (1) 
1

>  <i_lp_mmshare_version>  (1) 
72125

>  <i_m_source_file_index>  (1) 
15

>  <i_f3d_flags>  (1) 
0

>  <num_sample>  (1) 
100

>  <b_lp_Chiralities_Consistent>  (1) 
1

>  <r_epik_Charging_Adjusted_Penalty>  (1) 
0

>  <r_epik_Ionization_Penalty>  (1) 
4.2263924331700322e-08

>  <r_epik_Ionization_Penalty_Charging>  (1) 
0

>  <r_epik_Ionization_Penalty_Neutral>  (1) 
4.2263924331700322e-08

>  <r_epik_State_Penalty>  (1) 
-0

>  <r_glide_ring_energy>  (1) 
0

>  <r_i_docking_score>  (1) 
-5.0017157551171296

>  <r_i_glide_ecoul>  (1) 
-4.1585107057608885

>  <r_i_glide_eff_state_penalty>  (1) 
-0

>  <r_i_glide_einternal>  (1) 
0.35851588547921898

>  <r_i_glide_emodel>  (1) 
-24.258709019918868

>  <r_i_glide_emodel_strain>  (1) 
0

>  <r_i_glide_energy>  (1) 
-17.810585946397374

>  <r_i_glide_erotb>  (1) 
0

>  <r_i_glide_esite>  (1) 
0

>  <r_i_glide_evdw>  (1) 
-13.652075240636485

>  <r_i_glide_gscore>  (1) 
-5.0017157551171296

>  <r_i_glide_gscore_strain>  (1) 
0

>  <r_i_glide_hbond>  (1) 
-0.32000000000000001

>  <r_i_glide_ligand_efficiency>  (1) 
-0.71453082215958996

>  <r_i_glide_ligand_efficiency_ln>  (1) 
-1.69785074969821

>  <r_i_glide_ligand_efficiency_sa>  (1) 
-1.3668482907610722

>  <r_i_glide_lipo>  (1) 
-0.70033538722117228

>  <r_i_glide_metal>  (1) 
-0

>  <r_i_glide_rewards>  (1) 
-2.6749999999999998

>  <r_lp_Energy>  (1) 
6.7642049999999996

>  <r_lp_tautomer_probability>  (1) 
1

>  <s_epik_cmdline>  (1) 
J2VwaWtfcHl0aG9uJywgJy1waHQnLCAnMS4wJywgJy1waCcsICc3LjQnLCAnLXRuJywgJzgnLCAnLW1hJywgJzUwMCcsICctaW1hZScsICc8aW5maWxlLm1hZT4nLCAnLW9tYWUnLCAnPG91dGZpbGUubWFlPic=

>  <s_epik_input>  (1) 
W0NIMl0xW0NIMl1bQ0gyXU9bQ0gyXVtDQEhdMVtPSF0=

>  <s_glide_docking_method>  (1) 
confgen

>  <s_i_glide_gridfile>  (1) 
gpcr_drd2_6luq_protein_autoprepared_prepared

>  <s_lp_Force_Field>  (1) 
S-OPLS

>  <s_lp_Variant>  (1) 
Pocket2Mol_14_num_sample_100-1

>  <s_m_source_file>  (1) 
generated__ligand_Pocket2Mol_2026-05-06_prepared.sdf

>  <GenAI_Model>  (1) 
Pocket2Mol

>  <Protein>  (1) 
generic_title2

$$$$
Pocket2Mol_78_num_sample_100
     RDKit          3D

  0  0  0  0  0  0  0  0  0  0999 V3000
M  V30 BEGIN CTAB
M  V30 COUNTS 22 23 0 0 1
M  V30 BEGIN ATOM
M  V30 1 C 8.094060 5.130040 -8.434070 0
M  V30 2 O 8.634839 5.769304 -7.284511 0
M  V30 3 C 9.630188 6.689557 -7.506141 0
M  V30 4 C 9.211760 4.785963 -9.413161 0
M  V30 5 O 9.834839 5.989965 -9.817799 0
M  V30 6 C 10.238898 6.798711 -8.782007 0
M  V30 7 C 11.269381 7.733912 -8.992179 0
M  V30 8 O 11.863815 7.812393 -10.236388 0
M  V30 9 C 10.050722 7.521441 -6.454948 0
M  V30 10 C 11.074293 8.461070 -6.662623 0
M  V30 11 C 11.687048 8.569305 -7.923940 0
M  V30 12 C 12.971697 8.675708 -10.413246 0
M  V30 13 H 7.575494 4.224363 -8.120946 0
M  V30 14 H 7.360016 5.769301 -8.915888 0
M  V30 15 H 9.940669 4.125296 -8.944891 0
M  V30 16 H 8.817307 4.274713 -10.291666 0
M  V30 17 H 9.585339 7.437079 -5.487656 0
M  V30 18 H 11.393457 9.098496 -5.851501 0
M  V30 19 H 12.473416 9.290148 -8.068484 0
M  V30 20 H 13.382585 8.569302 -11.417275 0
M  V30 21 H 12.634839 9.706793 -10.295411 0
M  V30 22 H 13.778141 8.461175 -9.710326 0
M  V30 END ATOM
M  V30 BEGIN BOND
M  V30 1 1 2 1
M  V30 2 1 3 2
M  V30 3 1 4 1
M  V30 4 1 5 4
M  V30 5 1 6 3
M  V30 6 1 6 5
M  V30 7 2 7 6
M  V30 8 1 8 7
M  V30 9 2 9 3
M  V30 10 1 10 9
M  V30 11 1 11 7
M  V30 12 2 11 10
M  V30 13 1 12 8
M  V30 14 1 13 1
M  V30 15 1 14 1
M  V30 16 1 15 4
M  V30 17 1 16 4
M  V30 18 1 17 9
M  V30 19 1 18 10
M  V30 20 1 19 11
M  V30 21 1 20 12
M  V30 22 1 21 12
M  V30 23 1 22 12
M  V30 END BOND
M  V30 END CTAB
M  END
>  <i_epik_Tot_Q>  (1) 
0

>  <i_epik_Tot_abs_Q>  (1) 
0

>  <i_i_glide_confnum>  (1) 
2

>  <i_i_glide_lignum>  (1) 
85

>  <i_i_glide_posenum>  (1) 
325

>  <i_i_glide_rotatable_bonds>  (1) 
1

>  <i_lp_mmshare_version>  (1) 
72125

>  <i_m_source_file_index>  (1) 
79

>  <i_f3d_flags>  (1) 
0

>  <num_sample>  (1) 
100

>  <b_lp_Chiralities_Consistent>  (1) 
1

>  <r_epik_Charging_Adjusted_Penalty>  (1) 
0

>  <r_epik_Ionization_Penalty>  (1) 
0

>  <r_epik_Ionization_Penalty_Charging>  (1) 
0

>  <r_epik_Ionization_Penalty_Neutral>  (1) 
0

>  <r_epik_State_Penalty>  (1) 
-0

>  <r_glide_ring_energy>  (1) 
0.0030884499939853893

>  <r_i_docking_score>  (1) 
-4.9931524884240925

>  <r_i_glide_ecoul>  (1) 
-0.72172201972466077

>  <r_i_glide_eff_state_penalty>  (1) 
-0

>  <r_i_glide_einternal>  (1) 
0.29514125751802256

>  <r_i_glide_emodel>  (1) 
-26.208512655286405

>  <r_i_glide_emodel_strain>  (1) 
0

>  <r_i_glide_energy>  (1) 
-20.330632050455506

>  <r_i_glide_erotb>  (1) 
0

>  <r_i_glide_esite>  (1) 
0

>  <r_i_glide_evdw>  (1) 
-19.608910030730843

>  <r_i_glide_gscore>  (1) 
-4.9931524884240925

>  <r_i_glide_gscore_strain>  (1) 
0

>  <r_i_glide_hbond>  (1) 
0

>  <r_i_glide_ligand_efficiency>  (1) 
-0.41609604070200773

>  <r_i_glide_ligand_efficiency_ln>  (1) 
-1.4327937561047279

>  <r_i_glide_ligand_efficiency_sa>  (1) 
-0.95262212812327829

>  <r_i_glide_lipo>  (1) 
-1.0014637540884963

>  <r_i_glide_metal>  (1) 
-0

>  <r_i_glide_rewards>  (1) 
-2.9029849298403549

>  <r_lp_Energy>  (1) 
20.318058000000001

>  <r_lp_tautomer_probability>  (1) 
1

>  <s_epik_cmdline>  (1) 
J2VwaWtfcHl0aG9uJywgJy1waHQnLCAnMS4wJywgJy1waCcsICc3LjQnLCAnLXRuJywgJzgnLCAnLW1hJywgJzUwMCcsICctaW1hZScsICc8aW5maWxlLm1hZT4nLCAnLW9tYWUnLCAnPG91dGZpbGUubWFlPic=

>  <s_epik_input>  (1) 
TzFbQ0gyXVtDSDJdT2MoYzEyKWMoT1tDSDNdKVtjSF1bY0hdW2NIXTI=

>  <s_glide_docking_method>  (1) 
confgen

>  <s_i_glide_gridfile>  (1) 
gpcr_drd2_6luq_protein_autoprepared_prepared

>  <s_lp_Force_Field>  (1) 
S-OPLS

>  <s_lp_Variant>  (1) 
Pocket2Mol_78_num_sample_100-1

>  <s_m_source_file>  (1) 
generated__ligand_Pocket2Mol_2026-05-06_prepared.sdf

>  <GenAI_Model>  (1) 
Pocket2Mol

>  <Protein>  (1) 
generic_title2

$$$$
Pocket2Mol_24_num_sample_100
     RDKit          3D

  0  0  0  0  0  0  0  0  0  0999 V3000
M  V30 BEGIN CTAB
M  V30 COUNTS 15 16 0 0 1
M  V30 BEGIN ATOM
M  V30 1 C 10.811154 7.137836 -5.958609 0
M  V30 2 O 10.616403 6.298437 -7.093005 0
M  V30 3 C 9.642155 6.890355 -7.947188 0 CFG=2
M  V30 4 C 10.239531 7.841535 -8.945136 0 CFG=1
M  V30 5 O 9.435080 8.022578 -10.093330 0
M  V30 6 C 10.541060 8.567472 -6.442827 0
M  V30 7 C 9.674931 8.367883 -7.644213 0 CFG=2
M  V30 8 H 10.074307 6.858107 -5.208986 0
M  V30 9 H 11.803166 7.015033 -5.529449 0
M  V30 10 H 8.678389 6.393009 -8.062829 0
M  V30 11 H 11.312005 7.845808 -9.124740 0
M  V30 12 H 8.492129 7.872951 -9.891581 0
M  V30 13 H 10.056796 9.191878 -5.694751 0
M  V30 14 H 11.460579 9.063558 -6.747377 0
M  V30 15 H 8.733396 8.915909 -7.668262 0
M  V30 END ATOM
M  V30 BEGIN BOND
M  V30 1 1 2 1
M  V30 2 1 3 2
M  V30 3 1 4 3
M  V30 4 1 5 4
M  V30 5 1 6 1
M  V30 6 1 7 3
M  V30 7 1 7 4
M  V30 8 1 7 6
M  V30 9 1 8 1
M  V30 10 1 9 1
M  V30 11 1 3 10 CFG=3
M  V30 12 1 4 11 CFG=3
M  V30 13 1 12 5
M  V30 14 1 13 6
M  V30 15 1 14 6
M  V30 16 1 7 15 CFG=3
M  V30 END BOND
M  V30 END CTAB
M  END
>  <i_epik_Tot_Q>  (1) 
0

>  <i_epik_Tot_abs_Q>  (1) 
0

>  <i_i_glide_confnum>  (1) 
2

>  <i_i_glide_lignum>  (1) 
28

>  <i_i_glide_posenum>  (1) 
181

>  <i_i_glide_rotatable_bonds>  (1) 
1

>  <i_lp_mmshare_version>  (1) 
72125

>  <i_m_source_file_index>  (1) 
25

>  <i_f3d_flags>  (1) 
0

>  <num_sample>  (1) 
100

>  <b_lp_Chiralities_Consistent>  (1) 
1

>  <r_epik_Charging_Adjusted_Penalty>  (1) 
0

>  <r_epik_Ionization_Penalty>  (1) 
4.3639151522347116e-08

>  <r_epik_Ionization_Penalty_Charging>  (1) 
0

>  <r_epik_Ionization_Penalty_Neutral>  (1) 
4.3639151522347116e-08

>  <r_epik_State_Penalty>  (1) 
-0

>  <r_glide_ring_energy>  (1) 
1.4390763670009823

>  <r_i_docking_score>  (1) 
-4.9929497786490025

>  <r_i_glide_ecoul>  (1) 
-6.8500111967389881

>  <r_i_glide_eff_state_penalty>  (1) 
-0

>  <r_i_glide_einternal>  (1) 
0.00086000608865283157

>  <r_i_glide_emodel>  (1) 
-26.498132685702945

>  <r_i_glide_emodel_strain>  (1) 
0

>  <r_i_glide_energy>  (1) 
-19.70297477311518

>  <r_i_glide_erotb>  (1) 
0

>  <r_i_glide_esite>  (1) 
0

>  <r_i_glide_evdw>  (1) 
-12.852963576376192

>  <r_i_glide_gscore>  (1) 
-4.9929497786490025

>  <r_i_glide_gscore_strain>  (1) 
0

>  <r_i_glide_hbond>  (1) 
-0.16

>  <r_i_glide_ligand_efficiency>  (1) 
-0.7132785398070004

>  <r_i_glide_ligand_efficiency_ln>  (1) 
-1.6948751068494496

>  <r_i_glide_ligand_efficiency_sa>  (1) 
-1.3644527607991679

>  <r_i_glide_lipo>  (1) 
-0.54499973712349181

>  <r_i_glide_metal>  (1) 
-0

>  <r_i_glide_rewards>  (1) 
-2.6178001831958522

>  <r_lp_Energy>  (1) 
3.2309049999999999

>  <r_lp_tautomer_probability>  (1) 
1

>  <s_epik_cmdline>  (1) 
J2VwaWtfcHl0aG9uJywgJy1waHQnLCAnMS4wJywgJy1waCcsICc3LjQnLCAnLXRuJywgJzgnLCAnLW1hJywgJzUwMCcsICctaW1hZScsICc8aW5maWxlLm1hZT4nLCAnLW9tYWUnLCAnPG91dGZpbGUubWFlPic=

>  <s_epik_input>  (1) 
TzFbQ0gyXVtDSDJdW0NIXShbQ0BIXTEyKVtDQEBIXTJbT0hd

>  <s_glide_docking_method>  (1) 
confgen

>  <s_i_glide_gridfile>  (1) 
gpcr_drd2_6luq_protein_autoprepared_prepared

>  <s_lp_Force_Field>  (1) 
S-OPLS

>  <s_lp_Variant>  (1) 
Pocket2Mol_24_num_sample_100-1

>  <s_m_source_file>  (1) 
generated__ligand_Pocket2Mol_2026-05-06_prepared.sdf

>  <GenAI_Model>  (1) 
Pocket2Mol

>  <Protein>  (1) 
generic_title2

$$$$
Pocket2Mol_28_num_sample_100
     RDKit          3D

  0  0  0  0  0  0  0  0  0  0999 V3000
M  V30 BEGIN CTAB
M  V30 COUNTS 13 13 0 0 1
M  V30 BEGIN ATOM
M  V30 1 N 11.854630 6.599932 -2.983461 0
M  V30 2 C 11.431916 6.569302 -4.298706 0
M  V30 3 C 11.396996 7.659068 -5.091615 0
M  V30 4 C 12.274421 7.803318 -2.441418 0
M  V30 5 O 10.980028 7.618231 -6.364514 0
M  V30 6 C 11.834841 8.974241 -4.544750 0
M  V30 7 O 11.820535 10.002763 -5.219696 0
M  V30 8 C 12.289770 8.966525 -3.128024 0
M  V30 9 H 11.124447 5.594640 -4.639586 0
M  V30 10 H 12.593045 7.735575 -1.413270 0
M  V30 11 H 10.697874 6.735346 -6.547969 0
M  V30 12 H 12.623172 9.887529 -2.676330 0
M  V30 13 H 11.853051 5.755003 -2.424409 0
M  V30 END ATOM
M  V30 BEGIN BOND
M  V30 1 1 2 1
M  V30 2 2 3 2
M  V30 3 1 4 1
M  V30 4 1 5 3
M  V30 5 1 6 3
M  V30 6 2 7 6
M  V30 7 2 8 4
M  V30 8 1 8 6
M  V30 9 1 9 2
M  V30 10 1 10 4
M  V30 11 1 11 5
M  V30 12 1 12 8
M  V30 13 1 13 1
M  V30 END BOND
M  V30 END CTAB
M  END
>  <i_epik_Tot_Q>  (1) 
0

>  <i_epik_Tot_abs_Q>  (1) 
0

>  <i_i_glide_confnum>  (1) 
1

>  <i_i_glide_lignum>  (1) 
32

>  <i_i_glide_posenum>  (1) 
300

>  <i_i_glide_rotatable_bonds>  (1) 
1

>  <i_lp_mmshare_version>  (1) 
72125

>  <i_m_source_file_index>  (1) 
29

>  <i_f3d_flags>  (1) 
0

>  <num_sample>  (1) 
100

>  <b_lp_Chiralities_Consistent>  (1) 
1

>  <r_epik_Charging_Adjusted_Penalty>  (1) 
0.000203171374695584

>  <r_epik_Ionization_Penalty>  (1) 
0.014901896624084464

>  <r_epik_Ionization_Penalty_Charging>  (1) 
0.000203171374695584

>  <r_epik_Ionization_Penalty_Neutral>  (1) 
0.01469872524938888

>  <r_epik_State_Penalty>  (1) 
-0

>  <r_glide_ring_energy>  (1) 
0

>  <r_i_docking_score>  (1) 
-4.9796108896623927

>  <r_i_glide_ecoul>  (1) 
-2.5367049506896104

>  <r_i_glide_eff_state_penalty>  (1) 
-0

>  <r_i_glide_einternal>  (1) 
0.017438576111296067

>  <r_i_glide_emodel>  (1) 
-28.62321583175817

>  <r_i_glide_emodel_strain>  (1) 
0

>  <r_i_glide_energy>  (1) 
-21.180622302849393

>  <r_i_glide_erotb>  (1) 
0

>  <r_i_glide_esite>  (1) 
0

>  <r_i_glide_evdw>  (1) 
-18.643917352159782

>  <r_i_glide_gscore>  (1) 
-4.9796108896623927

>  <r_i_glide_gscore_strain>  (1) 
0

>  <r_i_glide_hbond>  (1) 
0

>  <r_i_glide_ligand_efficiency>  (1) 
-0.62245136120779909

>  <r_i_glide_ligand_efficiency_ln>  (1) 
-1.617049982038631

>  <r_i_glide_ligand_efficiency_sa>  (1) 
-1.2449027224155984

>  <r_i_glide_lipo>  (1) 
-1.4169092794509621

>  <r_i_glide_metal>  (1) 
-0

>  <r_i_glide_rewards>  (1) 
-2.25

>  <r_lp_Energy>  (1) 
11.500328

>  <r_lp_tautomer_probability>  (1) 
1

>  <s_epik_cmdline>  (1) 
J2VwaWtfcHl0aG9uJywgJy1waHQnLCAnMS4wJywgJy1waCcsICc3LjQnLCAnLXRuJywgJzgnLCAnLW1hJywgJzUwMCcsICctaW1hZScsICc8aW5maWxlLm1hZT4nLCAnLW9tYWUnLCAnPG91dGZpbGUubWFlPic=

>  <s_epik_input>  (1) 
W09IXWMxW2NIXW5bY0hdW2NIXWMxW09IXQ==

>  <s_glide_docking_method>  (1) 
confgen

>  <s_i_glide_gridfile>  (1) 
gpcr_drd2_6luq_protein_autoprepared_prepared

>  <s_lp_Force_Field>  (1) 
S-OPLS

>  <s_lp_Variant>  (1) 
Pocket2Mol_28_num_sample_100-1

>  <s_m_source_file>  (1) 
generated__ligand_Pocket2Mol_2026-05-06_prepared.sdf

>  <GenAI_Model>  (1) 
Pocket2Mol

>  <Protein>  (1) 
generic_title2

$$$$
Pocket2Mol_35_num_sample_100
     RDKit          3D

  0  0  0  0  0  0  0  0  0  0999 V3000
M  V30 BEGIN CTAB
M  V30 COUNTS 16 17 0 0 1
M  V30 BEGIN ATOM
M  V30 1 C 11.075820 8.870786 -6.564107 0
M  V30 2 O 10.988344 7.477602 -6.075340 0
M  V30 3 C 11.434839 7.614364 -4.810177 0
M  V30 4 C 11.834839 8.838403 -4.450997 0
M  V30 5 C 12.311713 9.075414 -3.150635 0
M  V30 6 N 12.393138 8.095637 -2.211155 0
M  V30 7 C 11.978196 6.853992 -2.596794 0
M  V30 8 C 11.488416 6.569301 -3.891670 0
M  V30 9 C 11.732710 9.860798 -5.491666 0
M  V30 10 H 11.633960 8.894814 -7.500585 0
M  V30 11 H 10.062595 9.201335 -6.794700 0
M  V30 12 H 12.634796 10.060061 -2.851800 0
M  V30 13 H 12.038434 6.074373 -1.851817 0
M  V30 14 H 11.166197 5.577206 -4.161328 0
M  V30 15 H 11.081853 10.687417 -5.204772 0
M  V30 16 H 12.716950 10.212919 -5.799673 0
M  V30 END ATOM
M  V30 BEGIN BOND
M  V30 1 1 2 1
M  V30 2 1 3 2
M  V30 3 2 4 3
M  V30 4 1 5 4
M  V30 5 2 6 5
M  V30 6 1 7 6
M  V30 7 1 8 3
M  V30 8 2 8 7
M  V30 9 1 9 1
M  V30 10 1 9 4
M  V30 11 1 10 1
M  V30 12 1 11 1
M  V30 13 1 12 5
M  V30 14 1 13 7
M  V30 15 1 14 8
M  V30 16 1 15 9
M  V30 17 1 16 9
M  V30 END BOND
M  V30 END CTAB
M  END
>  <i_epik_Tot_Q>  (1) 
0

>  <i_epik_Tot_abs_Q>  (1) 
0

>  <i_i_glide_confnum>  (1) 
1

>  <i_i_glide_lignum>  (1) 
40

>  <i_i_glide_posenum>  (1) 
76

>  <i_i_glide_rotatable_bonds>  (1) 
0

>  <i_lp_mmshare_version>  (1) 
72125

>  <i_m_source_file_index>  (1) 
36

>  <i_f3d_flags>  (1) 
0

>  <num_sample>  (1) 
100

>  <b_lp_Chiralities_Consistent>  (1) 
1

>  <r_epik_Charging_Adjusted_Penalty>  (1) 
0.44367302241175355

>  <r_epik_Ionization_Penalty>  (1) 
0.44367302241175355

>  <r_epik_Ionization_Penalty_Charging>  (1) 
0

>  <r_epik_Ionization_Penalty_Neutral>  (1) 
0.44367302241175355

>  <r_epik_State_Penalty>  (1) 
0.44367302241175355

>  <r_glide_ring_energy>  (1) 
0

>  <r_i_docking_score>  (1) 
-4.9787752646136738

>  <r_i_glide_ecoul>  (1) 
-0.21394321033648234

>  <r_i_glide_eff_state_penalty>  (1) 
0.44367302241175355

>  <r_i_glide_einternal>  (1) 
0

>  <r_i_glide_emodel>  (1) 
-27.260580372873918

>  <r_i_glide_emodel_strain>  (1) 
0

>  <r_i_glide_energy>  (1) 
-19.98691170213564

>  <r_i_glide_erotb>  (1) 
0

>  <r_i_glide_esite>  (1) 
0

>  <r_i_glide_evdw>  (1) 
-19.772968491799158

>  <r_i_glide_gscore>  (1) 
-5.4224482870254276

>  <r_i_glide_gscore_strain>  (1) 
0

>  <r_i_glide_hbond>  (1) 
0

>  <r_i_glide_ligand_efficiency>  (1) 
-0.55319725162374156

>  <r_i_glide_ligand_efficiency_ln>  (1) 
-1.5572178757495228

>  <r_i_glide_ligand_efficiency_sa>  (1) 
-1.1506966540593186

>  <r_i_glide_lipo>  (1) 
-1.8600417142183305

>  <r_i_glide_metal>  (1) 
-0

>  <r_i_glide_rewards>  (1) 
-2.5416666666666665

>  <r_lp_Energy>  (1) 
12.810587999999999

>  <s_epik_cmdline>  (1) 
J2VwaWtfcHl0aG9uJywgJy1waHQnLCAnMS4wJywgJy1waCcsICc3LjQnLCAnLXRuJywgJzgnLCAnLW1hJywgJzUwMCcsICctaW1hZScsICc8aW5maWxlLm1hZT4nLCAnLW9tYWUnLCAnPG91dGZpbGUubWFlPic=

>  <s_epik_input>  (1) 
TzFbQ0gyXVtDSDJdYyhjMTIpW2NIXW5bY0hdW2NIXTI=

>  <s_glide_docking_method>  (1) 
confgen

>  <s_i_glide_gridfile>  (1) 
gpcr_drd2_6luq_protein_autoprepared_prepared

>  <s_lp_Force_Field>  (1) 
S-OPLS

>  <s_lp_Variant>  (1) 
Pocket2Mol_35_num_sample_100-2

>  <s_m_source_file>  (1) 
generated__ligand_Pocket2Mol_2026-05-06_prepared.sdf

>  <GenAI_Model>  (1) 
Pocket2Mol

>  <Protein>  (1) 
generic_title2

$$$$
Pocket2Mol_78_num_sample_100
     RDKit          3D

  0  0  0  0  0  0  0  0  0  0999 V3000
M  V30 BEGIN CTAB
M  V30 COUNTS 22 23 0 0 1
M  V30 BEGIN ATOM
M  V30 1 C 12.638677 8.734477 -10.076988 0
M  V30 2 O 11.625229 7.753590 -10.248114 0
M  V30 3 C 10.957704 7.369304 -9.102286 0
M  V30 4 C 13.441769 8.379333 -8.827453 0
M  V30 5 O 12.576341 8.522088 -7.714986 0
M  V30 6 C 11.430074 7.769307 -7.822176 0
M  V30 7 C 10.722098 7.378238 -6.656725 0
M  V30 8 O 11.151710 7.762473 -5.405627 0
M  V30 9 C 9.807009 6.569315 -9.204486 0
M  V30 10 C 9.118219 6.169299 -8.044553 0
M  V30 11 C 9.572044 6.575191 -6.776121 0
M  V30 12 C 11.420998 9.146788 -5.215569 0
M  V30 13 H 13.283564 8.736645 -10.955971 0
M  V30 14 H 12.198786 9.728259 -9.986559 0
M  V30 15 H 13.831132 7.369301 -8.902270 0
M  V30 16 H 14.323005 8.991455 -8.691667 0
M  V30 17 H 9.448695 6.261880 -10.175791 0
M  V30 18 H 8.232316 5.556952 -8.128957 0
M  V30 19 H 9.034835 6.270098 -5.891667 0
M  V30 20 H 11.182951 9.421260 -4.188107 0
M  V30 21 H 12.476485 9.369305 -5.372913 0
M  V30 22 H 10.821899 9.781519 -5.871036 0
M  V30 END ATOM
M  V30 BEGIN BOND
M  V30 1 1 2 1
M  V30 2 1 3 2
M  V30 3 1 4 1
M  V30 4 1 5 4
M  V30 5 1 6 3
M  V30 6 1 6 5
M  V30 7 2 7 6
M  V30 8 1 8 7
M  V30 9 2 9 3
M  V30 10 1 10 9
M  V30 11 1 11 7
M  V30 12 2 11 10
M  V30 13 1 12 8
M  V30 14 1 13 1
M  V30 15 1 14 1
M  V30 16 1 15 4
M  V30 17 1 16 4
M  V30 18 1 17 9
M  V30 19 1 18 10
M  V30 20 1 19 11
M  V30 21 1 20 12
M  V30 22 1 21 12
M  V30 23 1 22 12
M  V30 END BOND
M  V30 END CTAB
M  END
>  <i_epik_Tot_Q>  (1) 
0

>  <i_epik_Tot_abs_Q>  (1) 
0

>  <i_i_glide_confnum>  (1) 
2

>  <i_i_glide_lignum>  (1) 
85

>  <i_i_glide_posenum>  (1) 
251

>  <i_i_glide_rotatable_bonds>  (1) 
1

>  <i_lp_mmshare_version>  (1) 
72125

>  <i_m_source_file_index>  (1) 
79

>  <i_f3d_flags>  (1) 
0

>  <num_sample>  (1) 
100

>  <b_lp_Chiralities_Consistent>  (1) 
1

>  <r_epik_Charging_Adjusted_Penalty>  (1) 
0

>  <r_epik_Ionization_Penalty>  (1) 
0

>  <r_epik_Ionization_Penalty_Charging>  (1) 
0

>  <r_epik_Ionization_Penalty_Neutral>  (1) 
0

>  <r_epik_State_Penalty>  (1) 
-0

>  <r_glide_ring_energy>  (1) 
0.0030884499939853893

>  <r_i_docking_score>  (1) 
-4.9766039929298262

>  <r_i_glide_ecoul>  (1) 
-1.1037428645693916

>  <r_i_glide_eff_state_penalty>  (1) 
-0

>  <r_i_glide_einternal>  (1) 
3.9948149943452367

>  <r_i_glide_emodel>  (1) 
-25.920917009112316

>  <r_i_glide_emodel_strain>  (1) 
0

>  <r_i_glide_energy>  (1) 
-21.912843051871832

>  <r_i_glide_erotb>  (1) 
0

>  <r_i_glide_esite>  (1) 
0

>  <r_i_glide_evdw>  (1) 
-20.809100187302441

>  <r_i_glide_gscore>  (1) 
-4.9766039929298262

>  <r_i_glide_gscore_strain>  (1) 
0

>  <r_i_glide_hbond>  (1) 
0

>  <r_i_glide_ligand_efficiency>  (1) 
-0.41471699941081885

>  <r_i_glide_ligand_efficiency_ln>  (1) 
-1.4280451366559765

>  <r_i_glide_ligand_efficiency_sa>  (1) 
-0.9494649117090922

>  <r_i_glide_lipo>  (1) 
-0.78176054265982931

>  <r_i_glide_metal>  (1) 
-0

>  <r_i_glide_rewards>  (1) 
-2.9888270112194659

>  <r_lp_Energy>  (1) 
20.318058000000001

>  <r_lp_tautomer_probability>  (1) 
1

>  <s_epik_cmdline>  (1) 
J2VwaWtfcHl0aG9uJywgJy1waHQnLCAnMS4wJywgJy1waCcsICc3LjQnLCAnLXRuJywgJzgnLCAnLW1hJywgJzUwMCcsICctaW1hZScsICc8aW5maWxlLm1hZT4nLCAnLW9tYWUnLCAnPG91dGZpbGUubWFlPic=

>  <s_epik_input>  (1) 
TzFbQ0gyXVtDSDJdT2MoYzEyKWMoT1tDSDNdKVtjSF1bY0hdW2NIXTI=

>  <s_glide_docking_method>  (1) 
confgen

>  <s_i_glide_gridfile>  (1) 
gpcr_drd2_6luq_protein_autoprepared_prepared

>  <s_lp_Force_Field>  (1) 
S-OPLS

>  <s_lp_Variant>  (1) 
Pocket2Mol_78_num_sample_100-1

>  <s_m_source_file>  (1) 
generated__ligand_Pocket2Mol_2026-05-06_prepared.sdf

>  <GenAI_Model>  (1) 
Pocket2Mol

>  <Protein>  (1) 
generic_title2

$$$$
Pocket2Mol_18_num_sample_100
     RDKit          3D

  0  0  0  0  0  0  0  0  0  0999 V3000
M  V30 BEGIN CTAB
M  V30 COUNTS 15 15 0 0 1
M  V30 BEGIN ATOM
M  V30 1 C 11.834839 6.699525 -3.559642 0
M  V30 2 O 11.688577 6.598010 -4.921259 0
M  V30 3 C 10.815428 7.522158 -5.560885 0
M  V30 4 C 11.374313 8.945494 -5.702152 0
M  V30 5 O 11.434858 9.605199 -4.451483 0
M  V30 6 C 12.496201 9.145085 -3.633988 0
M  V30 7 C 12.198900 7.836760 -2.936244 0
M  V30 8 H 11.627447 5.769625 -3.054822 0
M  V30 9 H 9.834873 7.524186 -5.091703 0
M  V30 10 H 10.644957 7.128598 -6.563123 0
M  V30 11 H 10.689807 9.520686 -6.325374 0
M  V30 12 H 12.337542 8.969288 -6.213041 0
M  V30 13 H 12.634853 9.884999 -2.847771 0
M  V30 14 H 13.434849 9.089258 -4.183562 0
M  V30 15 H 12.296480 7.838346 -1.860731 0
M  V30 END ATOM
M  V30 BEGIN BOND
M  V30 1 1 2 1
M  V30 2 1 3 2
M  V30 3 1 4 3
M  V30 4 1 5 4
M  V30 5 1 6 5
M  V30 6 2 7 1
M  V30 7 1 7 6
M  V30 8 1 8 1
M  V30 9 1 9 3
M  V30 10 1 10 3
M  V30 11 1 11 4
M  V30 12 1 12 4
M  V30 13 1 13 6
M  V30 14 1 14 6
M  V30 15 1 15 7
M  V30 END BOND
M  V30 END CTAB
M  END
>  <i_epik_Tot_Q>  (1) 
0

>  <i_epik_Tot_abs_Q>  (1) 
0

>  <i_i_glide_confnum>  (1) 
2

>  <i_i_glide_lignum>  (1) 
21

>  <i_i_glide_posenum>  (1) 
135

>  <i_i_glide_rotatable_bonds>  (1) 
0

>  <i_lp_mmshare_version>  (1) 
72125

>  <i_m_source_file_index>  (1) 
19

>  <i_f3d_flags>  (1) 
0

>  <num_sample>  (1) 
100

>  <b_lp_Chiralities_Consistent>  (1) 
1

>  <r_epik_Charging_Adjusted_Penalty>  (1) 
0

>  <r_epik_Ionization_Penalty>  (1) 
5.6701613537443791e-14

>  <r_epik_Ionization_Penalty_Charging>  (1) 
0

>  <r_epik_Ionization_Penalty_Neutral>  (1) 
5.6701613537443791e-14

>  <r_epik_State_Penalty>  (1) 
-0

>  <r_glide_ring_energy>  (1) 
0.00079047383587571227

>  <r_i_docking_score>  (1) 
-4.9746387659777351

>  <r_i_glide_ecoul>  (1) 
-0.84394823044080458

>  <r_i_glide_eff_state_penalty>  (1) 
-0

>  <r_i_glide_einternal>  (1) 
0

>  <r_i_glide_emodel>  (1) 
-21.353293575874588

>  <r_i_glide_emodel_strain>  (1) 
0

>  <r_i_glide_energy>  (1) 
-16.166063946665865

>  <r_i_glide_erotb>  (1) 
0

>  <r_i_glide_esite>  (1) 
0

>  <r_i_glide_evdw>  (1) 
-15.322115716225062

>  <r_i_glide_gscore>  (1) 
-4.9746387659777351

>  <r_i_glide_gscore_strain>  (1) 
0

>  <r_i_glide_hbond>  (1) 
0

>  <r_i_glide_ligand_efficiency>  (1) 
-0.71066268085396211

>  <r_i_glide_ligand_efficiency_ln>  (1) 
-1.6886593664687937

>  <r_i_glide_ligand_efficiency_sa>  (1) 
-1.3594488026381668

>  <r_i_glide_lipo>  (1) 
-1.4029994486538944

>  <r_i_glide_metal>  (1) 
-0

>  <r_i_glide_rewards>  (1) 
-2.6789412969464674

>  <r_lp_Energy>  (1) 
7.3473319999999998

>  <r_lp_tautomer_probability>  (1) 
1

>  <s_epik_cmdline>  (1) 
J2VwaWtfcHl0aG9uJywgJy1waHQnLCAnMS4wJywgJy1waCcsICc3LjQnLCAnLXRuJywgJzgnLCAnLW1hJywgJzUwMCcsICctaW1hZScsICc8aW5maWxlLm1hZT4nLCAnLW9tYWUnLCAnPG91dGZpbGUubWFlPic=

>  <s_epik_input>  (1) 
W0NIXTE9W0NIXVtDSDJdT1tDSDJdW0NIMl1PMQ==

>  <s_glide_docking_method>  (1) 
confgen

>  <s_i_glide_gridfile>  (1) 
gpcr_drd2_6luq_protein_autoprepared_prepared

>  <s_lp_Force_Field>  (1) 
S-OPLS

>  <s_lp_Variant>  (1) 
Pocket2Mol_18_num_sample_100-1

>  <s_m_source_file>  (1) 
generated__ligand_Pocket2Mol_2026-05-06_prepared.sdf

>  <GenAI_Model>  (1) 
Pocket2Mol

>  <Protein>  (1) 
generic_title2

$$$$
Pocket2Mol_31_num_sample_100
     RDKit          3D

  0  0  0  0  0  0  0  0  0  0999 V3000
M  V30 BEGIN CTAB
M  V30 COUNTS 20 21 0 0 1
M  V30 BEGIN ATOM
M  V30 1 C 12.134574 9.522662 -6.201540 0
M  V30 2 O 10.752782 9.350827 -5.899620 0
M  V30 3 C 10.289313 8.082277 -6.369085 0 CFG=2
M  V30 4 C 8.818212 8.169006 -6.712549 0
M  V30 5 C 10.807278 6.904879 -5.523513 0
M  V30 6 C 12.363290 8.729347 -7.491658 0
M  V30 7 C 11.434833 6.329177 -6.793233 0
M  V30 8 C 11.271128 7.696782 -7.472783 0 CFG=1
M  V30 9 H 12.388672 10.578346 -6.291667 0
M  V30 10 H 12.719414 9.117137 -5.377201 0
M  V30 11 H 8.424075 7.181775 -6.951379 0
M  V30 12 H 8.646453 8.813966 -7.574346 0
M  V30 13 H 8.234839 8.569303 -5.891669 0
M  V30 14 H 11.541761 7.186644 -4.768986 0
M  V30 15 H 10.024465 6.276684 -5.096783 0
M  V30 16 H 12.234573 9.369303 -8.363492 0
M  V30 17 H 13.362396 8.301818 -7.549968 0
M  V30 18 H 12.459489 5.978483 -6.691637 0
M  V30 19 H 10.806647 5.565995 -7.254943 0
M  V30 20 H 10.784509 7.582464 -8.442900 0
M  V30 END ATOM
M  V30 BEGIN BOND
M  V30 1 1 2 1
M  V30 2 1 3 2
M  V30 3 1 3 4 CFG=3
M  V30 4 1 5 3
M  V30 5 1 6 1
M  V30 6 1 7 5
M  V30 7 1 8 3
M  V30 8 1 8 6
M  V30 9 1 8 7
M  V30 10 1 9 1
M  V30 11 1 10 1
M  V30 12 1 11 4
M  V30 13 1 12 4
M  V30 14 1 13 4
M  V30 15 1 14 5
M  V30 16 1 15 5
M  V30 17 1 16 6
M  V30 18 1 17 6
M  V30 19 1 18 7
M  V30 20 1 19 7
M  V30 21 1 8 20 CFG=3
M  V30 END BOND
M  V30 END CTAB
M  END
>  <i_epik_Tot_Q>  (1) 
0

>  <i_epik_Tot_abs_Q>  (1) 
0

>  <i_i_glide_confnum>  (1) 
1

>  <i_i_glide_lignum>  (1) 
35

>  <i_i_glide_posenum>  (1) 
382

>  <i_i_glide_rotatable_bonds>  (1) 
0

>  <i_lp_mmshare_version>  (1) 
72125

>  <i_m_source_file_index>  (1) 
32

>  <i_f3d_flags>  (1) 
0

>  <num_sample>  (1) 
100

>  <b_lp_Chiralities_Consistent>  (1) 
1

>  <r_epik_Charging_Adjusted_Penalty>  (1) 
0

>  <r_epik_Ionization_Penalty>  (1) 
2.3587344998035955e-11

>  <r_epik_Ionization_Penalty_Charging>  (1) 
0

>  <r_epik_Ionization_Penalty_Neutral>  (1) 
2.3587344998035955e-11

>  <r_epik_State_Penalty>  (1) 
-0

>  <r_glide_ring_energy>  (1) 
0

>  <r_i_docking_score>  (1) 
-4.9745628549197525

>  <r_i_glide_ecoul>  (1) 
-0.86504293416965761

>  <r_i_glide_eff_state_penalty>  (1) 
-0

>  <r_i_glide_einternal>  (1) 
0

>  <r_i_glide_emodel>  (1) 
-19.03971984889721

>  <r_i_glide_emodel_strain>  (1) 
0

>  <r_i_glide_energy>  (1) 
-14.358676717693466

>  <r_i_glide_erotb>  (1) 
0

>  <r_i_glide_esite>  (1) 
0

>  <r_i_glide_evdw>  (1) 
-13.493633783523808

>  <r_i_glide_gscore>  (1) 
-4.9745628549197525

>  <r_i_glide_gscore_strain>  (1) 
0

>  <r_i_glide_hbond>  (1) 
0

>  <r_i_glide_ligand_efficiency>  (1) 
-0.62182035686496906

>  <r_i_glide_ligand_efficiency_ln>  (1) 
-1.6154107124911121

>  <r_i_glide_ligand_efficiency_sa>  (1) 
-1.2436407137299383

>  <r_i_glide_lipo>  (1) 
-1.4698156845223103

>  <r_i_glide_metal>  (1) 
-0

>  <r_i_glide_rewards>  (1) 
-2.7003090410958035

>  <r_lp_Energy>  (1) 
15.613807

>  <r_lp_tautomer_probability>  (1) 
1

>  <s_epik_cmdline>  (1) 
J2VwaWtfcHl0aG9uJywgJy1waHQnLCAnMS4wJywgJy1waCcsICc3LjQnLCAnLXRuJywgJzgnLCAnLW1hJywgJzUwMCcsICctaW1hZScsICc8aW5maWxlLm1hZT4nLCAnLW9tYWUnLCAnPG91dGZpbGUubWFlPic=

>  <s_epik_input>  (1) 
TzFbQ0gyXVtDSDJdW0NASF0oW0NAXTEyW0NIM10pW0NIMl1bQ0gyXTI=

>  <s_glide_docking_method>  (1) 
confgen

>  <s_i_glide_gridfile>  (1) 
gpcr_drd2_6luq_protein_autoprepared_prepared

>  <s_lp_Force_Field>  (1) 
S-OPLS

>  <s_lp_Variant>  (1) 
Pocket2Mol_31_num_sample_100-1

>  <s_m_source_file>  (1) 
generated__ligand_Pocket2Mol_2026-05-06_prepared.sdf

>  <GenAI_Model>  (1) 
Pocket2Mol

>  <Protein>  (1) 
generic_title2

$$$$
Pocket2Mol_40_num_sample_100
     RDKit          3D

  0  0  0  0  0  0  0  0  0  0999 V3000
M  V30 BEGIN CTAB
M  V30 COUNTS 14 14 0 0 1
M  V30 BEGIN ATOM
M  V30 1 C 10.205993 6.619314 -7.929292 0
M  V30 2 O 11.310237 7.354355 -8.426207 0
M  V30 3 C 11.625346 8.487794 -7.720298 0
M  V30 4 C 10.309638 6.526152 -6.411668 0
M  V30 5 O 10.347629 7.821213 -5.846316 0
M  V30 6 C 11.159722 8.737933 -6.470208 0
M  V30 7 C 11.513279 10.025422 -5.689696 0
M  V30 8 O 11.034839 10.122052 -4.538824 0 CHG=-1
M  V30 9 O 12.234858 10.841452 -6.291680 0
M  V30 10 H 10.213580 5.627915 -8.377965 0
M  V30 11 H 9.272062 7.097004 -8.223873 0
M  V30 12 H 12.266653 9.152267 -8.277413 0
M  V30 13 H 11.206123 5.976988 -6.121747 0
M  V30 14 H 9.455517 5.985263 -6.009221 0
M  V30 END ATOM
M  V30 BEGIN BOND
M  V30 1 1 2 1
M  V30 2 1 3 2
M  V30 3 1 4 1
M  V30 4 1 5 4
M  V30 5 2 6 3
M  V30 6 1 6 5
M  V30 7 1 7 6
M  V30 8 1 8 7
M  V30 9 2 9 7
M  V30 10 1 10 1
M  V30 11 1 11 1
M  V30 12 1 12 3
M  V30 13 1 13 4
M  V30 14 1 14 4
M  V30 END BOND
M  V30 END CTAB
M  END
>  <i_epik_Tot_Q>  (1) 
-1

>  <i_epik_Tot_abs_Q>  (1) 
1

>  <i_i_glide_confnum>  (1) 
1

>  <i_i_glide_lignum>  (1) 
45

>  <i_i_glide_posenum>  (1) 
11

>  <i_i_glide_rotatable_bonds>  (1) 
1

>  <i_lp_mmshare_version>  (1) 
72125

>  <i_m_source_file_index>  (1) 
41

>  <i_f3d_flags>  (1) 
0

>  <num_sample>  (1) 
100

>  <b_lp_Chiralities_Consistent>  (1) 
1

>  <r_epik_Charging_Adjusted_Penalty>  (1) 
1.9393830553820406e-05

>  <r_epik_Ionization_Penalty>  (1) 
1.9393830553820406e-05

>  <r_epik_Ionization_Penalty_Charging>  (1) 
1.9393830553820406e-05

>  <r_epik_Ionization_Penalty_Neutral>  (1) 
0

>  <r_epik_State_Penalty>  (1) 
-0

>  <r_glide_ring_energy>  (1) 
0

>  <r_i_docking_score>  (1) 
-4.9724634537282419

>  <r_i_glide_ecoul>  (1) 
-2.3054425865051851

>  <r_i_glide_eff_state_penalty>  (1) 
-0

>  <r_i_glide_einternal>  (1) 
0.26726900200005921

>  <r_i_glide_emodel>  (1) 
-23.930881374682986

>  <r_i_glide_emodel_strain>  (1) 
7.5264727783519447e-10

>  <r_i_glide_energy>  (1) 
-16.8024249249832

>  <r_i_glide_erotb>  (1) 
0

>  <r_i_glide_esite>  (1) 
0

>  <r_i_glide_evdw>  (1) 
-14.496982338478013

>  <r_i_glide_gscore>  (1) 
-4.9724634537282419

>  <r_i_glide_gscore_strain>  (1) 
0

>  <r_i_glide_hbond>  (1) 
0

>  <r_i_glide_ligand_efficiency>  (1) 
-0.55249593930313801

>  <r_i_glide_ligand_efficiency_ln>  (1) 
-1.5552437226261628

>  <r_i_glide_ligand_efficiency_sa>  (1) 
-1.1492378656463242

>  <r_i_glide_lipo>  (1) 
-0.74346461549523035

>  <r_i_glide_metal>  (1) 
-0

>  <r_i_glide_rewards>  (1) 
-3.1583333333333332

>  <r_lp_Energy>  (1) 
18.695968999999998

>  <r_lp_tautomer_probability>  (1) 
1

>  <s_epik_cmdline>  (1) 
J2VwaWtfcHl0aG9uJywgJy1waHQnLCAnMS4wJywgJy1waCcsICc3LjQnLCAnLXRuJywgJzgnLCAnLW1hJywgJzUwMCcsICctaW1hZScsICc8aW5maWxlLm1hZT4nLCAnLW9tYWUnLCAnPG91dGZpbGUubWFlPic=

>  <s_epik_input>  (1) 
TzFbQ0gyXVtDSDJdT1tDSF09QzFDKD1PKVtPSF0=

>  <s_glide_docking_method>  (1) 
confgen

>  <s_i_glide_gridfile>  (1) 
gpcr_drd2_6luq_protein_autoprepared_prepared

>  <s_lp_Force_Field>  (1) 
S-OPLS

>  <s_lp_Variant>  (1) 
Pocket2Mol_40_num_sample_100-1

>  <s_m_source_file>  (1) 
generated__ligand_Pocket2Mol_2026-05-06_prepared.sdf

>  <GenAI_Model>  (1) 
Pocket2Mol

>  <Protein>  (1) 
generic_title2

$$$$
Pocket2Mol_15_num_sample_100
     RDKit          3D

  0  0  0  0  0  0  0  0  0  0999 V3000
M  V30 BEGIN CTAB
M  V30 COUNTS 17 17 0 0 1
M  V30 BEGIN ATOM
M  V30 1 C 11.938502 7.078158 -3.463741 0
M  V30 2 O 11.834839 6.569300 -4.787919 0
M  V30 3 C 12.353948 8.558792 -3.423141 0
M  V30 4 O 11.434839 9.414383 -4.090457 0
M  V30 5 C 10.672947 6.969293 -5.491495 0
M  V30 6 C 11.597760 9.419340 -5.501957 0
M  V30 7 C 10.799211 8.318022 -6.219638 0
M  V30 8 H 11.034839 6.889168 -2.890231 0
M  V30 9 H 12.710417 6.501050 -2.956601 0
M  V30 10 H 12.393488 8.877083 -2.381127 0
M  V30 11 H 13.365039 8.690300 -3.809892 0
M  V30 12 H 10.444730 6.196845 -6.226474 0
M  V30 13 H 9.834839 6.969302 -4.805653 0
M  V30 14 H 12.652614 9.369304 -5.776179 0
M  V30 15 H 11.253771 10.386704 -5.869393 0
M  V30 16 H 11.254048 8.154959 -7.197111 0
M  V30 17 H 9.790662 8.679657 -6.425140 0
M  V30 END ATOM
M  V30 BEGIN BOND
M  V30 1 1 2 1
M  V30 2 1 3 1
M  V30 3 1 4 3
M  V30 4 1 5 2
M  V30 5 1 6 4
M  V30 6 1 7 5
M  V30 7 1 7 6
M  V30 8 1 8 1
M  V30 9 1 9 1
M  V30 10 1 10 3
M  V30 11 1 11 3
M  V30 12 1 12 5
M  V30 13 1 13 5
M  V30 14 1 14 6
M  V30 15 1 15 6
M  V30 16 1 16 7
M  V30 17 1 17 7
M  V30 END BOND
M  V30 END CTAB
M  END
>  <i_epik_Tot_Q>  (1) 
0

>  <i_epik_Tot_abs_Q>  (1) 
0

>  <i_i_glide_confnum>  (1) 
8

>  <i_i_glide_lignum>  (1) 
18

>  <i_i_glide_posenum>  (1) 
295

>  <i_i_glide_rotatable_bonds>  (1) 
0

>  <i_lp_mmshare_version>  (1) 
72125

>  <i_m_source_file_index>  (1) 
16

>  <i_f3d_flags>  (1) 
0

>  <num_sample>  (1) 
100

>  <b_lp_Chiralities_Consistent>  (1) 
1

>  <r_epik_Charging_Adjusted_Penalty>  (1) 
0

>  <r_epik_Ionization_Penalty>  (1) 
3.933197540425548e-12

>  <r_epik_Ionization_Penalty_Charging>  (1) 
0

>  <r_epik_Ionization_Penalty_Neutral>  (1) 
3.933197540425548e-12

>  <r_epik_State_Penalty>  (1) 
-0

>  <r_glide_ring_energy>  (1) 
0.00055159938950669681

>  <r_i_docking_score>  (1) 
-4.9712332722627846

>  <r_i_glide_ecoul>  (1) 
-0.74521818201675816

>  <r_i_glide_eff_state_penalty>  (1) 
-0

>  <r_i_glide_einternal>  (1) 
0

>  <r_i_glide_emodel>  (1) 
-21.37623973273255

>  <r_i_glide_emodel_strain>  (1) 
0

>  <r_i_glide_energy>  (1) 
-15.980792529604059

>  <r_i_glide_erotb>  (1) 
0

>  <r_i_glide_esite>  (1) 
0

>  <r_i_glide_evdw>  (1) 
-15.235574347587301

>  <r_i_glide_gscore>  (1) 
-4.9712332722627846

>  <r_i_glide_gscore_strain>  (1) 
0

>  <r_i_glide_hbond>  (1) 
0

>  <r_i_glide_ligand_efficiency>  (1) 
-0.7101761817518264

>  <r_i_glide_ligand_efficiency_ln>  (1) 
-1.6875033591424864

>  <r_i_glide_ligand_efficiency_sa>  (1) 
-1.3585181633353005

>  <r_i_glide_lipo>  (1) 
-1.4783592553159

>  <r_i_glide_metal>  (1) 
-0

>  <r_i_glide_rewards>  (1) 
-2.6193125722650059

>  <r_lp_Energy>  (1) 
9.641

>  <r_lp_tautomer_probability>  (1) 
1

>  <s_epik_cmdline>  (1) 
J2VwaWtfcHl0aG9uJywgJy1waHQnLCAnMS4wJywgJy1waCcsICc3LjQnLCAnLXRuJywgJzgnLCAnLW1hJywgJzUwMCcsICctaW1hZScsICc8aW5maWxlLm1hZT4nLCAnLW9tYWUnLCAnPG91dGZpbGUubWFlPic=

>  <s_epik_input>  (1) 
W0NIMl0xT1tDSDJdW0NIMl1bQ0gyXU9bQ0gyXTE=

>  <s_glide_docking_method>  (1) 
confgen

>  <s_i_glide_gridfile>  (1) 
gpcr_drd2_6luq_protein_autoprepared_prepared

>  <s_lp_Force_Field>  (1) 
S-OPLS

>  <s_lp_Variant>  (1) 
Pocket2Mol_15_num_sample_100-1

>  <s_m_source_file>  (1) 
generated__ligand_Pocket2Mol_2026-05-06_prepared.sdf

>  <GenAI_Model>  (1) 
Pocket2Mol

>  <Protein>  (1) 
generic_title2

$$$$
Pocket2Mol_13_num_sample_100
     RDKit          3D

  0  0  0  0  0  0  0  0  0  0999 V3000
M  V30 BEGIN CTAB
M  V30 COUNTS 15 15 0 0 1
M  V30 BEGIN ATOM
M  V30 1 N 11.797480 8.148844 -9.745857 0
M  V30 2 C 12.582042 8.547390 -8.687283 0
M  V30 3 C 11.737078 8.800673 -7.613366 0
M  V30 4 C 10.497770 8.144652 -9.371540 0
M  V30 5 C 12.137740 9.267682 -6.242547 0
M  V30 6 N 9.434836 7.794210 -10.204267 0
M  V30 7 C 10.394396 8.530263 -8.079089 0
M  V30 8 H 13.658628 8.619917 -8.786065 0
M  V30 9 H 13.218442 9.388501 -6.178148 0
M  V30 10 H 11.663651 10.224592 -6.019777 0
M  V30 11 H 11.820062 8.538234 -5.497000 0
M  V30 12 H 8.437684 7.778198 -9.891622 0
M  V30 13 H 12.140729 7.900386 -10.660486 0
M  V30 14 H 9.475083 8.618443 -7.522050 0
M  V30 15 H 9.562975 7.503077 -11.159898 0
M  V30 END ATOM
M  V30 BEGIN BOND
M  V30 1 1 2 1
M  V30 2 2 3 2
M  V30 3 1 4 1
M  V30 4 1 5 3
M  V30 5 1 6 4
M  V30 6 1 7 3
M  V30 7 2 7 4
M  V30 8 1 8 2
M  V30 9 1 9 5
M  V30 10 1 10 5
M  V30 11 1 11 5
M  V30 12 1 12 6
M  V30 13 1 13 1
M  V30 14 1 14 7
M  V30 15 1 15 6
M  V30 END BOND
M  V30 END CTAB
M  END
>  <i_epik_Tot_Q>  (1) 
0

>  <i_epik_Tot_abs_Q>  (1) 
0

>  <i_i_glide_confnum>  (1) 
1

>  <i_i_glide_lignum>  (1) 
16

>  <i_i_glide_posenum>  (1) 
389

>  <i_i_glide_rotatable_bonds>  (1) 
0

>  <i_lp_mmshare_version>  (1) 
72125

>  <i_m_source_file_index>  (1) 
14

>  <i_f3d_flags>  (1) 
0

>  <num_sample>  (1) 
100

>  <b_lp_Chiralities_Consistent>  (1) 
1

>  <r_epik_Charging_Adjusted_Penalty>  (1) 
0

>  <r_epik_Ionization_Penalty>  (1) 
0.00031849139131666116

>  <r_epik_Ionization_Penalty_Charging>  (1) 
0

>  <r_epik_Ionization_Penalty_Neutral>  (1) 
0.00031849139131666116

>  <r_epik_State_Penalty>  (1) 
-0

>  <r_glide_ring_energy>  (1) 
0

>  <r_i_docking_score>  (1) 
-4.9706005262338735

>  <r_i_glide_ecoul>  (1) 
-6.1500964906639171

>  <r_i_glide_eff_state_penalty>  (1) 
-0

>  <r_i_glide_einternal>  (1) 
0

>  <r_i_glide_emodel>  (1) 
-23.829959824862208

>  <r_i_glide_emodel_strain>  (1) 
0

>  <r_i_glide_energy>  (1) 
-17.518860534449821

>  <r_i_glide_erotb>  (1) 
0

>  <r_i_glide_esite>  (1) 
-0.10000000000000001

>  <r_i_glide_evdw>  (1) 
-11.368764043785903

>  <r_i_glide_gscore>  (1) 
-4.9706005262338735

>  <r_i_glide_gscore_strain>  (1) 
0

>  <r_i_glide_hbond>  (1) 
-0.16

>  <r_i_glide_ligand_efficiency>  (1) 
-0.71008578946198198

>  <r_i_glide_ligand_efficiency_ln>  (1) 
-1.6872885711832835

>  <r_i_glide_ligand_efficiency_sa>  (1) 
-1.3583452491053749

>  <r_i_glide_lipo>  (1) 
-0.75298118377832346

>  <r_i_glide_metal>  (1) 
-0

>  <r_i_glide_rewards>  (1) 
-2.4666666666666668

>  <r_lp_Energy>  (1) 
-3.18065

>  <r_lp_tautomer_probability>  (1) 
1

>  <s_epik_cmdline>  (1) 
J2VwaWtfcHl0aG9uJywgJy1waHQnLCAnMS4wJywgJy1waCcsICc3LjQnLCAnLXRuJywgJzgnLCAnLW1hJywgJzUwMCcsICctaW1hZScsICc8aW5maWxlLm1hZT4nLCAnLW9tYWUnLCAnPG91dGZpbGUubWFlPic=

>  <s_epik_input>  (1) 
W05IMl1DKFtDSDJdMSk9TltDSF09QzFbQ0gzXQ==

>  <s_glide_docking_method>  (1) 
confgen

>  <s_i_glide_gridfile>  (1) 
gpcr_drd2_6luq_protein_autoprepared_prepared

>  <s_lp_Force_Field>  (1) 
S-OPLS

>  <s_lp_Variant>  (1) 
Pocket2Mol_13_num_sample_100-1

>  <s_m_source_file>  (1) 
generated__ligand_Pocket2Mol_2026-05-06_prepared.sdf

>  <GenAI_Model>  (1) 
Pocket2Mol

>  <Protein>  (1) 
generic_title2

$$$$
Pocket2Mol_42_num_sample_100
     RDKit          3D

  0  0  0  0  0  0  0  0  0  0999 V3000
M  V30 BEGIN CTAB
M  V30 COUNTS 23 24 0 0 1
M  V30 BEGIN ATOM
M  V30 1 C 10.315274 8.508531 -5.998761 0
M  V30 2 O 11.069710 9.007958 -7.086422 0
M  V30 3 C 11.186851 8.003419 -8.082485 0 CFG=2
M  V30 4 C 12.570703 8.169299 -8.722532 0
M  V30 5 C 10.064584 8.097616 -9.129621 0
M  V30 6 C 10.757902 7.059093 -5.889055 0
M  V30 7 C 9.636285 6.651348 -9.371769 0
M  V30 8 C 10.968559 6.668113 -7.342244 0 CFG=1
M  V30 9 C 9.742644 6.008201 -7.995278 0
M  V30 10 H 10.517189 9.080965 -5.093375 0
M  V30 11 H 9.249164 8.572119 -6.227379 0
M  V30 12 H 12.737999 7.417310 -9.492536 0
M  V30 13 H 12.660648 9.148443 -9.192382 0
M  V30 14 H 13.365709 8.082309 -7.982700 0
M  V30 15 H 9.219281 8.659292 -8.728779 0
M  V30 16 H 10.373178 8.594248 -10.048142 0
M  V30 17 H 11.700628 7.002051 -5.345914 0
M  V30 18 H 10.034702 6.433755 -5.364401 0
M  V30 19 H 8.634856 6.569244 -9.790639 0
M  V30 20 H 10.307840 6.169299 -10.075666 0
M  V30 21 H 11.834838 6.017540 -7.428005 0
M  V30 22 H 8.834214 6.233553 -7.433833 0
M  V30 23 H 9.831140 4.925554 -8.053428 0
M  V30 END ATOM
M  V30 BEGIN BOND
M  V30 1 1 2 1
M  V30 2 1 3 2
M  V30 3 1 3 4 CFG=3
M  V30 4 1 5 3
M  V30 5 1 6 1
M  V30 6 1 7 5
M  V30 7 1 8 3
M  V30 8 1 8 6
M  V30 9 1 9 7
M  V30 10 1 9 8
M  V30 11 1 10 1
M  V30 12 1 11 1
M  V30 13 1 12 4
M  V30 14 1 13 4
M  V30 15 1 14 4
M  V30 16 1 15 5
M  V30 17 1 16 5
M  V30 18 1 17 6
M  V30 19 1 18 6
M  V30 20 1 19 7
M  V30 21 1 20 7
M  V30 22 1 8 21 CFG=1
M  V30 23 1 22 9
M  V30 24 1 23 9
M  V30 END BOND
M  V30 END CTAB
M  END
>  <i_epik_Tot_Q>  (1) 
0

>  <i_epik_Tot_abs_Q>  (1) 
0

>  <i_i_glide_confnum>  (1) 
3

>  <i_i_glide_lignum>  (1) 
47

>  <i_i_glide_posenum>  (1) 
330

>  <i_i_glide_rotatable_bonds>  (1) 
0

>  <i_lp_mmshare_version>  (1) 
72125

>  <i_m_source_file_index>  (1) 
43

>  <i_f3d_flags>  (1) 
0

>  <num_sample>  (1) 
100

>  <b_lp_Chiralities_Consistent>  (1) 
1

>  <r_epik_Charging_Adjusted_Penalty>  (1) 
0

>  <r_epik_Ionization_Penalty>  (1) 
2.4347883345708157e-11

>  <r_epik_Ionization_Penalty_Charging>  (1) 
0

>  <r_epik_Ionization_Penalty_Neutral>  (1) 
2.4347883345708157e-11

>  <r_epik_State_Penalty>  (1) 
-0

>  <r_glide_ring_energy>  (1) 
1.1035134730129632

>  <r_i_docking_score>  (1) 
-4.9693219123583265

>  <r_i_glide_ecoul>  (1) 
-0.43217766898218385

>  <r_i_glide_eff_state_penalty>  (1) 
-0

>  <r_i_glide_einternal>  (1) 
0

>  <r_i_glide_emodel>  (1) 
-22.795803213042454

>  <r_i_glide_emodel_strain>  (1) 
0

>  <r_i_glide_energy>  (1) 
-17.535581138103439

>  <r_i_glide_erotb>  (1) 
0

>  <r_i_glide_esite>  (1) 
0

>  <r_i_glide_evdw>  (1) 
-17.103403469121254

>  <r_i_glide_gscore>  (1) 
-4.9693219123583265

>  <r_i_glide_gscore_strain>  (1) 
0

>  <r_i_glide_hbond>  (1) 
0

>  <r_i_glide_ligand_efficiency>  (1) 
-0.5521468791509252

>  <r_i_glide_ligand_efficiency_ln>  (1) 
-1.554261138733813

>  <r_i_glide_ligand_efficiency_sa>  (1) 
-1.1485117912704343

>  <r_i_glide_lipo>  (1) 
-1.087192798410008

>  <r_i_glide_metal>  (1) 
-0

>  <r_i_glide_rewards>  (1) 
-2.9621322901449285

>  <r_lp_Energy>  (1) 
5.4699619999999998

>  <r_lp_tautomer_probability>  (1) 
1

>  <s_epik_cmdline>  (1) 
J2VwaWtfcHl0aG9uJywgJy1waHQnLCAnMS4wJywgJy1waCcsICc3LjQnLCAnLXRuJywgJzgnLCAnLW1hJywgJzUwMCcsICctaW1hZScsICc8aW5maWxlLm1hZT4nLCAnLW9tYWUnLCAnPG91dGZpbGUubWFlPic=

>  <s_epik_input>  (1) 
TzFbQ0gyXVtDSDJdW0NASF0oW0NAXTEyW0NIM10pW0NIMl1bQ0gyXVtDSDJdMg==

>  <s_glide_docking_method>  (1) 
confgen

>  <s_i_glide_gridfile>  (1) 
gpcr_drd2_6luq_protein_autoprepared_prepared

>  <s_lp_Force_Field>  (1) 
S-OPLS

>  <s_lp_Variant>  (1) 
Pocket2Mol_42_num_sample_100-1

>  <s_m_source_file>  (1) 
generated__ligand_Pocket2Mol_2026-05-06_prepared.sdf

>  <GenAI_Model>  (1) 
Pocket2Mol

>  <Protein>  (1) 
generic_title2

$$$$
Pocket2Mol_91_num_sample_100
     RDKit          3D

  0  0  0  0  0  0  0  0  0  0999 V3000
M  V30 BEGIN CTAB
M  V30 COUNTS 22 23 0 0 1
M  V30 BEGIN ATOM
M  V30 1 C 10.460007 6.701274 -5.781929 0
M  V30 2 O 10.604775 8.117560 -5.764221 0
M  V30 3 C 9.291863 6.305386 -6.683050 0
M  V30 4 O 9.034839 7.333252 -7.593759 0
M  V30 5 C 11.435567 8.708270 -6.645248 0
M  V30 6 C 10.051020 7.554326 -8.469287 0
M  V30 7 C 9.924027 7.125708 -9.804684 0
M  V30 8 O 12.282086 9.536356 -6.315126 0
M  V30 9 C 11.236480 8.231478 -8.063374 0
M  V30 10 C 10.967224 7.377014 -10.709166 0
M  V30 11 C 12.239573 8.464814 -9.023803 0
M  V30 12 N 10.898243 6.969301 -12.040705 0
M  V30 13 N 12.074031 8.031928 -10.291667 0 CHG=1
M  V30 14 H 11.383038 6.234604 -6.131637 0
M  V30 15 H 10.293697 6.333521 -4.768963 0
M  V30 16 H 9.484041 5.366200 -7.199072 0
M  V30 17 H 8.387475 6.168911 -6.093015 0
M  V30 18 H 9.031705 6.611001 -10.126436 0
M  V30 19 H 13.170729 8.969303 -8.814057 0
M  V30 20 H 10.099483 6.461386 -12.395427 0
M  V30 21 H 11.657231 7.131722 -12.685747 0
M  V30 22 H 12.819787 8.210381 -10.964615 0
M  V30 END ATOM
M  V30 BEGIN BOND
M  V30 1 1 2 1
M  V30 2 1 3 1
M  V30 3 1 4 3
M  V30 4 1 5 2
M  V30 5 1 6 4
M  V30 6 1 7 6
M  V30 7 2 8 5
M  V30 8 1 9 5
M  V30 9 2 9 6
M  V30 10 2 10 7
M  V30 11 1 11 9
M  V30 12 1 12 10
M  V30 13 1 13 10
M  V30 14 2 13 11
M  V30 15 1 14 1
M  V30 16 1 15 1
M  V30 17 1 16 3
M  V30 18 1 17 3
M  V30 19 1 18 7
M  V30 20 1 19 11
M  V30 21 1 20 12
M  V30 22 1 21 12
M  V30 23 1 22 13
M  V30 END BOND
M  V30 END CTAB
M  END
>  <i_epik_Tot_Q>  (1) 
1

>  <i_epik_Tot_abs_Q>  (1) 
1

>  <i_i_glide_confnum>  (1) 
1

>  <i_i_glide_lignum>  (1) 
98

>  <i_i_glide_posenum>  (1) 
205

>  <i_i_glide_rotatable_bonds>  (1) 
0

>  <i_lp_mmshare_version>  (1) 
72125

>  <i_m_source_file_index>  (1) 
92

>  <i_f3d_flags>  (1) 
0

>  <num_sample>  (1) 
100

>  <b_lp_Chiralities_Consistent>  (1) 
1

>  <r_epik_Charging_Adjusted_Penalty>  (1) 
0.71045643263358682

>  <r_epik_Ionization_Penalty>  (1) 
0.3552545589029974

>  <r_epik_Ionization_Penalty_Charging>  (1) 
0.35522821631679397

>  <r_epik_Ionization_Penalty_Neutral>  (1) 
2.6342586203446271e-05

>  <r_epik_State_Penalty>  (1) 
0.35522821631679286

>  <r_glide_ring_energy>  (1) 
0

>  <r_i_docking_score>  (1) 
-4.9684453275439919

>  <r_i_glide_ecoul>  (1) 
-3.8884803095863352

>  <r_i_glide_eff_state_penalty>  (1) 
0.35522821631679286

>  <r_i_glide_einternal>  (1) 
0

>  <r_i_glide_emodel>  (1) 
-32.899184309471465

>  <r_i_glide_emodel_strain>  (1) 
0

>  <r_i_glide_energy>  (1) 
-22.642659141290132

>  <r_i_glide_erotb>  (1) 
0

>  <r_i_glide_esite>  (1) 
0

>  <r_i_glide_evdw>  (1) 
-18.754178831703797

>  <r_i_glide_gscore>  (1) 
-5.3236735438607852

>  <r_i_glide_gscore_strain>  (1) 
0

>  <r_i_glide_hbond>  (1) 
0

>  <r_i_glide_ligand_efficiency>  (1) 
-0.38218810211876864

>  <r_i_glide_ligand_efficiency_ln>  (1) 
-1.3936931017392715

>  <r_i_glide_ligand_efficiency_sa>  (1) 
-0.89865214174602392

>  <r_i_glide_lipo>  (1) 
-0.80812102720310852

>  <r_i_glide_metal>  (1) 
-0

>  <r_i_glide_rewards>  (1) 
-2.9945715286345362

>  <r_lp_Energy>  (1) 
16.247630000000001

>  <s_epik_Chemistry_Notes>  (1) 
This compound has an ester and may undergo hydrolysis at high or low pH.

>  <s_epik_cmdline>  (1) 
J2VwaWtfcHl0aG9uJywgJy1waHQnLCAnMS4wJywgJy1waCcsICc3LjQnLCAnLXRuJywgJzgnLCAnLW1hJywgJzUwMCcsICctaW1hZScsICc8aW5maWxlLm1hZT4nLCAnLW9tYWUnLCAnPG91dGZpbGUubWFlPic=

>  <s_epik_input>  (1) 
TzFbQ0gyXVtDSDJdT0MoPU8pYyhjMTIpW2NIXW5jKFtjSF0yKVtOSDJd

>  <s_glide_docking_method>  (1) 
confgen

>  <s_i_glide_gridfile>  (1) 
gpcr_drd2_6luq_protein_autoprepared_prepared

>  <s_lp_Force_Field>  (1) 
S-OPLS

>  <s_lp_Variant>  (1) 
Pocket2Mol_91_num_sample_100-1

>  <s_m_source_file>  (1) 
generated__ligand_Pocket2Mol_2026-05-06_prepared.sdf

>  <GenAI_Model>  (1) 
Pocket2Mol

>  <Protein>  (1) 
generic_title2

$$$$
Pocket2Mol_18_num_sample_100
     RDKit          3D

  0  0  0  0  0  0  0  0  0  0999 V3000
M  V30 BEGIN CTAB
M  V30 COUNTS 15 15 0 0 1
M  V30 BEGIN ATOM
M  V30 1 C 12.234822 8.871190 -3.391333 0
M  V30 2 O 11.434847 9.671244 -4.166043 0
M  V30 3 C 11.551340 9.498098 -5.568581 0
M  V30 4 C 10.728739 8.308589 -6.061895 0
M  V30 5 O 11.434804 7.113286 -5.805408 0
M  V30 6 C 11.410651 6.697030 -4.450436 0
M  V30 7 C 12.259674 7.524839 -3.491667 0
M  V30 8 H 12.836557 9.441551 -2.698427 0
M  V30 9 H 12.595221 9.417720 -5.877494 0
M  V30 10 H 11.165736 10.408652 -6.027488 0
M  V30 11 H 10.606069 8.385175 -7.142491 0
M  V30 12 H 9.727086 8.288622 -5.633722 0
M  V30 13 H 11.834843 5.697559 -4.443023 0
M  V30 14 H 10.392376 6.569288 -4.084198 0
M  V30 15 H 12.916107 6.966182 -2.841007 0
M  V30 END ATOM
M  V30 BEGIN BOND
M  V30 1 1 2 1
M  V30 2 1 3 2
M  V30 3 1 4 3
M  V30 4 1 5 4
M  V30 5 1 6 5
M  V30 6 2 7 1
M  V30 7 1 7 6
M  V30 8 1 8 1
M  V30 9 1 9 3
M  V30 10 1 10 3
M  V30 11 1 11 4
M  V30 12 1 12 4
M  V30 13 1 13 6
M  V30 14 1 14 6
M  V30 15 1 15 7
M  V30 END BOND
M  V30 END CTAB
M  END
>  <i_epik_Tot_Q>  (1) 
0

>  <i_epik_Tot_abs_Q>  (1) 
0

>  <i_i_glide_confnum>  (1) 
2

>  <i_i_glide_lignum>  (1) 
21

>  <i_i_glide_posenum>  (1) 
229

>  <i_i_glide_rotatable_bonds>  (1) 
0

>  <i_lp_mmshare_version>  (1) 
72125

>  <i_m_source_file_index>  (1) 
19

>  <i_f3d_flags>  (1) 
0

>  <num_sample>  (1) 
100

>  <b_lp_Chiralities_Consistent>  (1) 
1

>  <r_epik_Charging_Adjusted_Penalty>  (1) 
0

>  <r_epik_Ionization_Penalty>  (1) 
5.6701613537443791e-14

>  <r_epik_Ionization_Penalty_Charging>  (1) 
0

>  <r_epik_Ionization_Penalty_Neutral>  (1) 
5.6701613537443791e-14

>  <r_epik_State_Penalty>  (1) 
-0

>  <r_glide_ring_energy>  (1) 
0.00079047383587571227

>  <r_i_docking_score>  (1) 
-4.9645161063731278

>  <r_i_glide_ecoul>  (1) 
-0.82947895039336506

>  <r_i_glide_eff_state_penalty>  (1) 
-0

>  <r_i_glide_einternal>  (1) 
0

>  <r_i_glide_emodel>  (1) 
-22.353176613820384

>  <r_i_glide_emodel_strain>  (1) 
5.0220698710745637e-09

>  <r_i_glide_energy>  (1) 
-17.176502240436367

>  <r_i_glide_erotb>  (1) 
0

>  <r_i_glide_esite>  (1) 
0

>  <r_i_glide_evdw>  (1) 
-16.347023290043001

>  <r_i_glide_gscore>  (1) 
-4.9645161063731278

>  <r_i_glide_gscore_strain>  (1) 
0

>  <r_i_glide_hbond>  (1) 
0

>  <r_i_glide_ligand_efficiency>  (1) 
-0.70921658662473253

>  <r_i_glide_ligand_efficiency_ln>  (1) 
-1.6852231925556642

>  <r_i_glide_ligand_efficiency_sa>  (1) 
-1.3566825238938462

>  <r_i_glide_lipo>  (1) 
-1.5291725759975974

>  <r_i_glide_metal>  (1) 
-0

>  <r_i_glide_rewards>  (1) 
-2.4935705233143763

>  <r_lp_Energy>  (1) 
7.3473319999999998

>  <r_lp_tautomer_probability>  (1) 
1

>  <s_epik_cmdline>  (1) 
J2VwaWtfcHl0aG9uJywgJy1waHQnLCAnMS4wJywgJy1waCcsICc3LjQnLCAnLXRuJywgJzgnLCAnLW1hJywgJzUwMCcsICctaW1hZScsICc8aW5maWxlLm1hZT4nLCAnLW9tYWUnLCAnPG91dGZpbGUubWFlPic=

>  <s_epik_input>  (1) 
W0NIXTE9W0NIXVtDSDJdT1tDSDJdW0NIMl1PMQ==

>  <s_glide_docking_method>  (1) 
confgen

>  <s_i_glide_gridfile>  (1) 
gpcr_drd2_6luq_protein_autoprepared_prepared

>  <s_lp_Force_Field>  (1) 
S-OPLS

>  <s_lp_Variant>  (1) 
Pocket2Mol_18_num_sample_100-1

>  <s_m_source_file>  (1) 
generated__ligand_Pocket2Mol_2026-05-06_prepared.sdf

>  <GenAI_Model>  (1) 
Pocket2Mol

>  <Protein>  (1) 
generic_title2

$$$$
Pocket2Mol_34_num_sample_100
     RDKit          3D

  0  0  0  0  0  0  0  0  0  0999 V3000
M  V30 BEGIN CTAB
M  V30 COUNTS 21 22 0 0 1
M  V30 BEGIN ATOM
M  V30 1 C 12.636229 8.368380 -8.931673 0
M  V30 2 O 12.447323 8.373700 -7.523272 0
M  V30 3 C 11.091951 8.052179 -7.216981 0 CFG=2
M  V30 4 C 10.634838 8.969332 -6.075709 0
M  V30 5 C 10.921763 6.574000 -6.869401 0
M  V30 6 C 11.314522 8.850654 -9.491686 0
M  V30 7 C 9.795474 6.126734 -7.794729 0
M  V30 8 C 10.319940 8.219162 -8.536778 0 CFG=1
M  V30 9 O 10.029380 6.893952 -8.958697 0
M  V30 10 H 12.832250 7.369307 -9.289964 0
M  V30 11 H 13.488399 8.969262 -9.229013 0
M  V30 12 H 9.567719 8.843567 -5.892459 0
M  V30 13 H 11.163822 8.736365 -5.151327 0
M  V30 14 H 10.816691 10.021196 -6.291894 0
M  V30 15 H 10.682397 6.393492 -5.820709 0
M  V30 16 H 11.834653 6.022429 -7.091611 0
M  V30 17 H 11.153727 8.556267 -10.528530 0
M  V30 18 H 11.275873 9.936938 -9.438279 0
M  V30 19 H 8.817550 6.376981 -7.378287 0
M  V30 20 H 9.819518 5.057517 -8.005299 0
M  V30 21 H 9.396127 8.790789 -8.432971 0
M  V30 END ATOM
M  V30 BEGIN BOND
M  V30 1 1 2 1
M  V30 2 1 3 2
M  V30 3 1 3 4 CFG=1
M  V30 4 1 5 3
M  V30 5 1 6 1
M  V30 6 1 7 5
M  V30 7 1 8 3
M  V30 8 1 8 6
M  V30 9 1 9 7
M  V30 10 1 9 8
M  V30 11 1 10 1
M  V30 12 1 11 1
M  V30 13 1 12 4
M  V30 14 1 13 4
M  V30 15 1 14 4
M  V30 16 1 15 5
M  V30 17 1 16 5
M  V30 18 1 17 6
M  V30 19 1 18 6
M  V30 20 1 19 7
M  V30 21 1 20 7
M  V30 22 1 8 21 CFG=1
M  V30 END BOND
M  V30 END CTAB
M  END
>  <i_epik_Tot_Q>  (1) 
0

>  <i_epik_Tot_abs_Q>  (1) 
0

>  <i_i_glide_confnum>  (1) 
1

>  <i_i_glide_lignum>  (1) 
38

>  <i_i_glide_posenum>  (1) 
272

>  <i_i_glide_rotatable_bonds>  (1) 
0

>  <i_lp_mmshare_version>  (1) 
72125

>  <i_m_source_file_index>  (1) 
35

>  <i_f3d_flags>  (1) 
0

>  <num_sample>  (1) 
100

>  <b_lp_Chiralities_Consistent>  (1) 
1

>  <r_epik_Charging_Adjusted_Penalty>  (1) 
0

>  <r_epik_Ionization_Penalty>  (1) 
2.529470820146915e-12

>  <r_epik_Ionization_Penalty_Charging>  (1) 
0

>  <r_epik_Ionization_Penalty_Neutral>  (1) 
2.529470820146915e-12

>  <r_epik_State_Penalty>  (1) 
-0

>  <r_glide_ring_energy>  (1) 
0

>  <r_i_docking_score>  (1) 
-4.9622978631393471

>  <r_i_glide_ecoul>  (1) 
-0.10192190360275055

>  <r_i_glide_eff_state_penalty>  (1) 
-0

>  <r_i_glide_einternal>  (1) 
0

>  <r_i_glide_emodel>  (1) 
-23.583885583459303

>  <r_i_glide_emodel_strain>  (1) 
0

>  <r_i_glide_energy>  (1) 
-17.909305226736219

>  <r_i_glide_erotb>  (1) 
0

>  <r_i_glide_esite>  (1) 
0

>  <r_i_glide_evdw>  (1) 
-17.807383323133468

>  <r_i_glide_gscore>  (1) 
-4.9622978631393471

>  <r_i_glide_gscore_strain>  (1) 
0

>  <r_i_glide_hbond>  (1) 
0

>  <r_i_glide_ligand_efficiency>  (1) 
-0.55136642923770518

>  <r_i_glide_ligand_efficiency_ln>  (1) 
-1.5520642179204394

>  <r_i_glide_ligand_efficiency_sa>  (1) 
-1.1468883900312432

>  <r_i_glide_lipo>  (1) 
-1.0797065921527786

>  <r_i_glide_metal>  (1) 
-0

>  <r_i_glide_rewards>  (1) 
-2.9769338192894823

>  <r_lp_Energy>  (1) 
-0.369228

>  <r_lp_tautomer_probability>  (1) 
1

>  <s_epik_cmdline>  (1) 
J2VwaWtfcHl0aG9uJywgJy1waHQnLCAnMS4wJywgJy1waCcsICc3LjQnLCAnLXRuJywgJzgnLCAnLW1hJywgJzUwMCcsICctaW1hZScsICc8aW5maWxlLm1hZT4nLCAnLW9tYWUnLCAnPG91dGZpbGUubWFlPic=

>  <s_epik_input>  (1) 
TzFbQ0gyXVtDSDJdW0NASF0oW0NAXTEyW0NIM10pT1tDSDJdW0NIMl0y

>  <s_glide_docking_method>  (1) 
confgen

>  <s_i_glide_gridfile>  (1) 
gpcr_drd2_6luq_protein_autoprepared_prepared

>  <s_lp_Force_Field>  (1) 
S-OPLS

>  <s_lp_Variant>  (1) 
Pocket2Mol_34_num_sample_100-1

>  <s_m_source_file>  (1) 
generated__ligand_Pocket2Mol_2026-05-06_prepared.sdf

>  <GenAI_Model>  (1) 
Pocket2Mol

>  <Protein>  (1) 
generic_title2

$$$$
Pocket2Mol_18_num_sample_100
     RDKit          3D

  0  0  0  0  0  0  0  0  0  0999 V3000
M  V30 BEGIN CTAB
M  V30 COUNTS 15 15 0 0 1
M  V30 BEGIN ATOM
M  V30 1 C 11.434839 6.842293 -4.420058 0
M  V30 2 O 10.625401 7.491464 -5.317463 0
M  V30 3 C 11.236681 8.436601 -6.183608 0
M  V30 4 C 11.514294 9.769296 -5.489389 0
M  V30 5 O 12.628369 9.651320 -4.625196 0
M  V30 6 C 12.332995 8.990574 -3.405891 0
M  V30 7 C 12.233984 7.484535 -3.540515 0
M  V30 8 H 11.359917 5.769297 -4.504030 0
M  V30 9 H 10.525263 8.614234 -6.990583 0
M  V30 10 H 12.129505 8.036271 -6.665327 0
M  V30 11 H 10.634836 10.149909 -4.968774 0
M  V30 12 H 11.771733 10.512283 -6.244666 0
M  V30 13 H 11.434840 9.391442 -2.933700 0
M  V30 14 H 13.153585 9.201017 -2.720168 0
M  V30 15 H 12.843852 6.904688 -2.863533 0
M  V30 END ATOM
M  V30 BEGIN BOND
M  V30 1 1 2 1
M  V30 2 1 3 2
M  V30 3 1 4 3
M  V30 4 1 5 4
M  V30 5 1 6 5
M  V30 6 2 7 1
M  V30 7 1 7 6
M  V30 8 1 8 1
M  V30 9 1 9 3
M  V30 10 1 10 3
M  V30 11 1 11 4
M  V30 12 1 12 4
M  V30 13 1 13 6
M  V30 14 1 14 6
M  V30 15 1 15 7
M  V30 END BOND
M  V30 END CTAB
M  END
>  <i_epik_Tot_Q>  (1) 
0

>  <i_epik_Tot_abs_Q>  (1) 
0

>  <i_i_glide_confnum>  (1) 
1

>  <i_i_glide_lignum>  (1) 
21

>  <i_i_glide_posenum>  (1) 
344

>  <i_i_glide_rotatable_bonds>  (1) 
0

>  <i_lp_mmshare_version>  (1) 
72125

>  <i_m_source_file_index>  (1) 
19

>  <i_f3d_flags>  (1) 
0

>  <num_sample>  (1) 
100

>  <b_lp_Chiralities_Consistent>  (1) 
1

>  <r_epik_Charging_Adjusted_Penalty>  (1) 
0

>  <r_epik_Ionization_Penalty>  (1) 
5.6701613537443791e-14

>  <r_epik_Ionization_Penalty_Charging>  (1) 
0

>  <r_epik_Ionization_Penalty_Neutral>  (1) 
5.6701613537443791e-14

>  <r_epik_State_Penalty>  (1) 
-0

>  <r_glide_ring_energy>  (1) 
0

>  <r_i_docking_score>  (1) 
-4.9614359310924279

>  <r_i_glide_ecoul>  (1) 
-0.43984228079686993

>  <r_i_glide_eff_state_penalty>  (1) 
-0

>  <r_i_glide_einternal>  (1) 
0

>  <r_i_glide_emodel>  (1) 
-21.399808386885987

>  <r_i_glide_emodel_strain>  (1) 
0

>  <r_i_glide_energy>  (1) 
-16.226345814850337

>  <r_i_glide_erotb>  (1) 
0

>  <r_i_glide_esite>  (1) 
0

>  <r_i_glide_evdw>  (1) 
-15.786503534053468

>  <r_i_glide_gscore>  (1) 
-4.9614359310924279

>  <r_i_glide_gscore_strain>  (1) 
0

>  <r_i_glide_hbond>  (1) 
0

>  <r_i_glide_ligand_efficiency>  (1) 
-0.70877656158463254

>  <r_i_glide_ligand_efficiency_ln>  (1) 
-1.6841776157645025

>  <r_i_glide_ligand_efficiency_sa>  (1) 
-1.3558407862734383

>  <r_i_glide_lipo>  (1) 
-1.560052840881647

>  <r_i_glide_metal>  (1) 
-0

>  <r_i_glide_rewards>  (1) 
-2.5460815713885769

>  <r_lp_Energy>  (1) 
7.3473319999999998

>  <r_lp_tautomer_probability>  (1) 
1

>  <s_epik_cmdline>  (1) 
J2VwaWtfcHl0aG9uJywgJy1waHQnLCAnMS4wJywgJy1waCcsICc3LjQnLCAnLXRuJywgJzgnLCAnLW1hJywgJzUwMCcsICctaW1hZScsICc8aW5maWxlLm1hZT4nLCAnLW9tYWUnLCAnPG91dGZpbGUubWFlPic=

>  <s_epik_input>  (1) 
W0NIXTE9W0NIXVtDSDJdT1tDSDJdW0NIMl1PMQ==

>  <s_glide_docking_method>  (1) 
confgen

>  <s_i_glide_gridfile>  (1) 
gpcr_drd2_6luq_protein_autoprepared_prepared

>  <s_lp_Force_Field>  (1) 
S-OPLS

>  <s_lp_Variant>  (1) 
Pocket2Mol_18_num_sample_100-1

>  <s_m_source_file>  (1) 
generated__ligand_Pocket2Mol_2026-05-06_prepared.sdf

>  <GenAI_Model>  (1) 
Pocket2Mol

>  <Protein>  (1) 
generic_title2

$$$$
Pocket2Mol_82_num_sample_100
     RDKit          3D

  0  0  0  0  0  0  0  0  0  0999 V3000
M  V30 BEGIN CTAB
M  V30 COUNTS 22 23 0 0 1
M  V30 BEGIN ATOM
M  V30 1 C 9.341571 6.327371 -10.597054 0
M  V30 2 O 10.234875 7.503727 -10.509923 0
M  V30 3 C 10.467725 7.576656 -9.180419 0
M  V30 4 C 9.871940 6.627767 -8.425861 0
M  V30 5 C 10.034659 6.587620 -7.030401 0
M  V30 6 C 9.055698 5.665676 -9.170976 0
M  V30 7 C 10.843917 7.573238 -6.405472 0
M  V30 8 O 11.034840 7.580169 -5.042929 0
M  V30 9 C 11.460182 8.568669 -7.197014 0
M  V30 10 O 12.234839 9.521073 -6.605921 0
M  V30 11 C 11.273962 8.569296 -8.599056 0
M  V30 12 C 11.035254 6.336990 -4.368076 0
M  V30 13 H 9.794990 5.593634 -11.264335 0
M  V30 14 H 8.404259 6.632811 -11.063856 0
M  V30 15 H 9.546900 5.821530 -6.448683 0
M  V30 16 H 9.439629 4.648991 -9.083187 0
M  V30 17 H 8.005865 5.717581 -8.879018 0
M  V30 18 H 12.571454 10.152201 -7.218932 0
M  V30 19 H 11.742210 9.322605 -9.215508 0
M  V30 20 H 11.413182 6.472903 -3.354949 0
M  V30 21 H 10.032257 5.924029 -4.291440 0
M  V30 22 H 11.694909 5.634236 -4.874107 0
M  V30 END ATOM
M  V30 BEGIN BOND
M  V30 1 1 2 1
M  V30 2 1 3 2
M  V30 3 1 4 3
M  V30 4 2 5 4
M  V30 5 1 6 1
M  V30 6 1 6 4
M  V30 7 1 7 5
M  V30 8 1 8 7
M  V30 9 2 9 7
M  V30 10 1 10 9
M  V30 11 2 11 3
M  V30 12 1 11 9
M  V30 13 1 12 8
M  V30 14 1 13 1
M  V30 15 1 14 1
M  V30 16 1 15 5
M  V30 17 1 16 6
M  V30 18 1 17 6
M  V30 19 1 18 10
M  V30 20 1 19 11
M  V30 21 1 20 12
M  V30 22 1 21 12
M  V30 23 1 22 12
M  V30 END BOND
M  V30 END CTAB
M  END
>  <i_epik_Tot_Q>  (1) 
0

>  <i_epik_Tot_abs_Q>  (1) 
0

>  <i_i_glide_confnum>  (1) 
1

>  <i_i_glide_lignum>  (1) 
89

>  <i_i_glide_posenum>  (1) 
351

>  <i_i_glide_rotatable_bonds>  (1) 
2

>  <i_lp_mmshare_version>  (1) 
72125

>  <i_m_source_file_index>  (1) 
83

>  <i_f3d_flags>  (1) 
0

>  <num_sample>  (1) 
100

>  <b_lp_Chiralities_Consistent>  (1) 
1

>  <r_epik_Charging_Adjusted_Penalty>  (1) 
0

>  <r_epik_Ionization_Penalty>  (1) 
0.0019697177408658601

>  <r_epik_Ionization_Penalty_Charging>  (1) 
0

>  <r_epik_Ionization_Penalty_Neutral>  (1) 
0.0019697177408658601

>  <r_epik_State_Penalty>  (1) 
-0

>  <r_glide_ring_energy>  (1) 
0

>  <r_i_docking_score>  (1) 
-4.9539466392012219

>  <r_i_glide_ecoul>  (1) 
-1.2822076873972432

>  <r_i_glide_eff_state_penalty>  (1) 
-0

>  <r_i_glide_einternal>  (1) 
1.1398122597392937

>  <r_i_glide_emodel>  (1) 
-29.136130804000995

>  <r_i_glide_emodel_strain>  (1) 
0.22688204331677753

>  <r_i_glide_energy>  (1) 
-22.973859766628614

>  <r_i_glide_erotb>  (1) 
0

>  <r_i_glide_esite>  (1) 
0

>  <r_i_glide_evdw>  (1) 
-21.691652079231371

>  <r_i_glide_gscore>  (1) 
-4.9539466392012219

>  <r_i_glide_gscore_strain>  (1) 
0

>  <r_i_glide_hbond>  (1) 
0

>  <r_i_glide_ligand_efficiency>  (1) 
-0.41282888660010181

>  <r_i_glide_ligand_efficiency_ln>  (1) 
-1.4215435697546126

>  <r_i_glide_ligand_efficiency_sa>  (1) 
-0.94514221245714192

>  <r_i_glide_lipo>  (1) 
-0.96736456536712556

>  <r_i_glide_metal>  (1) 
-0

>  <r_i_glide_rewards>  (1) 
-2.709668316762941

>  <r_lp_Energy>  (1) 
16.449425999999999

>  <r_lp_tautomer_probability>  (1) 
1

>  <s_epik_cmdline>  (1) 
J2VwaWtfcHl0aG9uJywgJy1waHQnLCAnMS4wJywgJy1waCcsICc3LjQnLCAnLXRuJywgJzgnLCAnLW1hJywgJzUwMCcsICctaW1hZScsICc8aW5maWxlLm1hZT4nLCAnLW9tYWUnLCAnPG91dGZpbGUubWFlPic=

>  <s_epik_input>  (1) 
TzFbQ0gyXVtDSDJdYyhjMTIpW2NIXWMoT1tDSDNdKWMoW09IXSlbY0hdMg==

>  <s_glide_docking_method>  (1) 
confgen

>  <s_i_glide_gridfile>  (1) 
gpcr_drd2_6luq_protein_autoprepared_prepared

>  <s_lp_Force_Field>  (1) 
S-OPLS

>  <s_lp_Variant>  (1) 
Pocket2Mol_82_num_sample_100-1

>  <s_m_source_file>  (1) 
generated__ligand_Pocket2Mol_2026-05-06_prepared.sdf

>  <GenAI_Model>  (1) 
Pocket2Mol

>  <Protein>  (1) 
generic_title2

$$$$
Pocket2Mol_85_num_sample_100
     RDKit          3D

  0  0  0  0  0  0  0  0  0  0999 V3000
M  V30 BEGIN CTAB
M  V30 COUNTS 22 23 0 0 1
M  V30 BEGIN ATOM
M  V30 1 C 10.091267 6.899172 -5.568270 0
M  V30 2 O 11.434362 7.341777 -5.657893 0
M  V30 3 C 9.591369 6.266233 -6.865067 0
M  V30 4 O 9.335124 7.275363 -7.821887 0
M  V30 5 C 11.585318 8.504642 -6.457691 0
M  V30 6 C 10.430952 7.635911 -8.549959 0
M  V30 7 C 10.475219 7.432454 -9.936781 0
M  V30 8 C 11.549410 8.216496 -7.945608 0
M  V30 9 C 9.304874 6.809947 -10.673845 0
M  V30 10 N 11.548866 7.769160 -10.691665 0
M  V30 11 N 12.635032 8.305335 -10.104094 0
M  V30 12 C 12.636655 8.532487 -8.767395 0
M  V30 13 H 10.035021 6.169313 -4.760719 0
M  V30 14 H 9.435247 7.726715 -5.311048 0
M  V30 15 H 10.282248 5.508389 -7.239845 0
M  V30 16 H 8.639894 5.769309 -6.680028 0
M  V30 17 H 10.828905 9.252525 -6.213827 0
M  V30 18 H 12.540588 8.969301 -6.209752 0
M  V30 19 H 8.713191 6.169693 -10.018650 0
M  V30 20 H 9.652979 6.201580 -11.509116 0
M  V30 21 H 8.651626 7.588776 -11.069140 0
M  V30 22 H 13.531553 8.969319 -8.353289 0
M  V30 END ATOM
M  V30 BEGIN BOND
M  V30 1 1 2 1
M  V30 2 1 3 1
M  V30 3 1 4 3
M  V30 4 1 5 2
M  V30 5 1 6 4
M  V30 6 1 7 6
M  V30 7 1 8 5
M  V30 8 2 8 6
M  V30 9 1 9 7
M  V30 10 2 10 7
M  V30 11 1 11 10
M  V30 12 1 12 8
M  V30 13 2 12 11
M  V30 14 1 13 1
M  V30 15 1 14 1
M  V30 16 1 15 3
M  V30 17 1 16 3
M  V30 18 1 17 5
M  V30 19 1 18 5
M  V30 20 1 19 9
M  V30 21 1 20 9
M  V30 22 1 21 9
M  V30 23 1 22 12
M  V30 END BOND
M  V30 END CTAB
M  END
>  <i_epik_Tot_Q>  (1) 
0

>  <i_epik_Tot_abs_Q>  (1) 
0

>  <i_i_glide_confnum>  (1) 
1

>  <i_i_glide_lignum>  (1) 
92

>  <i_i_glide_posenum>  (1) 
287

>  <i_i_glide_rotatable_bonds>  (1) 
0

>  <i_lp_mmshare_version>  (1) 
72125

>  <i_m_source_file_index>  (1) 
86

>  <i_f3d_flags>  (1) 
0

>  <num_sample>  (1) 
100

>  <b_lp_Chiralities_Consistent>  (1) 
1

>  <r_epik_Charging_Adjusted_Penalty>  (1) 
0.0091269655628041547

>  <r_epik_Ionization_Penalty>  (1) 
0.0091374853106045584

>  <r_epik_Ionization_Penalty_Charging>  (1) 
0

>  <r_epik_Ionization_Penalty_Neutral>  (1) 
0.0091374853106045584

>  <r_epik_State_Penalty>  (1) 
0.0091269655628041547

>  <r_glide_ring_energy>  (1) 
0

>  <r_i_docking_score>  (1) 
-4.9474609994286727

>  <r_i_glide_ecoul>  (1) 
-1.6632002622725039

>  <r_i_glide_eff_state_penalty>  (1) 
0.0091269655628041547

>  <r_i_glide_einternal>  (1) 
0

>  <r_i_glide_emodel>  (1) 
-25.756353042406904

>  <r_i_glide_emodel_strain>  (1) 
0.060810402916818163

>  <r_i_glide_energy>  (1) 
-19.597523148299146

>  <r_i_glide_erotb>  (1) 
0

>  <r_i_glide_esite>  (1) 
0

>  <r_i_glide_evdw>  (1) 
-17.934322886026642

>  <r_i_glide_gscore>  (1) 
-4.9565879649914768

>  <r_i_glide_gscore_strain>  (1) 
0

>  <r_i_glide_hbond>  (1) 
0

>  <r_i_glide_ligand_efficiency>  (1) 
-0.41228841661905608

>  <r_i_glide_ligand_efficiency_ln>  (1) 
-1.4196825041869183

>  <r_i_glide_ligand_efficiency_sa>  (1) 
-0.94390484508719064

>  <r_i_glide_lipo>  (1) 
-0.81039178134926892

>  <r_i_glide_metal>  (1) 
-0

>  <r_i_glide_rewards>  (1) 
-3

>  <r_lp_Energy>  (1) 
19.395567

>  <r_lp_tautomer_probability>  (1) 
1

>  <s_epik_cmdline>  (1) 
J2VwaWtfcHl0aG9uJywgJy1waHQnLCAnMS4wJywgJy1waCcsICc3LjQnLCAnLXRuJywgJzgnLCAnLW1hJywgJzUwMCcsICctaW1hZScsICc8aW5maWxlLm1hZT4nLCAnLW9tYWUnLCAnPG91dGZpbGUubWFlPic=

>  <s_epik_input>  (1) 
TzFbQ0gyXVtDSDJdT1tDSDJdYyhjMTIpW2NIXW5uYzJbQ0gzXQ==

>  <s_glide_docking_method>  (1) 
confgen

>  <s_i_glide_gridfile>  (1) 
gpcr_drd2_6luq_protein_autoprepared_prepared

>  <s_lp_Force_Field>  (1) 
S-OPLS

>  <s_lp_Variant>  (1) 
Pocket2Mol_85_num_sample_100-1

>  <s_m_source_file>  (1) 
generated__ligand_Pocket2Mol_2026-05-06_prepared.sdf

>  <GenAI_Model>  (1) 
Pocket2Mol

>  <Protein>  (1) 
generic_title2

$$$$
Pocket2Mol_35_num_sample_100
     RDKit          3D

  0  0  0  0  0  0  0  0  0  0999 V3000
M  V30 BEGIN CTAB
M  V30 COUNTS 17 18 0 0 1
M  V30 BEGIN ATOM
M  V30 1 C 6.909666 5.762114 -15.983045 0
M  V30 2 O 8.038452 5.116402 -15.271885 0
M  V30 3 C 7.852219 5.560733 -14.008982 0
M  V30 4 C 6.805517 6.391834 -13.823585 0
M  V30 5 C 6.517562 6.913655 -12.545365 0
M  V30 6 N 7.311551 6.570308 -11.502964 0 CHG=1
M  V30 7 C 8.376924 5.737937 -11.647367 0
M  V30 8 C 8.678947 5.201454 -12.925916 0
M  V30 9 C 6.026947 6.689314 -15.026110 0
M  V30 10 H 6.276510 4.972879 -16.393604 0
M  V30 11 H 7.287927 6.339871 -16.828411 0
M  V30 12 H 5.701332 7.582836 -12.324168 0
M  V30 13 H 8.945133 5.535380 -10.753690 0
M  V30 14 H 9.518752 4.538734 -13.066509 0
M  V30 15 H 5.013259 6.318572 -14.930690 0
M  V30 16 H 6.044527 7.750320 -15.280734 0
M  V30 17 H 7.099331 6.969347 -10.551604 0
M  V30 END ATOM
M  V30 BEGIN BOND
M  V30 1 1 2 1
M  V30 2 1 3 2
M  V30 3 2 4 3
M  V30 4 1 5 4
M  V30 5 2 6 5
M  V30 6 1 7 6
M  V30 7 1 8 3
M  V30 8 2 8 7
M  V30 9 1 9 1
M  V30 10 1 9 4
M  V30 11 1 10 1
M  V30 12 1 11 1
M  V30 13 1 12 5
M  V30 14 1 13 7
M  V30 15 1 14 8
M  V30 16 1 15 9
M  V30 17 1 16 9
M  V30 18 1 17 6
M  V30 END BOND
M  V30 END CTAB
M  END
>  <i_epik_Tot_Q>  (1) 
1

>  <i_epik_Tot_abs_Q>  (1) 
1

>  <i_i_glide_confnum>  (1) 
1

>  <i_i_glide_lignum>  (1) 
39

>  <i_i_glide_posenum>  (1) 
83

>  <i_i_glide_rotatable_bonds>  (1) 
0

>  <i_lp_mmshare_version>  (1) 
72125

>  <i_m_source_file_index>  (1) 
36

>  <i_f3d_flags>  (1) 
0

>  <num_sample>  (1) 
100

>  <b_lp_Chiralities_Consistent>  (1) 
1

>  <r_epik_Charging_Adjusted_Penalty>  (1) 
0.75885481127580245

>  <r_epik_Ionization_Penalty>  (1) 
0.37942740563790117

>  <r_epik_Ionization_Penalty_Charging>  (1) 
0.37942740563790117

>  <r_epik_Ionization_Penalty_Neutral>  (1) 
0

>  <r_epik_State_Penalty>  (1) 
0.37942740563790123

>  <r_glide_ring_energy>  (1) 
0

>  <r_i_docking_score>  (1) 
-4.9455821894996976

>  <r_i_glide_ecoul>  (1) 
-8.5658017280272531

>  <r_i_glide_eff_state_penalty>  (1) 
0.37942740563790123

>  <r_i_glide_einternal>  (1) 
0

>  <r_i_glide_emodel>  (1) 
-28.926418844420702

>  <r_i_glide_emodel_strain>  (1) 
0

>  <r_i_glide_energy>  (1) 
-19.030096706823866

>  <r_i_glide_erotb>  (1) 
0

>  <r_i_glide_esite>  (1) 
-0.10000000000000001

>  <r_i_glide_evdw>  (1) 
-10.464294978796612

>  <r_i_glide_gscore>  (1) 
-5.3250095951375984

>  <r_i_glide_gscore_strain>  (1) 
0

>  <r_i_glide_hbond>  (1) 
-0.15139164521093101

>  <r_i_glide_ligand_efficiency>  (1) 
-0.54950913216663311

>  <r_i_glide_ligand_efficiency_ln>  (1) 
-1.5468360354029711

>  <r_i_glide_ligand_efficiency_sa>  (1) 
-1.1430250564391045

>  <r_i_glide_lipo>  (1) 
-0.70719960844941476

>  <r_i_glide_metal>  (1) 
-0

>  <r_i_glide_rewards>  (1) 
-2.5583333333333336

>  <r_lp_Energy>  (1) 
18.327531999999998

>  <s_epik_cmdline>  (1) 
J2VwaWtfcHl0aG9uJywgJy1waHQnLCAnMS4wJywgJy1waCcsICc3LjQnLCAnLXRuJywgJzgnLCAnLW1hJywgJzUwMCcsICctaW1hZScsICc8aW5maWxlLm1hZT4nLCAnLW9tYWUnLCAnPG91dGZpbGUubWFlPic=

>  <s_epik_input>  (1) 
TzFbQ0gyXVtDSDJdYyhjMTIpW2NIXW5bY0hdW2NIXTI=

>  <s_glide_docking_method>  (1) 
confgen

>  <s_i_glide_gridfile>  (1) 
gpcr_drd2_6luq_protein_autoprepared_prepared

>  <s_lp_Force_Field>  (1) 
S-OPLS

>  <s_lp_Variant>  (1) 
Pocket2Mol_35_num_sample_100-1

>  <s_m_source_file>  (1) 
generated__ligand_Pocket2Mol_2026-05-06_prepared.sdf

>  <GenAI_Model>  (1) 
Pocket2Mol

>  <Protein>  (1) 
generic_title2

$$$$
Pocket2Mol_31_num_sample_100
     RDKit          3D

  0  0  0  0  0  0  0  0  0  0999 V3000
M  V30 BEGIN CTAB
M  V30 COUNTS 20 21 0 0 1
M  V30 BEGIN ATOM
M  V30 1 C 11.012724 8.468876 -5.540407 0
M  V30 2 O 11.629120 8.906099 -6.750183 0
M  V30 3 C 11.266686 8.047022 -7.836520 0 CFG=2
M  V30 4 C 12.378490 8.065381 -8.876475 0
M  V30 5 C 9.810026 8.242938 -8.290467 0
M  V30 6 C 10.934467 6.950029 -5.663757 0
M  V30 7 C 9.509747 6.802970 -7.877958 0
M  V30 8 C 10.860294 6.738602 -7.150431 0 CFG=1
M  V30 9 H 11.566450 8.794355 -4.659603 0
M  V30 10 H 10.012917 8.897642 -5.491673 0
M  V30 11 H 12.162584 7.384812 -9.699896 0
M  V30 12 H 13.332983 7.769302 -8.441007 0
M  V30 13 H 12.504558 9.062453 -9.298731 0
M  V30 14 H 9.247793 8.969354 -7.704659 0
M  V30 15 H 9.685807 8.418184 -9.359990 0
M  V30 16 H 11.834453 6.487484 -5.257977 0
M  V30 17 H 10.077560 6.536478 -5.131207 0
M  V30 18 H 8.634868 6.700000 -7.234046 0
M  V30 19 H 9.454334 6.128971 -8.733276 0
M  V30 20 H 11.434393 5.877743 -7.491432 0
M  V30 END ATOM
M  V30 BEGIN BOND
M  V30 1 1 2 1
M  V30 2 1 3 2
M  V30 3 1 3 4 CFG=3
M  V30 4 1 5 3
M  V30 5 1 6 1
M  V30 6 1 7 5
M  V30 7 1 8 3
M  V30 8 1 8 6
M  V30 9 1 8 7
M  V30 10 1 9 1
M  V30 11 1 10 1
M  V30 12 1 11 4
M  V30 13 1 12 4
M  V30 14 1 13 4
M  V30 15 1 14 5
M  V30 16 1 15 5
M  V30 17 1 16 6
M  V30 18 1 17 6
M  V30 19 1 18 7
M  V30 20 1 19 7
M  V30 21 1 8 20 CFG=3
M  V30 END BOND
M  V30 END CTAB
M  END
>  <i_epik_Tot_Q>  (1) 
0

>  <i_epik_Tot_abs_Q>  (1) 
0

>  <i_i_glide_confnum>  (1) 
1

>  <i_i_glide_lignum>  (1) 
35

>  <i_i_glide_posenum>  (1) 
76

>  <i_i_glide_rotatable_bonds>  (1) 
0

>  <i_lp_mmshare_version>  (1) 
72125

>  <i_m_source_file_index>  (1) 
32

>  <i_f3d_flags>  (1) 
0

>  <num_sample>  (1) 
100

>  <b_lp_Chiralities_Consistent>  (1) 
1

>  <r_epik_Charging_Adjusted_Penalty>  (1) 
0

>  <r_epik_Ionization_Penalty>  (1) 
2.3587344998035955e-11

>  <r_epik_Ionization_Penalty_Charging>  (1) 
0

>  <r_epik_Ionization_Penalty_Neutral>  (1) 
2.3587344998035955e-11

>  <r_epik_State_Penalty>  (1) 
-0

>  <r_glide_ring_energy>  (1) 
0

>  <r_i_docking_score>  (1) 
-4.9439324030929459

>  <r_i_glide_ecoul>  (1) 
-0.49582633520246422

>  <r_i_glide_eff_state_penalty>  (1) 
-0

>  <r_i_glide_einternal>  (1) 
0

>  <r_i_glide_emodel>  (1) 
-19.792221048351408

>  <r_i_glide_emodel_strain>  (1) 
0

>  <r_i_glide_energy>  (1) 
-15.140001045995605

>  <r_i_glide_erotb>  (1) 
0

>  <r_i_glide_esite>  (1) 
0

>  <r_i_glide_evdw>  (1) 
-14.644174710793141

>  <r_i_glide_gscore>  (1) 
-4.9439324030929459

>  <r_i_glide_gscore_strain>  (1) 
0

>  <r_i_glide_hbond>  (1) 
0

>  <r_i_glide_ligand_efficiency>  (1) 
-0.61799155038661824

>  <r_i_glide_ligand_efficiency_ln>  (1) 
-1.6054639570771103

>  <r_i_glide_ligand_efficiency_sa>  (1) 
-1.2359831007732367

>  <r_i_glide_lipo>  (1) 
-1.2750526021560546

>  <r_i_glide_metal>  (1) 
-0

>  <r_i_glide_rewards>  (1) 
-2.8622971151168644

>  <r_lp_Energy>  (1) 
15.613807

>  <r_lp_tautomer_probability>  (1) 
1

>  <s_epik_cmdline>  (1) 
J2VwaWtfcHl0aG9uJywgJy1waHQnLCAnMS4wJywgJy1waCcsICc3LjQnLCAnLXRuJywgJzgnLCAnLW1hJywgJzUwMCcsICctaW1hZScsICc8aW5maWxlLm1hZT4nLCAnLW9tYWUnLCAnPG91dGZpbGUubWFlPic=

>  <s_epik_input>  (1) 
TzFbQ0gyXVtDSDJdW0NASF0oW0NAXTEyW0NIM10pW0NIMl1bQ0gyXTI=

>  <s_glide_docking_method>  (1) 
confgen

>  <s_i_glide_gridfile>  (1) 
gpcr_drd2_6luq_protein_autoprepared_prepared

>  <s_lp_Force_Field>  (1) 
S-OPLS

>  <s_lp_Variant>  (1) 
Pocket2Mol_31_num_sample_100-1

>  <s_m_source_file>  (1) 
generated__ligand_Pocket2Mol_2026-05-06_prepared.sdf

>  <GenAI_Model>  (1) 
Pocket2Mol

>  <Protein>  (1) 
generic_title2

$$$$
Pocket2Mol_47_num_sample_100
     RDKit          3D

  0  0  0  0  0  0  0  0  0  0999 V3000
M  V30 BEGIN CTAB
M  V30 COUNTS 16 17 0 0 1
M  V30 BEGIN ATOM
M  V30 1 C 11.434839 8.492308 -4.927615 0
M  V30 2 O 10.661928 7.511307 -5.491667 0
M  V30 3 C 10.597325 7.465923 -6.866036 0
M  V30 4 C 11.316918 8.405561 -7.645960 0
M  V30 5 C 11.246399 8.353714 -9.051081 0
M  V30 6 C 9.813895 6.484071 -7.499161 0
M  V30 7 C 9.745810 6.435178 -8.905126 0
M  V30 8 O 12.082132 9.369228 -7.035192 0
M  V30 9 C 10.460663 7.369773 -9.680472 0
M  V30 10 C 12.113533 9.383291 -5.667874 0
M  V30 11 H 11.434839 8.456989 -3.848869 0
M  V30 12 H 11.793732 9.070313 -9.645907 0
M  V30 13 H 9.262469 5.769301 -6.906951 0
M  V30 14 H 9.140964 5.682593 -9.389682 0
M  V30 15 H 10.404307 7.331646 -10.758356 0
M  V30 16 H 12.737083 10.169301 -5.273396 0
M  V30 END ATOM
M  V30 BEGIN BOND
M  V30 1 1 2 1
M  V30 2 1 3 2
M  V30 3 1 4 3
M  V30 4 2 5 4
M  V30 5 2 6 3
M  V30 6 1 7 6
M  V30 7 1 8 4
M  V30 8 1 9 5
M  V30 9 2 9 7
M  V30 10 2 10 1
M  V30 11 1 10 8
M  V30 12 1 11 1
M  V30 13 1 12 5
M  V30 14 1 13 6
M  V30 15 1 14 7
M  V30 16 1 15 9
M  V30 17 1 16 10
M  V30 END BOND
M  V30 END CTAB
M  END
>  <i_epik_Tot_Q>  (1) 
0

>  <i_epik_Tot_abs_Q>  (1) 
0

>  <i_i_glide_confnum>  (1) 
1

>  <i_i_glide_lignum>  (1) 
53

>  <i_i_glide_posenum>  (1) 
294

>  <i_i_glide_rotatable_bonds>  (1) 
0

>  <i_lp_mmshare_version>  (1) 
72125

>  <i_m_source_file_index>  (1) 
48

>  <i_f3d_flags>  (1) 
0

>  <num_sample>  (1) 
100

>  <b_lp_Chiralities_Consistent>  (1) 
1

>  <r_epik_Charging_Adjusted_Penalty>  (1) 
0

>  <r_epik_Ionization_Penalty>  (1) 
0

>  <r_epik_Ionization_Penalty_Charging>  (1) 
0

>  <r_epik_Ionization_Penalty_Neutral>  (1) 
0

>  <r_epik_State_Penalty>  (1) 
-0

>  <r_glide_ring_energy>  (1) 
0

>  <r_i_docking_score>  (1) 
-4.9426181849724076

>  <r_i_glide_ecoul>  (1) 
0.035883821252919584

>  <r_i_glide_eff_state_penalty>  (1) 
-0

>  <r_i_glide_einternal>  (1) 
0

>  <r_i_glide_emodel>  (1) 
-25.121309883666171

>  <r_i_glide_emodel_strain>  (1) 
0

>  <r_i_glide_energy>  (1) 
-18.697250986368985

>  <r_i_glide_erotb>  (1) 
0

>  <r_i_glide_esite>  (1) 
0

>  <r_i_glide_evdw>  (1) 
-18.733134807621905

>  <r_i_glide_gscore>  (1) 
-4.9426181849724076

>  <r_i_glide_gscore_strain>  (1) 
0

>  <r_i_glide_hbond>  (1) 
0

>  <r_i_glide_ligand_efficiency>  (1) 
-0.49426181849724077

>  <r_i_glide_ligand_efficiency_ln>  (1) 
-1.4965907147880773

>  <r_i_glide_ligand_efficiency_sa>  (1) 
-1.0648548077286981

>  <r_i_glide_lipo>  (1) 
-1.1099893972874

>  <r_i_glide_metal>  (1) 
-0

>  <r_i_glide_rewards>  (1) 
-2.9013546204918503

>  <r_lp_Energy>  (1) 
24.726983000000001

>  <r_lp_tautomer_probability>  (1) 
1

>  <s_epik_cmdline>  (1) 
J2VwaWtfcHl0aG9uJywgJy1waHQnLCAnMS4wJywgJy1waCcsICc3LjQnLCAnLXRuJywgJzgnLCAnLW1hJywgJzUwMCcsICctaW1hZScsICc8aW5maWxlLm1hZT4nLCAnLW9tYWUnLCAnPG91dGZpbGUubWFlPic=

>  <s_epik_input>  (1) 
TzFbQ0hdPVtDSF1PYyhjMTIpW2NIXVtjSF1bY0hdW2NIXTI=

>  <s_glide_docking_method>  (1) 
confgen

>  <s_i_glide_gridfile>  (1) 
gpcr_drd2_6luq_protein_autoprepared_prepared

>  <s_lp_Force_Field>  (1) 
S-OPLS

>  <s_lp_Variant>  (1) 
Pocket2Mol_47_num_sample_100-1

>  <s_m_source_file>  (1) 
generated__ligand_Pocket2Mol_2026-05-06_prepared.sdf

>  <GenAI_Model>  (1) 
Pocket2Mol

>  <Protein>  (1) 
generic_title2

$$$$
Pocket2Mol_63_num_sample_100
     RDKit          3D

  0  0  0  0  0  0  0  0  0  0999 V3000
M  V30 BEGIN CTAB
M  V30 COUNTS 19 20 0 0 1
M  V30 BEGIN ATOM
M  V30 1 C 9.434839 6.264423 -10.974796 0
M  V30 2 O 10.290143 7.349120 -10.904913 0
M  V30 3 C 10.568226 7.556833 -9.574312 0
M  V30 4 C 9.890668 6.601118 -8.801156 0
M  V30 5 C 10.068444 6.671185 -7.393674 0
M  V30 6 C 10.904188 7.674650 -6.816256 0
M  V30 7 O 11.077095 7.748970 -5.451814 0
M  V30 8 C 11.391593 8.548472 -9.036529 0
M  V30 9 C 9.163524 5.769271 -9.711447 0
M  V30 10 C 11.561498 8.610140 -7.646016 0
M  V30 11 C 11.028073 6.538056 -4.712441 0
M  V30 12 H 9.116897 5.976396 -11.966298 0
M  V30 13 H 9.561508 5.959762 -6.761638 0
M  V30 14 H 11.889110 9.257168 -9.682130 0
M  V30 15 H 8.530481 4.933865 -9.453907 0
M  V30 16 H 12.193007 9.369266 -7.210216 0
M  V30 17 H 11.434096 6.707834 -3.715189 0
M  V30 18 H 10.008926 6.169304 -4.595730 0
M  V30 19 H 11.638490 5.769288 -5.186073 0
M  V30 END ATOM
M  V30 BEGIN BOND
M  V30 1 1 2 1
M  V30 2 1 3 2
M  V30 3 1 4 3
M  V30 4 2 5 4
M  V30 5 1 6 5
M  V30 6 1 7 6
M  V30 7 2 8 3
M  V30 8 2 9 1
M  V30 9 1 9 4
M  V30 10 2 10 6
M  V30 11 1 10 8
M  V30 12 1 11 7
M  V30 13 1 12 1
M  V30 14 1 13 5
M  V30 15 1 14 8
M  V30 16 1 15 9
M  V30 17 1 16 10
M  V30 18 1 17 11
M  V30 19 1 18 11
M  V30 20 1 19 11
M  V30 END BOND
M  V30 END CTAB
M  END
>  <i_epik_Tot_Q>  (1) 
0

>  <i_epik_Tot_abs_Q>  (1) 
0

>  <i_i_glide_confnum>  (1) 
1

>  <i_i_glide_lignum>  (1) 
70

>  <i_i_glide_posenum>  (1) 
146

>  <i_i_glide_rotatable_bonds>  (1) 
1

>  <i_lp_mmshare_version>  (1) 
72125

>  <i_m_source_file_index>  (1) 
64

>  <i_f3d_flags>  (1) 
0

>  <num_sample>  (1) 
100

>  <b_lp_Chiralities_Consistent>  (1) 
1

>  <r_epik_Charging_Adjusted_Penalty>  (1) 
0

>  <r_epik_Ionization_Penalty>  (1) 
0

>  <r_epik_Ionization_Penalty_Charging>  (1) 
0

>  <r_epik_Ionization_Penalty_Neutral>  (1) 
0

>  <r_epik_State_Penalty>  (1) 
-0

>  <r_glide_ring_energy>  (1) 
0

>  <r_i_docking_score>  (1) 
-4.9353005623704505

>  <r_i_glide_ecoul>  (1) 
-1.0150817543267447

>  <r_i_glide_eff_state_penalty>  (1) 
-0

>  <r_i_glide_einternal>  (1) 
0.584575511219948

>  <r_i_glide_emodel>  (1) 
-29.502786040842786

>  <r_i_glide_emodel_strain>  (1) 
0.20731280973261512

>  <r_i_glide_energy>  (1) 
-22.594588589463253

>  <r_i_glide_erotb>  (1) 
0

>  <r_i_glide_esite>  (1) 
0

>  <r_i_glide_evdw>  (1) 
-21.57950683513651

>  <r_i_glide_gscore>  (1) 
-4.9353005623704505

>  <r_i_glide_gscore_strain>  (1) 
0

>  <r_i_glide_hbond>  (1) 
0

>  <r_i_glide_ligand_efficiency>  (1) 
-0.44866368748822277

>  <r_i_glide_ligand_efficiency_ln>  (1) 
-1.452458114845292

>  <r_i_glide_ligand_efficiency_sa>  (1) 
-0.99781910833522081

>  <r_i_glide_lipo>  (1) 
-0.99913162997894256

>  <r_i_glide_metal>  (1) 
-0

>  <r_i_glide_rewards>  (1) 
-2.7049313274856712

>  <r_lp_Energy>  (1) 
14.639571

>  <r_lp_tautomer_probability>  (1) 
1

>  <s_epik_cmdline>  (1) 
J2VwaWtfcHl0aG9uJywgJy1waHQnLCAnMS4wJywgJy1waCcsICc3LjQnLCAnLXRuJywgJzgnLCAnLW1hJywgJzUwMCcsICctaW1hZScsICc8aW5maWxlLm1hZT4nLCAnLW9tYWUnLCAnPG91dGZpbGUubWFlPic=

>  <s_epik_input>  (1) 
bzFbY0hdW2NIXWMoYzEyKVtjSF1jKE9bQ0gzXSlbY0hdW2NIXTI=

>  <s_glide_docking_method>  (1) 
confgen

>  <s_i_glide_gridfile>  (1) 
gpcr_drd2_6luq_protein_autoprepared_prepared

>  <s_lp_Force_Field>  (1) 
S-OPLS

>  <s_lp_Variant>  (1) 
Pocket2Mol_63_num_sample_100-1

>  <s_m_source_file>  (1) 
generated__ligand_Pocket2Mol_2026-05-06_prepared.sdf

>  <GenAI_Model>  (1) 
Pocket2Mol

>  <Protein>  (1) 
generic_title2

$$$$
Pocket2Mol_17_num_sample_100
     RDKit          3D

  0  0  0  0  0  0  0  0  0  0999 V3000
M  V30 BEGIN CTAB
M  V30 COUNTS 12 12 0 0 1
M  V30 BEGIN ATOM
M  V30 1 N 11.688447 6.569305 -3.586322 0
M  V30 2 C 11.103398 6.691792 -4.834459 0
M  V30 3 C 11.034837 7.855532 -5.514168 0
M  V30 4 C 11.615354 9.082072 -4.903510 0
M  V30 5 O 11.583912 10.169290 -5.473846 0
M  V30 6 C 12.234840 7.689570 -2.987734 0
M  V30 7 C 12.234840 8.912913 -3.558314 0
M  V30 8 H 10.700084 5.769301 -5.223841 0
M  V30 9 H 10.569690 7.919350 -6.487200 0
M  V30 10 H 11.706075 5.673100 -3.114601 0
M  V30 11 H 12.665972 7.503162 -2.014891 0
M  V30 12 H 12.669010 9.769311 -3.065128 0
M  V30 END ATOM
M  V30 BEGIN BOND
M  V30 1 1 2 1
M  V30 2 2 3 2
M  V30 3 1 4 3
M  V30 4 2 5 4
M  V30 5 1 6 1
M  V30 6 1 7 4
M  V30 7 2 7 6
M  V30 8 1 8 2
M  V30 9 1 9 3
M  V30 10 1 10 1
M  V30 11 1 11 6
M  V30 12 1 12 7
M  V30 END BOND
M  V30 END CTAB
M  END
>  <i_epik_Tot_Q>  (1) 
0

>  <i_epik_Tot_abs_Q>  (1) 
0

>  <i_i_glide_confnum>  (1) 
1

>  <i_i_glide_lignum>  (1) 
20

>  <i_i_glide_posenum>  (1) 
171

>  <i_i_glide_rotatable_bonds>  (1) 
0

>  <i_lp_mmshare_version>  (1) 
72125

>  <i_m_source_file_index>  (1) 
18

>  <i_f3d_flags>  (1) 
0

>  <num_sample>  (1) 
100

>  <b_lp_Chiralities_Consistent>  (1) 
1

>  <r_epik_Charging_Adjusted_Penalty>  (1) 
0.00011828912318149299

>  <r_epik_Ionization_Penalty>  (1) 
0.00011828912318149299

>  <r_epik_Ionization_Penalty_Charging>  (1) 
0.00011828912318149299

>  <r_epik_Ionization_Penalty_Neutral>  (1) 
0

>  <r_epik_State_Penalty>  (1) 
-0

>  <r_glide_ring_energy>  (1) 
0

>  <r_i_docking_score>  (1) 
-4.9323997562334636

>  <r_i_glide_ecoul>  (1) 
-1.9070097371204158

>  <r_i_glide_eff_state_penalty>  (1) 
-0

>  <r_i_glide_einternal>  (1) 
0

>  <r_i_glide_emodel>  (1) 
-25.614014144777016

>  <r_i_glide_emodel_strain>  (1) 
0

>  <r_i_glide_energy>  (1) 
-19.410481696936753

>  <r_i_glide_erotb>  (1) 
0

>  <r_i_glide_esite>  (1) 
0

>  <r_i_glide_evdw>  (1) 
-17.503471959816338

>  <r_i_glide_gscore>  (1) 
-4.9323997562334636

>  <r_i_glide_gscore_strain>  (1) 
0

>  <r_i_glide_hbond>  (1) 
0

>  <r_i_glide_ligand_efficiency>  (1) 
-0.70462853660478053

>  <r_i_glide_ligand_efficiency_ln>  (1) 
-1.6743211797600726

>  <r_i_glide_ligand_efficiency_sa>  (1) 
-1.3479058999425606

>  <r_i_glide_lipo>  (1) 
-1.5211746976745848

>  <r_i_glide_metal>  (1) 
-0

>  <r_i_glide_rewards>  (1) 
-2.25

>  <r_lp_Energy>  (1) 
8.1847359999999991

>  <r_lp_tautomer_probability>  (1) 
1

>  <s_epik_cmdline>  (1) 
J2VwaWtfcHl0aG9uJywgJy1waHQnLCAnMS4wJywgJy1waCcsICc3LjQnLCAnLXRuJywgJzgnLCAnLW1hJywgJzUwMCcsICctaW1hZScsICc8aW5maWxlLm1hZT4nLCAnLW9tYWUnLCAnPG91dGZpbGUubWFlPic=

>  <s_epik_input>  (1) 
W2NIXTFbY0hdbltjSF1bY0hdYzFbT0hd

>  <s_glide_docking_method>  (1) 
confgen

>  <s_i_glide_gridfile>  (1) 
gpcr_drd2_6luq_protein_autoprepared_prepared

>  <s_lp_Force_Field>  (1) 
S-OPLS

>  <s_lp_Variant>  (1) 
Pocket2Mol_17_num_sample_100-1

>  <s_m_source_file>  (1) 
generated__ligand_Pocket2Mol_2026-05-06_prepared.sdf

>  <GenAI_Model>  (1) 
Pocket2Mol

>  <Protein>  (1) 
generic_title2

$$$$
Pocket2Mol_26_num_sample_100
     RDKit          3D

  0  0  0  0  0  0  0  0  0  0999 V3000
M  V30 BEGIN CTAB
M  V30 COUNTS 15 15 0 0 1
M  V30 BEGIN ATOM
M  V30 1 C 12.234839 8.826717 -3.159196 0
M  V30 2 O 11.453524 9.674634 -4.009863 0
M  V30 3 C 11.562859 9.369301 -5.403718 0
M  V30 4 C 10.990247 7.960888 -5.715662 0 CFG=1
M  V30 5 O 11.434807 7.539609 -6.988105 0
M  V30 6 C 11.998534 7.369369 -3.501024 0
M  V30 7 C 11.434839 6.980541 -4.651476 0
M  V30 8 H 11.951628 9.012942 -2.122825 0
M  V30 9 H 13.294055 9.063712 -3.259168 0
M  V30 10 H 12.614090 9.432486 -5.691187 0
M  V30 11 H 11.034843 10.128556 -5.980946 0
M  V30 12 H 9.899892 7.993469 -5.715225 0
M  V30 13 H 10.821835 6.901808 -7.324046 0
M  V30 14 H 12.305802 6.634706 -2.771059 0
M  V30 15 H 11.281906 5.929806 -4.852824 0
M  V30 END ATOM
M  V30 BEGIN BOND
M  V30 1 1 2 1
M  V30 2 1 3 2
M  V30 3 1 4 3
M  V30 4 1 5 4
M  V30 5 1 6 1
M  V30 6 1 7 4
M  V30 7 2 7 6
M  V30 8 1 8 1
M  V30 9 1 9 1
M  V30 10 1 10 3
M  V30 11 1 11 3
M  V30 12 1 4 12 CFG=3
M  V30 13 1 13 5
M  V30 14 1 14 6
M  V30 15 1 15 7
M  V30 END BOND
M  V30 END CTAB
M  END
>  <i_epik_Tot_Q>  (1) 
0

>  <i_epik_Tot_abs_Q>  (1) 
0

>  <i_i_glide_confnum>  (1) 
1

>  <i_i_glide_lignum>  (1) 
30

>  <i_i_glide_posenum>  (1) 
194

>  <i_i_glide_rotatable_bonds>  (1) 
1

>  <i_lp_mmshare_version>  (1) 
72125

>  <i_m_source_file_index>  (1) 
27

>  <i_f3d_flags>  (1) 
0

>  <num_sample>  (1) 
100

>  <b_lp_Chiralities_Consistent>  (1) 
1

>  <r_epik_Charging_Adjusted_Penalty>  (1) 
0

>  <r_epik_Ionization_Penalty>  (1) 
7.567869706951744e-07

>  <r_epik_Ionization_Penalty_Charging>  (1) 
0

>  <r_epik_Ionization_Penalty_Neutral>  (1) 
7.567869706951744e-07

>  <r_epik_State_Penalty>  (1) 
-0

>  <r_glide_ring_energy>  (1) 
0

>  <r_i_docking_score>  (1) 
-4.9212785487477033

>  <r_i_glide_ecoul>  (1) 
-1.7294935490775152

>  <r_i_glide_eff_state_penalty>  (1) 
-0

>  <r_i_glide_einternal>  (1) 
0.43379487646861947

>  <r_i_glide_emodel>  (1) 
-24.166104559092688

>  <r_i_glide_emodel_strain>  (1) 
0.008732187392914259

>  <r_i_glide_energy>  (1) 
-18.033436513190452

>  <r_i_glide_erotb>  (1) 
0

>  <r_i_glide_esite>  (1) 
0

>  <r_i_glide_evdw>  (1) 
-16.303942964112938

>  <r_i_glide_gscore>  (1) 
-4.9212785487477033

>  <r_i_glide_gscore_strain>  (1) 
0

>  <r_i_glide_hbond>  (1) 
0

>  <r_i_glide_ligand_efficiency>  (1) 
-0.70303979267824335

>  <r_i_glide_ligand_efficiency_ln>  (1) 
-1.6705460451079426

>  <r_i_glide_ligand_efficiency_sa>  (1) 
-1.3448667421440472

>  <r_i_glide_lipo>  (1) 
-1.4517390634136915

>  <r_i_glide_metal>  (1) 
-0

>  <r_i_glide_rewards>  (1) 
-2.3949183047667377

>  <r_lp_Energy>  (1) 
2.4739009999999997

>  <r_lp_tautomer_probability>  (1) 
1

>  <s_epik_cmdline>  (1) 
J2VwaWtfcHl0aG9uJywgJy1waHQnLCAnMS4wJywgJy1waCcsICc3LjQnLCAnLXRuJywgJzgnLCAnLW1hJywgJzUwMCcsICctaW1hZScsICc8aW5maWxlLm1hZT4nLCAnLW9tYWUnLCAnPG91dGZpbGUubWFlPic=

>  <s_epik_input>  (1) 
W0NIXTE9W0NIXVtDSDJdT1tDSDJdW0NASF0xW09IXQ==

>  <s_glide_docking_method>  (1) 
confgen

>  <s_i_glide_gridfile>  (1) 
gpcr_drd2_6luq_protein_autoprepared_prepared

>  <s_lp_Force_Field>  (1) 
S-OPLS

>  <s_lp_Variant>  (1) 
Pocket2Mol_26_num_sample_100-1

>  <s_m_source_file>  (1) 
generated__ligand_Pocket2Mol_2026-05-06_prepared.sdf

>  <GenAI_Model>  (1) 
Pocket2Mol

>  <Protein>  (1) 
generic_title2

$$$$
Pocket2Mol_52_num_sample_100
     RDKit          3D

  0  0  0  0  0  0  0  0  0  0999 V3000
M  V30 BEGIN CTAB
M  V30 COUNTS 15 16 0 0 1
M  V30 BEGIN ATOM
M  V30 1 C 8.961339 5.369441 -9.949530 0
M  V30 2 O 9.834756 6.411305 -10.407592 0
M  V30 3 C 10.252378 7.041598 -9.243802 0
M  V30 4 C 9.667340 6.419772 -8.208673 0
M  V30 5 C 9.931854 6.878524 -6.899597 0
M  V30 6 C 11.108746 8.109401 -9.093344 0
M  V30 7 C 8.847984 5.369297 -8.565718 0
M  V30 8 N 10.790070 7.954615 -6.682437 0 CHG=1
M  V30 9 O 11.034839 8.371427 -5.491643 0 CHG=-1
M  V30 10 C 11.380830 8.568877 -7.787053 0
M  V30 11 H 8.531520 4.760817 -10.731216 0
M  V30 12 H 9.508923 6.448432 -6.003429 0
M  V30 13 H 11.561177 8.581436 -9.952545 0
M  V30 14 H 8.284604 4.742825 -7.891377 0
M  V30 15 H 12.035370 9.392602 -7.550905 0
M  V30 END ATOM
M  V30 BEGIN BOND
M  V30 1 1 2 1
M  V30 2 1 3 2
M  V30 3 1 4 3
M  V30 4 2 5 4
M  V30 5 2 6 3
M  V30 6 2 7 1
M  V30 7 1 7 4
M  V30 8 1 8 5
M  V30 9 1 9 8
M  V30 10 1 10 6
M  V30 11 2 10 8
M  V30 12 1 11 1
M  V30 13 1 12 5
M  V30 14 1 13 6
M  V30 15 1 14 7
M  V30 16 1 15 10
M  V30 END BOND
M  V30 END CTAB
M  END
>  <i_epik_Tot_Q>  (1) 
0

>  <i_epik_Tot_abs_Q>  (1) 
2

>  <i_i_glide_confnum>  (1) 
1

>  <i_i_glide_lignum>  (1) 
59

>  <i_i_glide_posenum>  (1) 
352

>  <i_i_glide_rotatable_bonds>  (1) 
0

>  <i_lp_mmshare_version>  (1) 
72125

>  <i_m_source_file_index>  (1) 
53

>  <i_f3d_flags>  (1) 
0

>  <num_sample>  (1) 
100

>  <b_lp_Chiralities_Consistent>  (1) 
1

>  <r_epik_Charging_Adjusted_Penalty>  (1) 
1.0992902245007022e-07

>  <r_epik_Ionization_Penalty>  (1) 
1.0992902245007022e-07

>  <r_epik_Ionization_Penalty_Charging>  (1) 
1.0992902245007022e-07

>  <r_epik_Ionization_Penalty_Neutral>  (1) 
0

>  <r_epik_State_Penalty>  (1) 
-0

>  <r_glide_ring_energy>  (1) 
0

>  <r_i_docking_score>  (1) 
-4.9108906546513822

>  <r_i_glide_ecoul>  (1) 
-3.1358047901953929

>  <r_i_glide_eff_state_penalty>  (1) 
-0

>  <r_i_glide_einternal>  (1) 
0

>  <r_i_glide_emodel>  (1) 
-26.524452550469171

>  <r_i_glide_emodel_strain>  (1) 
0

>  <r_i_glide_energy>  (1) 
-19.489329459905477

>  <r_i_glide_erotb>  (1) 
0

>  <r_i_glide_esite>  (1) 
0

>  <r_i_glide_evdw>  (1) 
-16.353524669710083

>  <r_i_glide_gscore>  (1) 
-4.9108906546513822

>  <r_i_glide_gscore_strain>  (1) 
0

>  <r_i_glide_hbond>  (1) 
0

>  <r_i_glide_ligand_efficiency>  (1) 
-0.4910890654651382

>  <r_i_glide_ligand_efficiency_ln>  (1) 
-1.4869838373185669

>  <r_i_glide_ligand_efficiency_sa>  (1) 
-1.0580193185334326

>  <r_i_glide_lipo>  (1) 
-0.44992698311406504

>  <r_i_glide_metal>  (1) 
-0

>  <r_i_glide_rewards>  (1) 
-3.1729167195225036

>  <r_lp_Energy>  (1) 
10.75684

>  <r_lp_tautomer_probability>  (1) 
1

>  <s_epik_cmdline>  (1) 
J2VwaWtfcHl0aG9uJywgJy1waHQnLCAnMS4wJywgJy1waCcsICc3LjQnLCAnLXRuJywgJzgnLCAnLW1hJywgJzUwMCcsICctaW1hZScsICc8aW5maWxlLm1hZT4nLCAnLW9tYWUnLCAnPG91dGZpbGUubWFlPic=

>  <s_epik_input>  (1) 
bzFbY0hdW2NIXWMoYzEyKVtjSF1bbitdKFtPLV0pW2NIXVtjSF0y

>  <s_glide_docking_method>  (1) 
confgen

>  <s_i_glide_gridfile>  (1) 
gpcr_drd2_6luq_protein_autoprepared_prepared

>  <s_lp_Force_Field>  (1) 
S-OPLS

>  <s_lp_Variant>  (1) 
Pocket2Mol_52_num_sample_100-1

>  <s_m_source_file>  (1) 
generated__ligand_Pocket2Mol_2026-05-06_prepared.sdf

>  <GenAI_Model>  (1) 
Pocket2Mol

>  <Protein>  (1) 
generic_title2

$$$$
Pocket2Mol_85_num_sample_100
     RDKit          3D

  0  0  0  0  0  0  0  0  0  0999 V3000
M  V30 BEGIN CTAB
M  V30 COUNTS 22 23 0 0 1
M  V30 BEGIN ATOM
M  V30 1 C 11.085208 8.332368 -5.470954 0
M  V30 2 O 9.834830 7.827759 -5.891780 0
M  V30 3 C 11.763729 9.056274 -6.627683 0
M  V30 4 O 12.284697 8.136794 -7.568127 0
M  V30 5 C 9.917430 6.657845 -6.686655 0
M  V30 6 C 11.405056 7.648876 -8.503086 0
M  V30 7 C 11.641802 7.835266 -9.871776 0
M  V30 8 C 10.257034 6.933957 -8.139092 0
M  V30 9 C 12.861106 8.584537 -10.343977 0
M  V30 10 N 10.810051 7.369288 -10.838208 0
M  V30 11 N 9.709862 6.673545 -10.488125 0
M  V30 12 C 9.434823 6.459940 -9.173750 0
M  V30 13 H 10.895597 9.053485 -4.677205 0
M  V30 14 H 11.718324 7.554261 -5.042073 0
M  V30 15 H 11.086612 9.769300 -7.091599 0
M  V30 16 H 12.604326 9.634351 -6.242642 0
M  V30 17 H 10.630671 5.945799 -6.269667 0
M  V30 18 H 8.942287 6.171061 -6.641604 0
M  V30 19 H 13.725939 8.380695 -9.711834 0
M  V30 20 H 12.634851 9.649247 -10.296818 0
M  V30 21 H 13.118041 8.323822 -11.370256 0
M  V30 22 H 8.541453 5.894697 -8.953009 0
M  V30 END ATOM
M  V30 BEGIN BOND
M  V30 1 1 2 1
M  V30 2 1 3 1
M  V30 3 1 4 3
M  V30 4 1 5 2
M  V30 5 1 6 4
M  V30 6 1 7 6
M  V30 7 1 8 5
M  V30 8 2 8 6
M  V30 9 1 9 7
M  V30 10 2 10 7
M  V30 11 1 11 10
M  V30 12 1 12 8
M  V30 13 2 12 11
M  V30 14 1 13 1
M  V30 15 1 14 1
M  V30 16 1 15 3
M  V30 17 1 16 3
M  V30 18 1 17 5
M  V30 19 1 18 5
M  V30 20 1 19 9
M  V30 21 1 20 9
M  V30 22 1 21 9
M  V30 23 1 22 12
M  V30 END BOND
M  V30 END CTAB
M  END
>  <i_epik_Tot_Q>  (1) 
0

>  <i_epik_Tot_abs_Q>  (1) 
0

>  <i_i_glide_confnum>  (1) 
1

>  <i_i_glide_lignum>  (1) 
92

>  <i_i_glide_posenum>  (1) 
162

>  <i_i_glide_rotatable_bonds>  (1) 
0

>  <i_lp_mmshare_version>  (1) 
72125

>  <i_m_source_file_index>  (1) 
86

>  <i_f3d_flags>  (1) 
0

>  <num_sample>  (1) 
100

>  <b_lp_Chiralities_Consistent>  (1) 
1

>  <r_epik_Charging_Adjusted_Penalty>  (1) 
0.0091269655628041547

>  <r_epik_Ionization_Penalty>  (1) 
0.0091374853106045584

>  <r_epik_Ionization_Penalty_Charging>  (1) 
0

>  <r_epik_Ionization_Penalty_Neutral>  (1) 
0.0091374853106045584

>  <r_epik_State_Penalty>  (1) 
0.0091269655628041547

>  <r_glide_ring_energy>  (1) 
0

>  <r_i_docking_score>  (1) 
-4.9059041931399223

>  <r_i_glide_ecoul>  (1) 
-0.32453707648861635

>  <r_i_glide_eff_state_penalty>  (1) 
0.0091269655628041547

>  <r_i_glide_einternal>  (1) 
0

>  <r_i_glide_emodel>  (1) 
-25.371343325565039

>  <r_i_glide_emodel_strain>  (1) 
0.022005282530930259

>  <r_i_glide_energy>  (1) 
-19.2258547450366

>  <r_i_glide_erotb>  (1) 
0

>  <r_i_glide_esite>  (1) 
-0.084168463796019347

>  <r_i_glide_evdw>  (1) 
-18.901317668547982

>  <r_i_glide_gscore>  (1) 
-4.9150311587027264

>  <r_i_glide_gscore_strain>  (1) 
0

>  <r_i_glide_hbond>  (1) 
0

>  <r_i_glide_ligand_efficiency>  (1) 
-0.40882534942832688

>  <r_i_glide_ligand_efficiency_ln>  (1) 
-1.4077577066342268

>  <r_i_glide_ligand_efficiency_sa>  (1) 
-0.93597640041489694

>  <r_i_glide_lipo>  (1) 
-0.96706822241983992

>  <r_i_glide_metal>  (1) 
-0

>  <r_i_glide_rewards>  (1) 
-2.8700480275861762

>  <r_lp_Energy>  (1) 
19.395567

>  <r_lp_tautomer_probability>  (1) 
1

>  <s_epik_cmdline>  (1) 
J2VwaWtfcHl0aG9uJywgJy1waHQnLCAnMS4wJywgJy1waCcsICc3LjQnLCAnLXRuJywgJzgnLCAnLW1hJywgJzUwMCcsICctaW1hZScsICc8aW5maWxlLm1hZT4nLCAnLW9tYWUnLCAnPG91dGZpbGUubWFlPic=

>  <s_epik_input>  (1) 
TzFbQ0gyXVtDSDJdT1tDSDJdYyhjMTIpW2NIXW5uYzJbQ0gzXQ==

>  <s_glide_docking_method>  (1) 
confgen

>  <s_i_glide_gridfile>  (1) 
gpcr_drd2_6luq_protein_autoprepared_prepared

>  <s_lp_Force_Field>  (1) 
S-OPLS

>  <s_lp_Variant>  (1) 
Pocket2Mol_85_num_sample_100-1

>  <s_m_source_file>  (1) 
generated__ligand_Pocket2Mol_2026-05-06_prepared.sdf

>  <GenAI_Model>  (1) 
Pocket2Mol

>  <Protein>  (1) 
generic_title2

$$$$
Pocket2Mol_92_num_sample_100
     RDKit          3D

  0  0  0  0  0  0  0  0  0  0999 V3000
M  V30 BEGIN CTAB
M  V30 COUNTS 26 27 0 0 1
M  V30 BEGIN ATOM
M  V30 1 C 9.881847 7.159175 -10.558018 0
M  V30 2 O 9.834819 5.821537 -10.090491 0
M  V30 3 C 10.683830 8.068179 -9.617197 0
M  V30 4 O 9.834886 8.463405 -8.553998 0
M  V30 5 C 9.154477 5.629487 -8.859504 0
M  V30 6 C 9.823286 7.636068 -7.388102 0 CFG=2
M  V30 7 C 10.781026 8.159277 -6.321027 0
M  V30 8 C 9.988076 6.131349 -7.675812 0
M  V30 9 C 10.987869 7.445864 -5.119119 0
M  V30 10 N 11.384280 9.337484 -6.595037 0
M  V30 11 C 12.185717 9.859486 -5.650896 0
M  V30 12 C 12.441144 9.235916 -4.413745 0
M  V30 13 C 11.834854 7.998909 -4.147467 0
M  V30 14 H 8.877931 7.549371 -10.726587 0
M  V30 15 H 10.371755 7.136183 -11.531673 0
M  V30 16 H 10.963951 8.969280 -10.158151 0
M  V30 17 H 11.617818 7.617046 -9.279332 0
M  V30 18 H 8.167485 6.083144 -8.871046 0
M  V30 19 H 8.998683 4.558609 -8.748073 0
M  V30 20 H 11.034782 5.869680 -7.829335 0
M  V30 21 H 9.669404 5.585237 -6.790977 0
M  V30 22 H 10.489241 6.504487 -4.940269 0
M  V30 23 H 12.634833 10.807440 -5.891671 0
M  V30 24 H 13.094027 9.697641 -3.687922 0
M  V30 25 H 12.009699 7.487994 -3.211902 0
M  V30 26 H 8.826802 7.777443 -6.966610 0
M  V30 END ATOM
M  V30 BEGIN BOND
M  V30 1 1 2 1
M  V30 2 1 3 1
M  V30 3 1 4 3
M  V30 4 1 5 2
M  V30 5 1 6 4
M  V30 6 1 7 6
M  V30 7 1 8 5
M  V30 8 1 8 6
M  V30 9 1 9 7
M  V30 10 2 10 7
M  V30 11 1 11 10
M  V30 12 2 12 11
M  V30 13 2 13 9
M  V30 14 1 13 12
M  V30 15 1 14 1
M  V30 16 1 15 1
M  V30 17 1 16 3
M  V30 18 1 17 3
M  V30 19 1 18 5
M  V30 20 1 19 5
M  V30 21 1 20 8
M  V30 22 1 21 8
M  V30 23 1 22 9
M  V30 24 1 23 11
M  V30 25 1 24 12
M  V30 26 1 25 13
M  V30 27 1 6 26 CFG=1
M  V30 END BOND
M  V30 END CTAB
M  END
>  <i_epik_Tot_Q>  (1) 
0

>  <i_epik_Tot_abs_Q>  (1) 
0

>  <i_i_glide_confnum>  (1) 
13

>  <i_i_glide_lignum>  (1) 
101

>  <i_i_glide_posenum>  (1) 
237

>  <i_i_glide_rotatable_bonds>  (1) 
1

>  <i_lp_mmshare_version>  (1) 
72125

>  <i_m_source_file_index>  (1) 
93

>  <i_f3d_flags>  (1) 
0

>  <num_sample>  (1) 
100

>  <b_lp_Chiralities_Consistent>  (1) 
1

>  <r_epik_Charging_Adjusted_Penalty>  (1) 
0.0037896276157117258

>  <r_epik_Ionization_Penalty>  (1) 
0.0037896276174286705

>  <r_epik_Ionization_Penalty_Charging>  (1) 
0

>  <r_epik_Ionization_Penalty_Neutral>  (1) 
0.0037896276174286705

>  <r_epik_State_Penalty>  (1) 
0.0037896276157117258

>  <r_glide_ring_energy>  (1) 
1.3082536976643624

>  <r_i_docking_score>  (1) 
-4.9035171968214906

>  <r_i_glide_ecoul>  (1) 
-1.237569723259448

>  <r_i_glide_eff_state_penalty>  (1) 
0.0037896276157117258

>  <r_i_glide_einternal>  (1) 
1.3878916250358735

>  <r_i_glide_emodel>  (1) 
-28.540707204214165

>  <r_i_glide_emodel_strain>  (1) 
1.0353851335407569

>  <r_i_glide_energy>  (1) 
-23.291935750250644

>  <r_i_glide_erotb>  (1) 
0.4895878840251785

>  <r_i_glide_esite>  (1) 
0

>  <r_i_glide_evdw>  (1) 
-22.054366026991197

>  <r_i_glide_gscore>  (1) 
-4.9073068244372022

>  <r_i_glide_gscore_strain>  (1) 
0

>  <r_i_glide_hbond>  (1) 
0

>  <r_i_glide_ligand_efficiency>  (1) 
-0.37719363052473004

>  <r_i_glide_ligand_efficiency_ln>  (1) 
-1.3754801836268149

>  <r_i_glide_ligand_efficiency_sa>  (1) 
-0.88690846744012508

>  <r_i_glide_lipo>  (1) 
-1.2849052312246452

>  <r_i_glide_metal>  (1) 
-0

>  <r_i_glide_rewards>  (1) 
-2.8236357173992594

>  <r_lp_Energy>  (1) 
20.663057999999999

>  <s_epik_cmdline>  (1) 
J2VwaWtfcHl0aG9uJywgJy1waHQnLCAnMS4wJywgJy1waCcsICc3LjQnLCAnLXRuJywgJzgnLCAnLW1hJywgJzUwMCcsICctaW1hZScsICc8aW5maWxlLm1hZT4nLCAnLW9tYWUnLCAnPG91dGZpbGUubWFlPic=

>  <s_epik_input>  (1) 
W0NIMl0xW0NIMl1PW0NIMl1bQ0gyXU8vQzE9QzJcW0NIXT1bQ0hdW0NIXT1bQ0hdW05IXTI=

>  <s_glide_docking_method>  (1) 
confgen

>  <s_i_glide_gridfile>  (1) 
gpcr_drd2_6luq_protein_autoprepared_prepared

>  <s_lp_Force_Field>  (1) 
S-OPLS

>  <s_lp_Variant>  (1) 
Pocket2Mol_92_num_sample_100-2

>  <s_m_source_file>  (1) 
generated__ligand_Pocket2Mol_2026-05-06_prepared.sdf

>  <GenAI_Model>  (1) 
Pocket2Mol

>  <Protein>  (1) 
generic_title2

$$$$
Pocket2Mol_18_num_sample_100
     RDKit          3D

  0  0  0  0  0  0  0  0  0  0999 V3000
M  V30 BEGIN CTAB
M  V30 COUNTS 15 15 0 0 1
M  V30 BEGIN ATOM
M  V30 1 C 11.034839 7.026334 -5.091667 0
M  V30 2 O 11.834839 7.907297 -4.396671 0
M  V30 3 C 11.682993 9.299385 -4.634431 0
M  V30 4 C 12.422201 9.769301 -5.891667 0
M  V30 5 O 12.152622 8.969301 -7.030868 0
M  V30 6 C 10.813471 8.517802 -7.149637 0
M  V30 7 C 10.543515 7.268014 -6.328595 0
M  V30 8 H 10.833850 6.127366 -4.526686 0
M  V30 9 H 12.088590 9.818119 -3.766801 0
M  V30 10 H 10.634839 9.578745 -4.671483 0
M  V30 11 H 13.499709 9.769298 -5.724016 0
M  V30 12 H 12.140340 10.799498 -6.111856 0
M  V30 13 H 10.666270 8.248286 -8.195632 0
M  V30 14 H 10.082387 9.296545 -6.929459 0
M  V30 15 H 9.910010 6.525756 -6.792997 0
M  V30 END ATOM
M  V30 BEGIN BOND
M  V30 1 1 2 1
M  V30 2 1 3 2
M  V30 3 1 4 3
M  V30 4 1 5 4
M  V30 5 1 6 5
M  V30 6 2 7 1
M  V30 7 1 7 6
M  V30 8 1 8 1
M  V30 9 1 9 3
M  V30 10 1 10 3
M  V30 11 1 11 4
M  V30 12 1 12 4
M  V30 13 1 13 6
M  V30 14 1 14 6
M  V30 15 1 15 7
M  V30 END BOND
M  V30 END CTAB
M  END
>  <i_epik_Tot_Q>  (1) 
0

>  <i_epik_Tot_abs_Q>  (1) 
0

>  <i_i_glide_confnum>  (1) 
3

>  <i_i_glide_lignum>  (1) 
21

>  <i_i_glide_posenum>  (1) 
175

>  <i_i_glide_rotatable_bonds>  (1) 
0

>  <i_lp_mmshare_version>  (1) 
72125

>  <i_m_source_file_index>  (1) 
19

>  <i_f3d_flags>  (1) 
0

>  <num_sample>  (1) 
100

>  <b_lp_Chiralities_Consistent>  (1) 
1

>  <r_epik_Charging_Adjusted_Penalty>  (1) 
0

>  <r_epik_Ionization_Penalty>  (1) 
5.6701613537443791e-14

>  <r_epik_Ionization_Penalty_Charging>  (1) 
0

>  <r_epik_Ionization_Penalty_Neutral>  (1) 
5.6701613537443791e-14

>  <r_epik_State_Penalty>  (1) 
-0

>  <r_glide_ring_energy>  (1) 
0.9851884203704826

>  <r_i_docking_score>  (1) 
-4.9012543519386762

>  <r_i_glide_ecoul>  (1) 
-0.66666961951306902

>  <r_i_glide_eff_state_penalty>  (1) 
-0

>  <r_i_glide_einternal>  (1) 
0

>  <r_i_glide_emodel>  (1) 
-21.503642799384636

>  <r_i_glide_emodel_strain>  (1) 
0

>  <r_i_glide_energy>  (1) 
-16.392933662362989

>  <r_i_glide_erotb>  (1) 
0

>  <r_i_glide_esite>  (1) 
0

>  <r_i_glide_evdw>  (1) 
-15.72626404284992

>  <r_i_glide_gscore>  (1) 
-4.9012543519386762

>  <r_i_glide_gscore_strain>  (1) 
0

>  <r_i_glide_hbond>  (1) 
0

>  <r_i_glide_ligand_efficiency>  (1) 
-0.7001791931340966

>  <r_i_glide_ligand_efficiency_ln>  (1) 
-1.6637487580910766

>  <r_i_glide_ligand_efficiency_sa>  (1) 
-1.3393946120746245

>  <r_i_glide_lipo>  (1) 
-1.4066153065837415

>  <r_i_glide_metal>  (1) 
-0

>  <r_i_glide_rewards>  (1) 
-2.6083254002854788

>  <r_lp_Energy>  (1) 
7.3473319999999998

>  <r_lp_tautomer_probability>  (1) 
1

>  <s_epik_cmdline>  (1) 
J2VwaWtfcHl0aG9uJywgJy1waHQnLCAnMS4wJywgJy1waCcsICc3LjQnLCAnLXRuJywgJzgnLCAnLW1hJywgJzUwMCcsICctaW1hZScsICc8aW5maWxlLm1hZT4nLCAnLW9tYWUnLCAnPG91dGZpbGUubWFlPic=

>  <s_epik_input>  (1) 
W0NIXTE9W0NIXVtDSDJdT1tDSDJdW0NIMl1PMQ==

>  <s_glide_docking_method>  (1) 
confgen

>  <s_i_glide_gridfile>  (1) 
gpcr_drd2_6luq_protein_autoprepared_prepared

>  <s_lp_Force_Field>  (1) 
S-OPLS

>  <s_lp_Variant>  (1) 
Pocket2Mol_18_num_sample_100-1

>  <s_m_source_file>  (1) 
generated__ligand_Pocket2Mol_2026-05-06_prepared.sdf

>  <GenAI_Model>  (1) 
Pocket2Mol

>  <Protein>  (1) 
generic_title2

$$$$
Pocket2Mol_23_num_sample_100
     RDKit          3D

  0  0  0  0  0  0  0  0  0  0999 V3000
M  V30 BEGIN CTAB
M  V30 COUNTS 11 11 0 0 1
M  V30 BEGIN ATOM
M  V30 1 N 12.248234 9.369277 -3.904040 0
M  V30 2 C 11.594722 9.420457 -5.091004 0
M  V30 3 C 11.034829 8.290177 -5.717325 0
M  V30 4 C 12.359969 8.155695 -3.310480 0
M  V30 5 C 11.834824 6.969301 -3.862861 0
M  V30 6 F 10.391293 8.408577 -6.902017 0
M  V30 7 C 11.154599 7.039961 -5.091670 0
M  V30 8 H 11.515731 10.394148 -5.552019 0
M  V30 9 H 12.884465 8.131560 -2.366725 0
M  V30 10 H 11.948198 6.025151 -3.350086 0
M  V30 11 H 10.735641 6.153634 -5.544068 0
M  V30 END ATOM
M  V30 BEGIN BOND
M  V30 1 2 2 1
M  V30 2 1 3 2
M  V30 3 1 4 1
M  V30 4 2 5 4
M  V30 5 1 6 3
M  V30 6 2 7 3
M  V30 7 1 7 5
M  V30 8 1 8 2
M  V30 9 1 9 4
M  V30 10 1 10 5
M  V30 11 1 11 7
M  V30 END BOND
M  V30 END CTAB
M  END
>  <i_epik_Tot_Q>  (1) 
0

>  <i_epik_Tot_abs_Q>  (1) 
0

>  <i_i_glide_confnum>  (1) 
1

>  <i_i_glide_lignum>  (1) 
27

>  <i_i_glide_posenum>  (1) 
364

>  <i_i_glide_rotatable_bonds>  (1) 
0

>  <i_lp_mmshare_version>  (1) 
72125

>  <i_m_source_file_index>  (1) 
24

>  <i_f3d_flags>  (1) 
0

>  <num_sample>  (1) 
100

>  <b_lp_Chiralities_Consistent>  (1) 
1

>  <r_epik_Charging_Adjusted_Penalty>  (1) 
0

>  <r_epik_Ionization_Penalty>  (1) 
7.3223601380878174e-05

>  <r_epik_Ionization_Penalty_Charging>  (1) 
0

>  <r_epik_Ionization_Penalty_Neutral>  (1) 
7.3223601380878174e-05

>  <r_epik_State_Penalty>  (1) 
-0

>  <r_glide_ring_energy>  (1) 
0

>  <r_i_docking_score>  (1) 
-4.8850697103773584

>  <r_i_glide_ecoul>  (1) 
-0.30805585070902836

>  <r_i_glide_eff_state_penalty>  (1) 
-0

>  <r_i_glide_einternal>  (1) 
0

>  <r_i_glide_emodel>  (1) 
-20.580210537144936

>  <r_i_glide_emodel_strain>  (1) 
0

>  <r_i_glide_energy>  (1) 
-15.54795673986446

>  <r_i_glide_erotb>  (1) 
0

>  <r_i_glide_esite>  (1) 
0

>  <r_i_glide_evdw>  (1) 
-15.239900889155432

>  <r_i_glide_gscore>  (1) 
-4.8850697103773584

>  <r_i_glide_gscore_strain>  (1) 
0

>  <r_i_glide_hbond>  (1) 
0

>  <r_i_glide_ligand_efficiency>  (1) 
-0.69786710148247977

>  <r_i_glide_ligand_efficiency_ln>  (1) 
-1.6582548221791114

>  <r_i_glide_ligand_efficiency_sa>  (1) 
-1.3349717398568191

>  <r_i_glide_lipo>  (1) 
-1.4316755038619227

>  <r_i_glide_metal>  (1) 
-0

>  <r_i_glide_rewards>  (1) 
-2.6451907844513087

>  <r_lp_Energy>  (1) 
10.789624

>  <r_lp_tautomer_probability>  (1) 
1

>  <s_epik_cmdline>  (1) 
J2VwaWtfcHl0aG9uJywgJy1waHQnLCAnMS4wJywgJy1waCcsICc3LjQnLCAnLXRuJywgJzgnLCAnLW1hJywgJzUwMCcsICctaW1hZScsICc8aW5maWxlLm1hZT4nLCAnLW9tYWUnLCAnPG91dGZpbGUubWFlPic=

>  <s_epik_input>  (1) 
W2NIXTFbY0hdW2NIXW5bY0hdYzFG

>  <s_glide_docking_method>  (1) 
confgen

>  <s_i_glide_gridfile>  (1) 
gpcr_drd2_6luq_protein_autoprepared_prepared

>  <s_lp_Force_Field>  (1) 
S-OPLS

>  <s_lp_Variant>  (1) 
Pocket2Mol_23_num_sample_100-1

>  <s_m_source_file>  (1) 
generated__ligand_Pocket2Mol_2026-05-06_prepared.sdf

>  <GenAI_Model>  (1) 
Pocket2Mol

>  <Protein>  (1) 
generic_title2

$$$$
Pocket2Mol_8_num_sample_100
     RDKit          3D

  0  0  0  0  0  0  0  0  0  0999 V3000
M  V30 BEGIN CTAB
M  V30 COUNTS 13 13 0 0 1
M  V30 BEGIN ATOM
M  V30 1 N 12.555860 7.811510 -2.233802 0
M  V30 2 C 12.408831 8.766320 -3.197178 0
M  V30 3 C 11.834841 8.362119 -4.291672 0
M  V30 4 C 12.010485 6.804035 -2.852499 0
M  V30 5 C 11.550334 9.231636 -5.499952 0
M  V30 6 C 11.434839 6.941548 -4.318096 0
M  V30 7 H 12.760956 9.769377 -3.004380 0
M  V30 8 H 11.920953 5.813708 -2.397495 0
M  V30 9 H 12.069284 8.846787 -6.377888 0
M  V30 10 H 10.480957 9.244081 -5.712461 0
M  V30 11 H 11.876199 10.258797 -5.333094 0
M  V30 12 H 11.983567 6.336907 -5.039459 0
M  V30 13 H 10.361131 6.765397 -4.368924 0
M  V30 END ATOM
M  V30 BEGIN BOND
M  V30 1 1 2 1
M  V30 2 2 3 2
M  V30 3 2 4 1
M  V30 4 1 5 3
M  V30 5 1 6 3
M  V30 6 1 6 4
M  V30 7 1 7 2
M  V30 8 1 8 4
M  V30 9 1 9 5
M  V30 10 1 10 5
M  V30 11 1 11 5
M  V30 12 1 12 6
M  V30 13 1 13 6
M  V30 END BOND
M  V30 END CTAB
M  END
>  <i_epik_Tot_Q>  (1) 
0

>  <i_epik_Tot_abs_Q>  (1) 
0

>  <i_i_glide_confnum>  (1) 
1

>  <i_i_glide_lignum>  (1) 
9

>  <i_i_glide_posenum>  (1) 
383

>  <i_i_glide_rotatable_bonds>  (1) 
0

>  <i_lp_mmshare_version>  (1) 
72125

>  <i_m_source_file_index>  (1) 
9

>  <i_f3d_flags>  (1) 
0

>  <num_sample>  (1) 
100

>  <b_lp_Chiralities_Consistent>  (1) 
1

>  <r_epik_Charging_Adjusted_Penalty>  (1) 
0

>  <r_epik_Ionization_Penalty>  (1) 
0

>  <r_epik_Ionization_Penalty_Charging>  (1) 
0

>  <r_epik_Ionization_Penalty_Neutral>  (1) 
0

>  <r_epik_State_Penalty>  (1) 
-0

>  <r_glide_ring_energy>  (1) 
0

>  <r_i_docking_score>  (1) 
-4.8818662069998613

>  <r_i_glide_ecoul>  (1) 
-0.75783919417085865

>  <r_i_glide_eff_state_penalty>  (1) 
-0

>  <r_i_glide_einternal>  (1) 
0

>  <r_i_glide_emodel>  (1) 
-21.457843930542829

>  <r_i_glide_emodel_strain>  (1) 
0

>  <r_i_glide_energy>  (1) 
-16.087419180888865

>  <r_i_glide_erotb>  (1) 
0

>  <r_i_glide_esite>  (1) 
0

>  <r_i_glide_evdw>  (1) 
-15.329579986718008

>  <r_i_glide_gscore>  (1) 
-4.8818662069998613

>  <r_i_glide_gscore_strain>  (1) 
0

>  <r_i_glide_hbond>  (1) 
0

>  <r_i_glide_ligand_efficiency>  (1) 
-0.81364436783331018

>  <r_i_glide_ligand_efficiency_ln>  (1) 
-1.7486700630229217

>  <r_i_glide_ligand_efficiency_sa>  (1) 
-1.4784899360317962

>  <r_i_glide_lipo>  (1) 
-1.0894276220432768

>  <r_i_glide_metal>  (1) 
-0

>  <r_i_glide_rewards>  (1) 
-2.9122837064950549

>  <r_lp_Energy>  (1) 
-3.9959819999999997

>  <r_lp_tautomer_probability>  (1) 
1

>  <s_epik_Chemistry_Notes>  (1) 
This compound has an imine and may undergo hydrolysis.

>  <s_epik_cmdline>  (1) 
J2VwaWtfcHl0aG9uJywgJy1waHQnLCAnMS4wJywgJy1waCcsICc3LjQnLCAnLXRuJywgJzgnLCAnLW1hJywgJzUwMCcsICctaW1hZScsICc8aW5maWxlLm1hZT4nLCAnLW9tYWUnLCAnPG91dGZpbGUubWFlPic=

>  <s_epik_input>  (1) 
W0NIMl0xW0NIXT1OW0NIXT1DMVtDSDNd

>  <s_glide_docking_method>  (1) 
confgen

>  <s_i_glide_gridfile>  (1) 
gpcr_drd2_6luq_protein_autoprepared_prepared

>  <s_lp_Force_Field>  (1) 
S-OPLS

>  <s_lp_Variant>  (1) 
Pocket2Mol_8_num_sample_100-1

>  <s_m_source_file>  (1) 
generated__ligand_Pocket2Mol_2026-05-06_prepared.sdf

>  <GenAI_Model>  (1) 
Pocket2Mol

>  <Protein>  (1) 
generic_title2

$$$$
Pocket2Mol_75_num_sample_100
     RDKit          3D

  0  0  0  0  0  0  0  0  0  0999 V3000
M  V30 BEGIN CTAB
M  V30 COUNTS 17 18 0 0 1
M  V30 BEGIN ATOM
M  V30 1 C 8.618683 5.156214 -9.986192 0
M  V30 2 O 9.435431 6.057010 -10.616046 0
M  V30 3 C 10.007791 6.827689 -9.625708 0
M  V30 4 C 9.537452 6.396844 -8.360409 0
M  V30 5 C 10.025583 7.082470 -7.224569 0
M  V30 6 C 10.946115 8.155066 -7.345661 0
M  V30 7 C 8.636570 5.310281 -8.620437 0
M  V30 8 N 11.440119 8.854249 -6.141663 0 CHG=1
M  V30 9 C 11.386259 8.548032 -8.634691 0
M  V30 10 O 11.037038 8.478839 -5.045555 0 CHG=-1
M  V30 11 C 10.917451 7.883819 -9.784382 0
M  V30 12 O 12.231717 9.779455 -6.291808 0
M  V30 13 H 8.093883 4.474351 -10.639786 0
M  V30 14 H 9.681884 6.772604 -6.248867 0
M  V30 15 H 8.089676 4.737534 -7.886238 0
M  V30 16 H 12.087091 9.362428 -8.749564 0
M  V30 17 H 11.248894 8.178384 -10.768945 0
M  V30 END ATOM
M  V30 BEGIN BOND
M  V30 1 1 2 1
M  V30 2 1 3 2
M  V30 3 1 4 3
M  V30 4 2 5 4
M  V30 5 1 6 5
M  V30 6 2 7 1
M  V30 7 1 7 4
M  V30 8 1 8 6
M  V30 9 2 9 6
M  V30 10 1 10 8
M  V30 11 2 11 3
M  V30 12 1 11 9
M  V30 13 2 12 8
M  V30 14 1 13 1
M  V30 15 1 14 5
M  V30 16 1 15 7
M  V30 17 1 16 9
M  V30 18 1 17 11
M  V30 END BOND
M  V30 END CTAB
M  END
>  <i_epik_Tot_Q>  (1) 
0

>  <i_epik_Tot_abs_Q>  (1) 
2

>  <i_i_glide_confnum>  (1) 
1

>  <i_i_glide_lignum>  (1) 
82

>  <i_i_glide_posenum>  (1) 
345

>  <i_i_glide_rotatable_bonds>  (1) 
1

>  <i_lp_mmshare_version>  (1) 
72125

>  <i_m_source_file_index>  (1) 
76

>  <i_f3d_flags>  (1) 
0

>  <num_sample>  (1) 
100

>  <b_lp_Chiralities_Consistent>  (1) 
1

>  <r_epik_Charging_Adjusted_Penalty>  (1) 
0

>  <r_epik_Ionization_Penalty>  (1) 
0

>  <r_epik_Ionization_Penalty_Charging>  (1) 
0

>  <r_epik_Ionization_Penalty_Neutral>  (1) 
0

>  <r_epik_State_Penalty>  (1) 
-0

>  <r_glide_ring_energy>  (1) 
0

>  <r_i_docking_score>  (1) 
-4.8781086390555579

>  <r_i_glide_ecoul>  (1) 
-0.62494411978287789

>  <r_i_glide_eff_state_penalty>  (1) 
-0

>  <r_i_glide_einternal>  (1) 
0.00070244725322732293

>  <r_i_glide_emodel>  (1) 
-31.4515762653735

>  <r_i_glide_emodel_strain>  (1) 
3.3391735598797823e-08

>  <r_i_glide_energy>  (1) 
-23.453746966994338

>  <r_i_glide_erotb>  (1) 
0

>  <r_i_glide_esite>  (1) 
0

>  <r_i_glide_evdw>  (1) 
-22.82880284721146

>  <r_i_glide_gscore>  (1) 
-4.8781086390555579

>  <r_i_glide_gscore_strain>  (1) 
0

>  <r_i_glide_hbond>  (1) 
0

>  <r_i_glide_ligand_efficiency>  (1) 
-0.40650905325462983

>  <r_i_glide_ligand_efficiency_ln>  (1) 
-1.3997817242399624

>  <r_i_glide_ligand_efficiency_sa>  (1) 
-0.93067340597489134

>  <r_i_glide_lipo>  (1) 
-0.45928888719107092

>  <r_i_glide_metal>  (1) 
-0

>  <r_i_glide_rewards>  (1) 
-3.1836379915364832

>  <r_lp_Energy>  (1) 
17.097996999999999

>  <r_lp_tautomer_probability>  (1) 
1

>  <s_epik_cmdline>  (1) 
J2VwaWtfcHl0aG9uJywgJy1waHQnLCAnMS4wJywgJy1waCcsICc3LjQnLCAnLXRuJywgJzgnLCAnLW1hJywgJzUwMCcsICctaW1hZScsICc8aW5maWxlLm1hZT4nLCAnLW9tYWUnLCAnPG91dGZpbGUubWFlPic=

>  <s_epik_input>  (1) 
bzFbY0hdW2NIXWMoYzEyKVtjSF1jKFtOK10oW08tXSk9TylbY0hdW2NIXTI=

>  <s_glide_docking_method>  (1) 
confgen

>  <s_i_glide_gridfile>  (1) 
gpcr_drd2_6luq_protein_autoprepared_prepared

>  <s_lp_Force_Field>  (1) 
S-OPLS

>  <s_lp_Variant>  (1) 
Pocket2Mol_75_num_sample_100-1

>  <s_m_source_file>  (1) 
generated__ligand_Pocket2Mol_2026-05-06_prepared.sdf

>  <GenAI_Model>  (1) 
Pocket2Mol

>  <Protein>  (1) 
generic_title2

$$$$
Pocket2Mol_80_num_sample_100
     RDKit          3D

  0  0  0  0  0  0  0  0  0  0999 V3000
M  V30 BEGIN CTAB
M  V30 COUNTS 19 20 0 0 1
M  V30 BEGIN ATOM
M  V30 1 C 8.658068 5.247913 -10.113791 0
M  V30 2 O 9.589703 6.194906 -10.762170 0
M  V30 3 C 10.083784 6.869176 -9.699912 0
M  V30 4 C 9.631216 6.474318 -8.491274 0
M  V30 5 C 10.058996 7.094686 -7.306025 0
M  V30 6 C 8.672244 5.369300 -8.521716 0
M  V30 7 C 10.991601 8.159573 -7.387321 0
M  V30 8 N 11.457838 8.837111 -6.162501 0 CHG=1
M  V30 9 O 11.034839 8.424893 -5.091660 0 CHG=-1
M  V30 10 O 12.243441 9.769301 -6.291524 0
M  V30 11 C 11.473563 8.566573 -8.661631 0
M  V30 12 C 11.012526 7.912801 -9.824797 0
M  V30 13 H 7.652840 5.444102 -10.488766 0
M  V30 14 H 8.914584 4.232895 -10.418991 0
M  V30 15 H 9.679039 6.765270 -6.349399 0
M  V30 16 H 9.060883 4.481036 -8.025515 0
M  V30 17 H 7.708998 5.656093 -8.106864 0
M  V30 18 H 12.188149 9.369862 -8.743488 0
M  V30 19 H 11.368591 8.210542 -10.796637 0
M  V30 END ATOM
M  V30 BEGIN BOND
M  V30 1 1 2 1
M  V30 2 1 3 2
M  V30 3 2 4 3
M  V30 4 1 5 4
M  V30 5 1 6 1
M  V30 6 1 6 4
M  V30 7 2 7 5
M  V30 8 1 8 7
M  V30 9 1 9 8
M  V30 10 2 10 8
M  V30 11 1 11 7
M  V30 12 1 12 3
M  V30 13 2 12 11
M  V30 14 1 13 1
M  V30 15 1 14 1
M  V30 16 1 15 5
M  V30 17 1 16 6
M  V30 18 1 17 6
M  V30 19 1 18 11
M  V30 20 1 19 12
M  V30 END BOND
M  V30 END CTAB
M  END
>  <i_epik_Tot_Q>  (1) 
0

>  <i_epik_Tot_abs_Q>  (1) 
2

>  <i_i_glide_confnum>  (1) 
1

>  <i_i_glide_lignum>  (1) 
87

>  <i_i_glide_posenum>  (1) 
268

>  <i_i_glide_rotatable_bonds>  (1) 
1

>  <i_lp_mmshare_version>  (1) 
72125

>  <i_m_source_file_index>  (1) 
81

>  <i_f3d_flags>  (1) 
0

>  <num_sample>  (1) 
100

>  <b_lp_Chiralities_Consistent>  (1) 
1

>  <r_epik_Charging_Adjusted_Penalty>  (1) 
0

>  <r_epik_Ionization_Penalty>  (1) 
0

>  <r_epik_Ionization_Penalty_Charging>  (1) 
0

>  <r_epik_Ionization_Penalty_Neutral>  (1) 
0

>  <r_epik_State_Penalty>  (1) 
-0

>  <r_glide_ring_energy>  (1) 
0

>  <r_i_docking_score>  (1) 
-4.8752979432927841

>  <r_i_glide_ecoul>  (1) 
-0.94865669841817879

>  <r_i_glide_eff_state_penalty>  (1) 
-0

>  <r_i_glide_einternal>  (1) 
0.0014077489802857279

>  <r_i_glide_emodel>  (1) 
-31.774546071703355

>  <r_i_glide_emodel_strain>  (1) 
0

>  <r_i_glide_energy>  (1) 
-23.76497774000407

>  <r_i_glide_erotb>  (1) 
0

>  <r_i_glide_esite>  (1) 
0

>  <r_i_glide_evdw>  (1) 
-22.816321041585891

>  <r_i_glide_gscore>  (1) 
-4.8752979432927841

>  <r_i_glide_gscore_strain>  (1) 
0

>  <r_i_glide_hbond>  (1) 
0

>  <r_i_glide_ligand_efficiency>  (1) 
-0.40627482860773201

>  <r_i_glide_ligand_efficiency_ln>  (1) 
-1.398975190221915

>  <r_i_glide_ligand_efficiency_sa>  (1) 
-0.93013716539636937

>  <r_i_glide_lipo>  (1) 
-0.51283663328110396

>  <r_i_glide_metal>  (1) 
-0

>  <r_i_glide_rewards>  (1) 
-3.0793467531696597

>  <r_lp_Energy>  (1) 
14.797289999999998

>  <r_lp_tautomer_probability>  (1) 
1

>  <s_epik_cmdline>  (1) 
J2VwaWtfcHl0aG9uJywgJy1waHQnLCAnMS4wJywgJy1waCcsICc3LjQnLCAnLXRuJywgJzgnLCAnLW1hJywgJzUwMCcsICctaW1hZScsICc8aW5maWxlLm1hZT4nLCAnLW9tYWUnLCAnPG91dGZpbGUubWFlPic=

>  <s_epik_input>  (1) 
TzFbQ0gyXVtDSDJdYyhjMTIpW2NIXWMoW04rXShbTy1dKT1PKVtjSF1bY0hdMg==

>  <s_glide_docking_method>  (1) 
confgen

>  <s_i_glide_gridfile>  (1) 
gpcr_drd2_6luq_protein_autoprepared_prepared

>  <s_lp_Force_Field>  (1) 
S-OPLS

>  <s_lp_Variant>  (1) 
Pocket2Mol_80_num_sample_100-1

>  <s_m_source_file>  (1) 
generated__ligand_Pocket2Mol_2026-05-06_prepared.sdf

>  <GenAI_Model>  (1) 
Pocket2Mol

>  <Protein>  (1) 
generic_title2

$$$$
Pocket2Mol_7_num_sample_100
     RDKit          3D

  0  0  0  0  0  0  0  0  0  0999 V3000
M  V30 BEGIN CTAB
M  V30 COUNTS 11 11 0 0 1
M  V30 BEGIN ATOM
M  V30 1 N 11.834870 7.716998 -3.929102 0
M  V30 2 C 11.240879 6.776777 -4.703113 0
M  V30 3 C 10.634838 7.061037 -5.942127 0
M  V30 4 C 10.640346 8.383838 -6.407886 0
M  V30 5 C 11.253974 9.369371 -5.618935 0
M  V30 6 C 11.835867 8.989796 -4.393883 0
M  V30 7 H 11.247871 5.769283 -4.318991 0
M  V30 8 H 10.171427 6.275276 -6.521321 0
M  V30 9 H 10.182200 8.638169 -7.352787 0
M  V30 10 H 11.278426 10.398686 -5.944129 0
M  V30 11 H 12.315238 9.727529 -3.766985 0
M  V30 END ATOM
M  V30 BEGIN BOND
M  V30 1 2 2 1
M  V30 2 1 3 2
M  V30 3 2 4 3
M  V30 4 1 5 4
M  V30 5 1 6 1
M  V30 6 2 6 5
M  V30 7 1 7 2
M  V30 8 1 8 3
M  V30 9 1 9 4
M  V30 10 1 10 5
M  V30 11 1 11 6
M  V30 END BOND
M  V30 END CTAB
M  END
>  <i_epik_Tot_Q>  (1) 
0

>  <i_epik_Tot_abs_Q>  (1) 
0

>  <i_i_glide_confnum>  (1) 
1

>  <i_i_glide_lignum>  (1) 
8

>  <i_i_glide_posenum>  (1) 
212

>  <i_i_glide_rotatable_bonds>  (1) 
0

>  <i_lp_mmshare_version>  (1) 
72125

>  <i_m_source_file_index>  (1) 
8

>  <i_f3d_flags>  (1) 
0

>  <num_sample>  (1) 
100

>  <b_lp_Chiralities_Consistent>  (1) 
1

>  <r_epik_Charging_Adjusted_Penalty>  (1) 
0

>  <r_epik_Ionization_Penalty>  (1) 
0.0028947865417402485

>  <r_epik_Ionization_Penalty_Charging>  (1) 
0

>  <r_epik_Ionization_Penalty_Neutral>  (1) 
0.0028947865417402485

>  <r_epik_State_Penalty>  (1) 
-0

>  <r_glide_ring_energy>  (1) 
0

>  <r_i_docking_score>  (1) 
-4.8702879432212915

>  <r_i_glide_ecoul>  (1) 
-0.68886383839159304

>  <r_i_glide_eff_state_penalty>  (1) 
-0

>  <r_i_glide_einternal>  (1) 
0

>  <r_i_glide_emodel>  (1) 
-18.834343028676201

>  <r_i_glide_emodel_strain>  (1) 
0

>  <r_i_glide_energy>  (1) 
-14.153661297425586

>  <r_i_glide_erotb>  (1) 
0

>  <r_i_glide_esite>  (1) 
0

>  <r_i_glide_evdw>  (1) 
-13.464797459033994

>  <r_i_glide_gscore>  (1) 
-4.8702879432212915

>  <r_i_glide_gscore_strain>  (1) 
0

>  <r_i_glide_hbond>  (1) 
0

>  <r_i_glide_ligand_efficiency>  (1) 
-0.81171465720354863

>  <r_i_glide_ligand_efficiency_ln>  (1) 
-1.7445227631189757

>  <r_i_glide_ligand_efficiency_sa>  (1) 
-1.4749834191082494

>  <r_i_glide_lipo>  (1) 
-1.5103851611775196

>  <r_i_glide_metal>  (1) 
-0

>  <r_i_glide_rewards>  (1) 
-2.5833333333333335

>  <r_lp_Energy>  (1) 
11.088944

>  <r_lp_tautomer_probability>  (1) 
1

>  <s_epik_cmdline>  (1) 
J2VwaWtfcHl0aG9uJywgJy1waHQnLCAnMS4wJywgJy1waCcsICc3LjQnLCAnLXRuJywgJzgnLCAnLW1hJywgJzUwMCcsICctaW1hZScsICc8aW5maWxlLm1hZT4nLCAnLW9tYWUnLCAnPG91dGZpbGUubWFlPic=

>  <s_epik_input>  (1) 
bjFbY0hdW2NIXVtjSF1bY0hdW2NIXTE=

>  <s_glide_docking_method>  (1) 
confgen

>  <s_i_glide_gridfile>  (1) 
gpcr_drd2_6luq_protein_autoprepared_prepared

>  <s_lp_Force_Field>  (1) 
S-OPLS

>  <s_lp_Variant>  (1) 
Pocket2Mol_7_num_sample_100-1

>  <s_m_source_file>  (1) 
generated__ligand_Pocket2Mol_2026-05-06_prepared.sdf

>  <GenAI_Model>  (1) 
Pocket2Mol

>  <Protein>  (1) 
generic_title2

$$$$
Pocket2Mol_91_num_sample_100
     RDKit          3D

  0  0  0  0  0  0  0  0  0  0999 V3000
M  V30 BEGIN CTAB
M  V30 COUNTS 22 23 0 0 1
M  V30 BEGIN ATOM
M  V30 1 C 11.347858 9.529833 -5.063146 0
M  V30 2 O 11.729330 8.206937 -4.747848 0
M  V30 3 C 12.234839 9.995372 -6.193348 0
M  V30 4 O 12.508120 8.969299 -7.117209 0
M  V30 5 C 11.034839 7.173382 -5.263179 0
M  V30 6 C 11.466597 8.212887 -7.588428 0
M  V30 7 C 11.126850 8.282092 -8.957076 0
M  V30 8 O 10.666079 6.218936 -4.588727 0
M  V30 9 C 10.739200 7.318268 -6.737355 0
M  V30 10 C 10.084312 7.474033 -9.450351 0
M  V30 11 C 9.719440 6.531238 -7.307745 0
M  V30 12 N 9.694247 7.507330 -10.787286 0
M  V30 13 N 9.434839 6.638632 -8.619517 0 CHG=1
M  V30 14 H 10.296444 9.578285 -5.351996 0
M  V30 15 H 11.466979 10.169290 -4.188765 0
M  V30 16 H 11.834831 10.880555 -6.687422 0
M  V30 17 H 13.212777 10.254883 -5.797091 0
M  V30 18 H 11.664396 8.946996 -9.617184 0
M  V30 19 H 9.115802 5.829066 -6.750800 0
M  V30 20 H 10.095208 8.169301 -11.433988 0
M  V30 21 H 8.883128 6.995448 -11.107041 0
M  V30 22 H 8.676185 6.068132 -8.998950 0
M  V30 END ATOM
M  V30 BEGIN BOND
M  V30 1 1 2 1
M  V30 2 1 3 1
M  V30 3 1 4 3
M  V30 4 1 5 2
M  V30 5 1 6 4
M  V30 6 1 7 6
M  V30 7 2 8 5
M  V30 8 1 9 5
M  V30 9 2 9 6
M  V30 10 2 10 7
M  V30 11 1 11 9
M  V30 12 1 12 10
M  V30 13 1 13 10
M  V30 14 2 13 11
M  V30 15 1 14 1
M  V30 16 1 15 1
M  V30 17 1 16 3
M  V30 18 1 17 3
M  V30 19 1 18 7
M  V30 20 1 19 11
M  V30 21 1 20 12
M  V30 22 1 21 12
M  V30 23 1 22 13
M  V30 END BOND
M  V30 END CTAB
M  END
>  <i_epik_Tot_Q>  (1) 
1

>  <i_epik_Tot_abs_Q>  (1) 
1

>  <i_i_glide_confnum>  (1) 
1

>  <i_i_glide_lignum>  (1) 
98

>  <i_i_glide_posenum>  (1) 
360

>  <i_i_glide_rotatable_bonds>  (1) 
0

>  <i_lp_mmshare_version>  (1) 
72125

>  <i_m_source_file_index>  (1) 
92

>  <i_f3d_flags>  (1) 
0

>  <num_sample>  (1) 
100

>  <b_lp_Chiralities_Consistent>  (1) 
1

>  <r_epik_Charging_Adjusted_Penalty>  (1) 
0.71045643263358682

>  <r_epik_Ionization_Penalty>  (1) 
0.3552545589029974

>  <r_epik_Ionization_Penalty_Charging>  (1) 
0.35522821631679397

>  <r_epik_Ionization_Penalty_Neutral>  (1) 
2.6342586203446271e-05

>  <r_epik_State_Penalty>  (1) 
0.35522821631679286

>  <r_glide_ring_energy>  (1) 
0

>  <r_i_docking_score>  (1) 
-4.8593032585229237

>  <r_i_glide_ecoul>  (1) 
1.1114732651859391

>  <r_i_glide_eff_state_penalty>  (1) 
0.35522821631679286

>  <r_i_glide_einternal>  (1) 
0

>  <r_i_glide_emodel>  (1) 
-28.983602890520324

>  <r_i_glide_emodel_strain>  (1) 
0.00025358219623683453

>  <r_i_glide_energy>  (1) 
-18.937603096860446

>  <r_i_glide_erotb>  (1) 
0

>  <r_i_glide_esite>  (1) 
-0.18668370435339596

>  <r_i_glide_evdw>  (1) 
-20.049076362046385

>  <r_i_glide_gscore>  (1) 
-5.2145314748397169

>  <r_i_glide_gscore_strain>  (1) 
0

>  <r_i_glide_hbond>  (1) 
0

>  <r_i_glide_ligand_efficiency>  (1) 
-0.37379255834791719

>  <r_i_glide_ligand_efficiency_ln>  (1) 
-1.3630777807130048

>  <r_i_glide_ligand_efficiency_sa>  (1) 
-0.8789114084553431

>  <r_i_glide_lipo>  (1) 
-1.240255841888545

>  <r_i_glide_metal>  (1) 
-0

>  <r_i_glide_rewards>  (1) 
-2.9518591002733481

>  <r_lp_Energy>  (1) 
16.247630000000001

>  <s_epik_Chemistry_Notes>  (1) 
This compound has an ester and may undergo hydrolysis at high or low pH.

>  <s_epik_cmdline>  (1) 
J2VwaWtfcHl0aG9uJywgJy1waHQnLCAnMS4wJywgJy1waCcsICc3LjQnLCAnLXRuJywgJzgnLCAnLW1hJywgJzUwMCcsICctaW1hZScsICc8aW5maWxlLm1hZT4nLCAnLW9tYWUnLCAnPG91dGZpbGUubWFlPic=

>  <s_epik_input>  (1) 
TzFbQ0gyXVtDSDJdT0MoPU8pYyhjMTIpW2NIXW5jKFtjSF0yKVtOSDJd

>  <s_glide_docking_method>  (1) 
confgen

>  <s_i_glide_gridfile>  (1) 
gpcr_drd2_6luq_protein_autoprepared_prepared

>  <s_lp_Force_Field>  (1) 
S-OPLS

>  <s_lp_Variant>  (1) 
Pocket2Mol_91_num_sample_100-1

>  <s_m_source_file>  (1) 
generated__ligand_Pocket2Mol_2026-05-06_prepared.sdf

>  <GenAI_Model>  (1) 
Pocket2Mol

>  <Protein>  (1) 
generic_title2

$$$$
Pocket2Mol_28_num_sample_100
     RDKit          3D

  0  0  0  0  0  0  0  0  0  0999 V3000
M  V30 BEGIN CTAB
M  V30 COUNTS 13 13 0 0 1
M  V30 BEGIN ATOM
M  V30 1 N 11.173215 6.455411 -4.788174 0
M  V30 2 C 11.834969 7.266322 -3.888672 0
M  V30 3 C 11.993920 8.592386 -4.066295 0
M  V30 4 C 10.652580 7.012511 -5.942263 0
M  V30 5 O 12.634838 9.368520 -3.186258 0
M  V30 6 C 11.432833 9.238128 -5.287321 0
M  V30 7 O 11.519781 10.447173 -5.490171 0
M  V30 8 C 10.741338 8.326882 -6.241246 0
M  V30 9 H 12.218382 6.743491 -3.023075 0
M  V30 10 H 10.160306 6.301570 -6.591204 0
M  V30 11 H 12.920149 8.822405 -2.470640 0
M  V30 12 H 10.319802 8.733155 -7.148772 0
M  V30 13 H 11.068828 5.464179 -4.606054 0
M  V30 END ATOM
M  V30 BEGIN BOND
M  V30 1 1 2 1
M  V30 2 2 3 2
M  V30 3 1 4 1
M  V30 4 1 5 3
M  V30 5 1 6 3
M  V30 6 2 7 6
M  V30 7 2 8 4
M  V30 8 1 8 6
M  V30 9 1 9 2
M  V30 10 1 10 4
M  V30 11 1 11 5
M  V30 12 1 12 8
M  V30 13 1 13 1
M  V30 END BOND
M  V30 END CTAB
M  END
>  <i_epik_Tot_Q>  (1) 
0

>  <i_epik_Tot_abs_Q>  (1) 
0

>  <i_i_glide_confnum>  (1) 
1

>  <i_i_glide_lignum>  (1) 
32

>  <i_i_glide_posenum>  (1) 
102

>  <i_i_glide_rotatable_bonds>  (1) 
1

>  <i_lp_mmshare_version>  (1) 
72125

>  <i_m_source_file_index>  (1) 
29

>  <i_f3d_flags>  (1) 
0

>  <num_sample>  (1) 
100

>  <b_lp_Chiralities_Consistent>  (1) 
1

>  <r_epik_Charging_Adjusted_Penalty>  (1) 
0.000203171374695584

>  <r_epik_Ionization_Penalty>  (1) 
0.014901896624084464

>  <r_epik_Ionization_Penalty_Charging>  (1) 
0.000203171374695584

>  <r_epik_Ionization_Penalty_Neutral>  (1) 
0.01469872524938888

>  <r_epik_State_Penalty>  (1) 
-0

>  <r_glide_ring_energy>  (1) 
0

>  <r_i_docking_score>  (1) 
-4.8585168052790602

>  <r_i_glide_ecoul>  (1) 
-2.3572987157824605

>  <r_i_glide_eff_state_penalty>  (1) 
-0

>  <r_i_glide_einternal>  (1) 
0.0004016587228474755

>  <r_i_glide_emodel>  (1) 
-27.644376394978291

>  <r_i_glide_emodel_strain>  (1) 
3.765698863844591e-10

>  <r_i_glide_energy>  (1) 
-20.374465293326534

>  <r_i_glide_erotb>  (1) 
0

>  <r_i_glide_esite>  (1) 
0

>  <r_i_glide_evdw>  (1) 
-18.017166577544074

>  <r_i_glide_gscore>  (1) 
-4.8585168052790602

>  <r_i_glide_gscore_strain>  (1) 
0

>  <r_i_glide_hbond>  (1) 
0

>  <r_i_glide_ligand_efficiency>  (1) 
-0.60731460065988252

>  <r_i_glide_ligand_efficiency_ln>  (1) 
-1.5777265908508653

>  <r_i_glide_ligand_efficiency_sa>  (1) 
-1.2146292013197653

>  <r_i_glide_lipo>  (1) 
-1.3540636690344872

>  <r_i_glide_metal>  (1) 
-0

>  <r_i_glide_rewards>  (1) 
-2.25

>  <r_lp_Energy>  (1) 
11.500328

>  <r_lp_tautomer_probability>  (1) 
1

>  <s_epik_cmdline>  (1) 
J2VwaWtfcHl0aG9uJywgJy1waHQnLCAnMS4wJywgJy1waCcsICc3LjQnLCAnLXRuJywgJzgnLCAnLW1hJywgJzUwMCcsICctaW1hZScsICc8aW5maWxlLm1hZT4nLCAnLW9tYWUnLCAnPG91dGZpbGUubWFlPic=

>  <s_epik_input>  (1) 
W09IXWMxW2NIXW5bY0hdW2NIXWMxW09IXQ==

>  <s_glide_docking_method>  (1) 
confgen

>  <s_i_glide_gridfile>  (1) 
gpcr_drd2_6luq_protein_autoprepared_prepared

>  <s_lp_Force_Field>  (1) 
S-OPLS

>  <s_lp_Variant>  (1) 
Pocket2Mol_28_num_sample_100-1

>  <s_m_source_file>  (1) 
generated__ligand_Pocket2Mol_2026-05-06_prepared.sdf

>  <GenAI_Model>  (1) 
Pocket2Mol

>  <Protein>  (1) 
generic_title2

$$$$
Pocket2Mol_14_num_sample_100
     RDKit          3D

  0  0  0  0  0  0  0  0  0  0999 V3000
M  V30 BEGIN CTAB
M  V30 COUNTS 17 17 0 0 1
M  V30 BEGIN ATOM
M  V30 1 C 11.010403 7.400606 -5.894672 0
M  V30 2 O 9.802438 6.905090 -6.465020 0
M  V30 3 C 9.927017 6.459417 -7.813114 0
M  V30 4 C 10.431180 7.583582 -8.737602 0 CFG=1
M  V30 5 O 9.434951 8.566559 -8.952600 0
M  V30 6 C 11.503254 8.615286 -6.696281 0
M  V30 7 C 11.703766 8.236932 -8.167727 0
M  V30 8 H 10.806489 7.694254 -4.864422 0
M  V30 9 H 11.762453 6.610488 -5.854121 0
M  V30 10 H 8.968461 6.064266 -8.158776 0
M  V30 11 H 10.630066 5.626938 -7.840338 0
M  V30 12 H 10.661903 7.156805 -9.713737 0
M  V30 13 H 8.566714 8.168019 -9.091653 0
M  V30 14 H 10.781681 9.426809 -6.613398 0
M  V30 15 H 12.438640 8.986895 -6.275203 0
M  V30 16 H 12.530991 7.531390 -8.233386 0
M  V30 17 H 11.996928 9.107769 -8.755800 0
M  V30 END ATOM
M  V30 BEGIN BOND
M  V30 1 1 2 1
M  V30 2 1 3 2
M  V30 3 1 4 3
M  V30 4 1 5 4
M  V30 5 1 6 1
M  V30 6 1 7 4
M  V30 7 1 7 6
M  V30 8 1 8 1
M  V30 9 1 9 1
M  V30 10 1 10 3
M  V30 11 1 11 3
M  V30 12 1 4 12 CFG=3
M  V30 13 1 13 5
M  V30 14 1 14 6
M  V30 15 1 15 6
M  V30 16 1 16 7
M  V30 17 1 17 7
M  V30 END BOND
M  V30 END CTAB
M  END
>  <i_epik_Tot_Q>  (1) 
0

>  <i_epik_Tot_abs_Q>  (1) 
0

>  <i_i_glide_confnum>  (1) 
2

>  <i_i_glide_lignum>  (1) 
17

>  <i_i_glide_posenum>  (1) 
100

>  <i_i_glide_rotatable_bonds>  (1) 
1

>  <i_lp_mmshare_version>  (1) 
72125

>  <i_m_source_file_index>  (1) 
15

>  <i_f3d_flags>  (1) 
0

>  <num_sample>  (1) 
100

>  <b_lp_Chiralities_Consistent>  (1) 
1

>  <r_epik_Charging_Adjusted_Penalty>  (1) 
0

>  <r_epik_Ionization_Penalty>  (1) 
4.2263924331700322e-08

>  <r_epik_Ionization_Penalty_Charging>  (1) 
0

>  <r_epik_Ionization_Penalty_Neutral>  (1) 
4.2263924331700322e-08

>  <r_epik_State_Penalty>  (1) 
-0

>  <r_glide_ring_energy>  (1) 
0.68055942654544588

>  <r_i_docking_score>  (1) 
-4.8468651723817411

>  <r_i_glide_ecoul>  (1) 
-3.9147689146651761

>  <r_i_glide_eff_state_penalty>  (1) 
-0

>  <r_i_glide_einternal>  (1) 
0.35263797801621211

>  <r_i_glide_emodel>  (1) 
-24.169573512892242

>  <r_i_glide_emodel_strain>  (1) 
0.0067832016025199948

>  <r_i_glide_energy>  (1) 
-17.930475041868586

>  <r_i_glide_erotb>  (1) 
0

>  <r_i_glide_esite>  (1) 
0

>  <r_i_glide_evdw>  (1) 
-14.01570612720341

>  <r_i_glide_gscore>  (1) 
-4.8468651723817411

>  <r_i_glide_gscore_strain>  (1) 
0

>  <r_i_glide_hbond>  (1) 
-0.16

>  <r_i_glide_ligand_efficiency>  (1) 
-0.69240931034024877

>  <r_i_glide_ligand_efficiency_ln>  (1) 
-1.6452861516961137

>  <r_i_glide_ligand_efficiency_sa>  (1) 
-1.3245313609917864

>  <r_i_glide_lipo>  (1) 
-0.72386452882179464

>  <r_i_glide_metal>  (1) 
-0

>  <r_i_glide_rewards>  (1) 
-2.6749999999999998

>  <r_lp_Energy>  (1) 
6.7642049999999996

>  <r_lp_tautomer_probability>  (1) 
1

>  <s_epik_cmdline>  (1) 
J2VwaWtfcHl0aG9uJywgJy1waHQnLCAnMS4wJywgJy1waCcsICc3LjQnLCAnLXRuJywgJzgnLCAnLW1hJywgJzUwMCcsICctaW1hZScsICc8aW5maWxlLm1hZT4nLCAnLW9tYWUnLCAnPG91dGZpbGUubWFlPic=

>  <s_epik_input>  (1) 
W0NIMl0xW0NIMl1bQ0gyXU9bQ0gyXVtDQEhdMVtPSF0=

>  <s_glide_docking_method>  (1) 
confgen

>  <s_i_glide_gridfile>  (1) 
gpcr_drd2_6luq_protein_autoprepared_prepared

>  <s_lp_Force_Field>  (1) 
S-OPLS

>  <s_lp_Variant>  (1) 
Pocket2Mol_14_num_sample_100-1

>  <s_m_source_file>  (1) 
generated__ligand_Pocket2Mol_2026-05-06_prepared.sdf

>  <GenAI_Model>  (1) 
Pocket2Mol

>  <Protein>  (1) 
generic_title2

$$$$
Pocket2Mol_34_num_sample_100
     RDKit          3D

  0  0  0  0  0  0  0  0  0  0999 V3000
M  V30 BEGIN CTAB
M  V30 COUNTS 21 22 0 0 1
M  V30 BEGIN ATOM
M  V30 1 C 10.856893 7.993603 -9.988193 0
M  V30 2 O 9.834839 7.997463 -9.009629 0
M  V30 3 C 10.413913 7.673408 -7.754269 0 CFG=2
M  V30 4 C 10.254272 6.169301 -7.490246 0
M  V30 5 C 9.813005 8.525464 -6.652202 0
M  V30 6 C 12.013766 8.669088 -9.268401 0
M  V30 7 C 11.034838 9.013942 -5.882711 0
M  V30 8 C 11.865523 8.163451 -7.843072 0 CFG=1
M  V30 9 O 11.997515 9.221934 -6.900474 0
M  V30 10 H 10.544892 8.524408 -10.886206 0
M  V30 11 H 11.105781 6.969301 -10.263296 0
M  V30 12 H 10.739020 5.877200 -6.558496 0
M  V30 13 H 9.199681 5.900777 -7.415864 0
M  V30 14 H 10.682985 5.570582 -8.291661 0
M  V30 15 H 9.100406 7.989363 -6.024940 0
M  V30 16 H 9.286023 9.369300 -7.091830 0
M  V30 17 H 11.867893 9.749721 -9.301168 0
M  V30 18 H 12.985907 8.444386 -9.707442 0
M  V30 19 H 11.391160 8.247981 -5.192058 0
M  V30 20 H 10.840866 9.926388 -5.318217 0
M  V30 21 H 12.574599 7.369301 -7.614837 0
M  V30 END ATOM
M  V30 BEGIN BOND
M  V30 1 1 2 1
M  V30 2 1 3 2
M  V30 3 1 3 4 CFG=1
M  V30 4 1 5 3
M  V30 5 1 6 1
M  V30 6 1 7 5
M  V30 7 1 8 3
M  V30 8 1 8 6
M  V30 9 1 9 7
M  V30 10 1 9 8
M  V30 11 1 10 1
M  V30 12 1 11 1
M  V30 13 1 12 4
M  V30 14 1 13 4
M  V30 15 1 14 4
M  V30 16 1 15 5
M  V30 17 1 16 5
M  V30 18 1 17 6
M  V30 19 1 18 6
M  V30 20 1 19 7
M  V30 21 1 20 7
M  V30 22 1 8 21 CFG=1
M  V30 END BOND
M  V30 END CTAB
M  END
>  <i_epik_Tot_Q>  (1) 
0

>  <i_epik_Tot_abs_Q>  (1) 
0

>  <i_i_glide_confnum>  (1) 
4

>  <i_i_glide_lignum>  (1) 
38

>  <i_i_glide_posenum>  (1) 
72

>  <i_i_glide_rotatable_bonds>  (1) 
0

>  <i_lp_mmshare_version>  (1) 
72125

>  <i_m_source_file_index>  (1) 
35

>  <i_f3d_flags>  (1) 
0

>  <num_sample>  (1) 
100

>  <b_lp_Chiralities_Consistent>  (1) 
1

>  <r_epik_Charging_Adjusted_Penalty>  (1) 
0

>  <r_epik_Ionization_Penalty>  (1) 
2.529470820146915e-12

>  <r_epik_Ionization_Penalty_Charging>  (1) 
0

>  <r_epik_Ionization_Penalty_Neutral>  (1) 
2.529470820146915e-12

>  <r_epik_State_Penalty>  (1) 
-0

>  <r_glide_ring_energy>  (1) 
0.71124509259843272

>  <r_i_docking_score>  (1) 
-4.8412720013385977

>  <r_i_glide_ecoul>  (1) 
0.62202575806488114

>  <r_i_glide_eff_state_penalty>  (1) 
-0

>  <r_i_glide_einternal>  (1) 
0

>  <r_i_glide_emodel>  (1) 
-24.268834406620673

>  <r_i_glide_emodel_strain>  (1) 
0

>  <r_i_glide_energy>  (1) 
-18.732651823866671

>  <r_i_glide_erotb>  (1) 
0

>  <r_i_glide_esite>  (1) 
0

>  <r_i_glide_evdw>  (1) 
-19.354677581931554

>  <r_i_glide_gscore>  (1) 
-4.8412720013385977

>  <r_i_glide_gscore_strain>  (1) 
0

>  <r_i_glide_hbond>  (1) 
0

>  <r_i_glide_ligand_efficiency>  (1) 
-0.53791911125984415

>  <r_i_glide_ligand_efficiency_ln>  (1) 
-1.5142108051015055

>  <r_i_glide_ligand_efficiency_sa>  (1) 
-1.1189168414420594

>  <r_i_glide_lipo>  (1) 
-1.075175319285085

>  <r_i_glide_metal>  (1) 
-0

>  <r_i_glide_rewards>  (1) 
-2.8916666666666666

>  <r_lp_Energy>  (1) 
-0.369228

>  <r_lp_tautomer_probability>  (1) 
1

>  <s_epik_cmdline>  (1) 
J2VwaWtfcHl0aG9uJywgJy1waHQnLCAnMS4wJywgJy1waCcsICc3LjQnLCAnLXRuJywgJzgnLCAnLW1hJywgJzUwMCcsICctaW1hZScsICc8aW5maWxlLm1hZT4nLCAnLW9tYWUnLCAnPG91dGZpbGUubWFlPic=

>  <s_epik_input>  (1) 
TzFbQ0gyXVtDSDJdW0NASF0oW0NAXTEyW0NIM10pT1tDSDJdW0NIMl0y

>  <s_glide_docking_method>  (1) 
confgen

>  <s_i_glide_gridfile>  (1) 
gpcr_drd2_6luq_protein_autoprepared_prepared

>  <s_lp_Force_Field>  (1) 
S-OPLS

>  <s_lp_Variant>  (1) 
Pocket2Mol_34_num_sample_100-1

>  <s_m_source_file>  (1) 
generated__ligand_Pocket2Mol_2026-05-06_prepared.sdf

>  <GenAI_Model>  (1) 
Pocket2Mol

>  <Protein>  (1) 
generic_title2

$$$$
Pocket2Mol_98_num_sample_100
     RDKit          3D

  0  0  0  0  0  0  0  0  0  0999 V3000
M  V30 BEGIN CTAB
M  V30 COUNTS 24 25 0 0 1
M  V30 BEGIN ATOM
M  V30 1 C 8.774390 5.206030 -12.108544 0
M  V30 2 O 8.461719 4.623746 -10.786803 0
M  V30 3 C 9.034880 5.514498 -9.947531 0
M  V30 4 C 9.639046 6.569293 -10.534299 0
M  V30 5 C 10.276760 7.567901 -9.779309 0
M  V30 6 C 9.573761 6.583794 -11.996862 0
M  V30 7 C 10.288164 7.465428 -8.368446 0
M  V30 8 N 10.954247 8.507372 -7.612902 0
M  V30 9 C 9.015676 5.369301 -8.551785 0
M  V30 10 C 9.643656 6.345162 -7.745888 0
M  V30 11 C 11.089985 8.558859 -6.263384 0
M  V30 12 O 10.664417 7.709291 -5.491668 0
M  V30 13 C 11.834980 9.769339 -5.715290 0
M  V30 14 H 9.360398 4.480761 -12.675505 0
M  V30 15 H 7.843850 5.354756 -12.656449 0
M  V30 16 H 10.752725 8.403023 -10.271136 0
M  V30 17 H 9.003388 7.437998 -12.364513 0
M  V30 18 H 10.563459 6.543773 -12.453106 0
M  V30 19 H 8.524457 4.521403 -8.098791 0
M  V30 20 H 9.620966 6.226420 -6.683576 0
M  V30 21 H 11.313094 10.689961 -5.975221 0
M  V30 22 H 11.910290 9.714929 -4.628407 0
M  V30 23 H 12.845482 9.810983 -6.122654 0
M  V30 24 H 11.354746 9.262096 -8.148603 0
M  V30 END ATOM
M  V30 BEGIN BOND
M  V30 1 1 2 1
M  V30 2 1 3 2
M  V30 3 2 4 3
M  V30 4 1 5 4
M  V30 5 1 6 1
M  V30 6 1 6 4
M  V30 7 2 7 5
M  V30 8 1 8 7
M  V30 9 1 9 3
M  V30 10 1 10 7
M  V30 11 2 10 9
M  V30 12 1 11 8
M  V30 13 2 12 11
M  V30 14 1 13 11
M  V30 15 1 14 1
M  V30 16 1 15 1
M  V30 17 1 16 5
M  V30 18 1 17 6
M  V30 19 1 18 6
M  V30 20 1 19 9
M  V30 21 1 20 10
M  V30 22 1 21 13
M  V30 23 1 22 13
M  V30 24 1 23 13
M  V30 25 1 24 8
M  V30 END BOND
M  V30 END CTAB
M  END
>  <i_epik_Tot_Q>  (1) 
0

>  <i_epik_Tot_abs_Q>  (1) 
0

>  <i_i_glide_confnum>  (1) 
1

>  <i_i_glide_lignum>  (1) 
107

>  <i_i_glide_posenum>  (1) 
243

>  <i_i_glide_rotatable_bonds>  (1) 
2

>  <i_lp_mmshare_version>  (1) 
72125

>  <i_m_source_file_index>  (1) 
99

>  <i_f3d_flags>  (1) 
0

>  <num_sample>  (1) 
100

>  <b_lp_Chiralities_Consistent>  (1) 
1

>  <r_epik_Charging_Adjusted_Penalty>  (1) 
0

>  <r_epik_Ionization_Penalty>  (1) 
1.4103773659367358e-07

>  <r_epik_Ionization_Penalty_Charging>  (1) 
0

>  <r_epik_Ionization_Penalty_Neutral>  (1) 
1.4103773659367358e-07

>  <r_epik_State_Penalty>  (1) 
-0

>  <r_glide_ring_energy>  (1) 
0

>  <r_i_docking_score>  (1) 
-4.8225148736030663

>  <r_i_glide_ecoul>  (1) 
1.4596918510622388

>  <r_i_glide_eff_state_penalty>  (1) 
-0

>  <r_i_glide_einternal>  (1) 
0.32405151585301262

>  <r_i_glide_emodel>  (1) 
-33.00877012133126

>  <r_i_glide_emodel_strain>  (1) 
0

>  <r_i_glide_energy>  (1) 
-25.470091541712932

>  <r_i_glide_erotb>  (1) 
0

>  <r_i_glide_esite>  (1) 
0

>  <r_i_glide_evdw>  (1) 
-26.929783392775171

>  <r_i_glide_gscore>  (1) 
-4.8225148736030663

>  <r_i_glide_gscore_strain>  (1) 
0

>  <r_i_glide_hbond>  (1) 
0

>  <r_i_glide_ligand_efficiency>  (1) 
-0.37096268258485127

>  <r_i_glide_ligand_efficiency_ln>  (1) 
-1.3527583115618207

>  <r_i_glide_ligand_efficiency_sa>  (1) 
-0.87225742341170587

>  <r_i_glide_lipo>  (1) 
-0.49215998655030158

>  <r_i_glide_metal>  (1) 
-0

>  <r_i_glide_rewards>  (1) 
-3.2028194950733413

>  <r_lp_Energy>  (1) 
14.229996

>  <r_lp_tautomer_probability>  (1) 
1

>  <s_epik_cmdline>  (1) 
J2VwaWtfcHl0aG9uJywgJy1waHQnLCAnMS4wJywgJy1waCcsICc3LjQnLCAnLXRuJywgJzgnLCAnLW1hJywgJzUwMCcsICctaW1hZScsICc8aW5maWxlLm1hZT4nLCAnLW9tYWUnLCAnPG91dGZpbGUubWFlPic=

>  <s_epik_input>  (1) 
TzFbQ0gyXVtDSDJdYyhjMTIpW2NIXWMoW2NIXVtjSF0yKS9OPUMoXFtPSF0pW0NIM10=

>  <s_glide_docking_method>  (1) 
confgen

>  <s_i_glide_gridfile>  (1) 
gpcr_drd2_6luq_protein_autoprepared_prepared

>  <s_lp_Force_Field>  (1) 
S-OPLS

>  <s_lp_Variant>  (1) 
Pocket2Mol_98_num_sample_100-1

>  <s_m_source_file>  (1) 
generated__ligand_Pocket2Mol_2026-05-06_prepared.sdf

>  <GenAI_Model>  (1) 
Pocket2Mol

>  <Protein>  (1) 
generic_title2

$$$$
Pocket2Mol_36_num_sample_100
     RDKit          3D

  0  0  0  0  0  0  0  0  0  0999 V3000
M  V30 BEGIN CTAB
M  V30 COUNTS 15 16 0 0 1
M  V30 BEGIN ATOM
M  V30 1 C 12.491293 8.569284 -2.109191 0
M  V30 2 O 12.234837 9.637346 -3.069358 0
M  V30 3 C 11.834841 8.909207 -4.112671 0
M  V30 4 C 11.834839 7.593568 -3.891668 0
M  V30 5 C 11.433848 6.679645 -4.877364 0
M  V30 6 C 11.020205 7.174015 -6.136816 0
M  V30 7 C 11.021090 8.573775 -6.372757 0
M  V30 8 C 11.434921 9.453019 -5.344513 0
M  V30 9 O 12.239303 7.243413 -2.666395 0
M  V30 10 H 11.848296 8.718035 -1.240354 0
M  V30 11 H 13.529641 8.630705 -1.784405 0
M  V30 12 H 11.438770 5.621480 -4.677545 0
M  V30 13 H 10.704602 6.491147 -6.912423 0
M  V30 14 H 10.706092 8.964483 -7.329569 0
M  V30 15 H 11.440339 10.521500 -5.502394 0
M  V30 END ATOM
M  V30 BEGIN BOND
M  V30 1 1 2 1
M  V30 2 1 3 2
M  V30 3 1 4 3
M  V30 4 2 5 4
M  V30 5 1 6 5
M  V30 6 2 7 6
M  V30 7 2 8 3
M  V30 8 1 8 7
M  V30 9 1 9 1
M  V30 10 1 9 4
M  V30 11 1 10 1
M  V30 12 1 11 1
M  V30 13 1 12 5
M  V30 14 1 13 6
M  V30 15 1 14 7
M  V30 16 1 15 8
M  V30 END BOND
M  V30 END CTAB
M  END
>  <i_epik_Tot_Q>  (1) 
0

>  <i_epik_Tot_abs_Q>  (1) 
0

>  <i_i_glide_confnum>  (1) 
1

>  <i_i_glide_lignum>  (1) 
41

>  <i_i_glide_posenum>  (1) 
240

>  <i_i_glide_rotatable_bonds>  (1) 
0

>  <i_lp_mmshare_version>  (1) 
72125

>  <i_m_source_file_index>  (1) 
37

>  <i_f3d_flags>  (1) 
0

>  <num_sample>  (1) 
100

>  <b_lp_Chiralities_Consistent>  (1) 
1

>  <r_epik_Charging_Adjusted_Penalty>  (1) 
0

>  <r_epik_Ionization_Penalty>  (1) 
0

>  <r_epik_Ionization_Penalty_Charging>  (1) 
0

>  <r_epik_Ionization_Penalty_Neutral>  (1) 
0

>  <r_epik_State_Penalty>  (1) 
-0

>  <r_glide_ring_energy>  (1) 
0

>  <r_i_docking_score>  (1) 
-4.8164177495887337

>  <r_i_glide_ecoul>  (1) 
-0.94766449008460718

>  <r_i_glide_eff_state_penalty>  (1) 
-0

>  <r_i_glide_einternal>  (1) 
0

>  <r_i_glide_emodel>  (1) 
-26.174806093745012

>  <r_i_glide_emodel_strain>  (1) 
0

>  <r_i_glide_energy>  (1) 
-20.01835373814324

>  <r_i_glide_erotb>  (1) 
0

>  <r_i_glide_esite>  (1) 
0

>  <r_i_glide_evdw>  (1) 
-19.070689248058631

>  <r_i_glide_gscore>  (1) 
-4.8164177495887337

>  <r_i_glide_gscore_strain>  (1) 
0

>  <r_i_glide_hbond>  (1) 
0

>  <r_i_glide_ligand_efficiency>  (1) 
-0.53515752773208147

>  <r_i_glide_ligand_efficiency_ln>  (1) 
-1.5064371091509472

>  <r_i_glide_ligand_efficiency_sa>  (1) 
-1.1131725162199537

>  <r_i_glide_lipo>  (1) 
-1.6207336136731105

>  <r_i_glide_metal>  (1) 
-0

>  <r_i_glide_rewards>  (1) 
-2.1000000000000001

>  <r_lp_Energy>  (1) 
19.342482

>  <r_lp_tautomer_probability>  (1) 
1

>  <s_epik_Chemistry_Notes>  (1) 
This compound contains an acetal/aminal-like group ( X-CH(R)-Y where X, Y are N, S, or O) that may be acid/base labile, releasing an aldehyde.

>  <s_epik_cmdline>  (1) 
J2VwaWtfcHl0aG9uJywgJy1waHQnLCAnMS4wJywgJy1waCcsICc3LjQnLCAnLXRuJywgJzgnLCAnLW1hJywgJzUwMCcsICctaW1hZScsICc8aW5maWxlLm1hZT4nLCAnLW9tYWUnLCAnPG91dGZpbGUubWFlPic=

>  <s_epik_input>  (1) 
TzFbQ0gyXU9jKGMxMilbY0hdW2NIXVtjSF1bY0hdMg==

>  <s_glide_docking_method>  (1) 
confgen

>  <s_i_glide_gridfile>  (1) 
gpcr_drd2_6luq_protein_autoprepared_prepared

>  <s_lp_Force_Field>  (1) 
S-OPLS

>  <s_lp_Variant>  (1) 
Pocket2Mol_36_num_sample_100-1

>  <s_m_source_file>  (1) 
generated__ligand_Pocket2Mol_2026-05-06_prepared.sdf

>  <GenAI_Model>  (1) 
Pocket2Mol

>  <Protein>  (1) 
generic_title2

$$$$
Pocket2Mol_42_num_sample_100
     RDKit          3D

  0  0  0  0  0  0  0  0  0  0999 V3000
M  V30 BEGIN CTAB
M  V30 COUNTS 23 24 0 0 1
M  V30 BEGIN ATOM
M  V30 1 C 10.922076 7.981543 -10.015124 0
M  V30 2 O 9.834838 7.944137 -9.112453 0
M  V30 3 C 10.332988 7.671694 -7.810947 0 CFG=2
M  V30 4 C 10.206658 6.169302 -7.525755 0
M  V30 5 C 9.584635 8.509218 -6.773669 0
M  V30 6 C 12.003263 8.702510 -9.223450 0
M  V30 7 C 10.670818 8.969301 -5.802619 0
M  V30 8 C 11.784508 8.187483 -7.805977 0 CFG=1
M  V30 9 C 11.876848 9.244621 -6.691660 0
M  V30 10 H 11.231205 6.969303 -10.267926 0
M  V30 11 H 10.640204 8.495199 -10.933117 0
M  V30 12 H 10.609435 5.915372 -6.545127 0
M  V30 13 H 9.161347 5.858947 -7.545072 0
M  V30 14 H 10.733149 5.574006 -8.269899 0
M  V30 15 H 9.134708 9.369300 -7.267839 0
M  V30 16 H 8.771631 7.965651 -6.291669 0
M  V30 17 H 13.007783 8.506333 -9.599258 0
M  V30 18 H 11.827278 9.775822 -9.286447 0
M  V30 19 H 10.379797 9.841490 -5.218481 0
M  V30 20 H 10.902499 8.164222 -5.103974 0
M  V30 21 H 12.471483 7.369298 -7.594762 0
M  V30 22 H 11.809481 10.253844 -7.091648 0
M  V30 23 H 12.814633 9.198201 -6.141141 0
M  V30 END ATOM
M  V30 BEGIN BOND
M  V30 1 1 2 1
M  V30 2 1 3 2
M  V30 3 1 3 4 CFG=1
M  V30 4 1 5 3
M  V30 5 1 6 1
M  V30 6 1 7 5
M  V30 7 1 8 3
M  V30 8 1 8 6
M  V30 9 1 9 7
M  V30 10 1 9 8
M  V30 11 1 10 1
M  V30 12 1 11 1
M  V30 13 1 12 4
M  V30 14 1 13 4
M  V30 15 1 14 4
M  V30 16 1 15 5
M  V30 17 1 16 5
M  V30 18 1 17 6
M  V30 19 1 18 6
M  V30 20 1 19 7
M  V30 21 1 20 7
M  V30 22 1 8 21 CFG=1
M  V30 23 1 22 9
M  V30 24 1 23 9
M  V30 END BOND
M  V30 END CTAB
M  END
>  <i_epik_Tot_Q>  (1) 
0

>  <i_epik_Tot_abs_Q>  (1) 
0

>  <i_i_glide_confnum>  (1) 
4

>  <i_i_glide_lignum>  (1) 
47

>  <i_i_glide_posenum>  (1) 
11

>  <i_i_glide_rotatable_bonds>  (1) 
0

>  <i_lp_mmshare_version>  (1) 
72125

>  <i_m_source_file_index>  (1) 
43

>  <i_f3d_flags>  (1) 
0

>  <num_sample>  (1) 
100

>  <b_lp_Chiralities_Consistent>  (1) 
1

>  <r_epik_Charging_Adjusted_Penalty>  (1) 
0

>  <r_epik_Ionization_Penalty>  (1) 
2.4347883345708157e-11

>  <r_epik_Ionization_Penalty_Charging>  (1) 
0

>  <r_epik_Ionization_Penalty_Neutral>  (1) 
2.4347883345708157e-11

>  <r_epik_State_Penalty>  (1) 
-0

>  <r_glide_ring_energy>  (1) 
1.4300080397860451

>  <r_i_docking_score>  (1) 
-4.8161218263735286

>  <r_i_glide_ecoul>  (1) 
1.2718454105564154

>  <r_i_glide_eff_state_penalty>  (1) 
-0

>  <r_i_glide_einternal>  (1) 
0

>  <r_i_glide_emodel>  (1) 
-22.296578500606977

>  <r_i_glide_emodel_strain>  (1) 
0

>  <r_i_glide_energy>  (1) 
-17.198524723152506

>  <r_i_glide_erotb>  (1) 
0

>  <r_i_glide_esite>  (1) 
0

>  <r_i_glide_evdw>  (1) 
-18.470370133708922

>  <r_i_glide_gscore>  (1) 
-4.8161218263735286

>  <r_i_glide_gscore_strain>  (1) 
0

>  <r_i_glide_hbond>  (1) 
0

>  <r_i_glide_ligand_efficiency>  (1) 
-0.53512464737483656

>  <r_i_glide_ligand_efficiency_ln>  (1) 
-1.506344552870321

>  <r_i_glide_ligand_efficiency_sa>  (1) 
-1.1131041223207523

>  <r_i_glide_lipo>  (1) 
-1.1833801312715448

>  <r_i_glide_metal>  (1) 
-0

>  <r_i_glide_rewards>  (1) 
-2.8999999999999999

>  <r_lp_Energy>  (1) 
5.4699619999999998

>  <r_lp_tautomer_probability>  (1) 
1

>  <s_epik_cmdline>  (1) 
J2VwaWtfcHl0aG9uJywgJy1waHQnLCAnMS4wJywgJy1waCcsICc3LjQnLCAnLXRuJywgJzgnLCAnLW1hJywgJzUwMCcsICctaW1hZScsICc8aW5maWxlLm1hZT4nLCAnLW9tYWUnLCAnPG91dGZpbGUubWFlPic=

>  <s_epik_input>  (1) 
TzFbQ0gyXVtDSDJdW0NASF0oW0NAXTEyW0NIM10pW0NIMl1bQ0gyXVtDSDJdMg==

>  <s_glide_docking_method>  (1) 
confgen

>  <s_i_glide_gridfile>  (1) 
gpcr_drd2_6luq_protein_autoprepared_prepared

>  <s_lp_Force_Field>  (1) 
S-OPLS

>  <s_lp_Variant>  (1) 
Pocket2Mol_42_num_sample_100-1

>  <s_m_source_file>  (1) 
generated__ligand_Pocket2Mol_2026-05-06_prepared.sdf

>  <GenAI_Model>  (1) 
Pocket2Mol

>  <Protein>  (1) 
generic_title2

$$$$
Pocket2Mol_42_num_sample_100
     RDKit          3D

  0  0  0  0  0  0  0  0  0  0999 V3000
M  V30 BEGIN CTAB
M  V30 COUNTS 23 24 0 0 1
M  V30 BEGIN ATOM
M  V30 1 C 12.629847 8.263119 -8.797671 0
M  V30 2 O 12.189293 7.917685 -7.491667 0
M  V30 3 C 10.771620 7.745401 -7.466551 0 CFG=2
M  V30 4 C 10.234111 8.569299 -6.291670 0
M  V30 5 C 10.407965 6.253359 -7.365497 0
M  V30 6 C 11.440421 8.965298 -9.425495 0
M  V30 7 C 9.434839 5.971730 -8.511071 0
M  V30 8 C 10.255280 8.229407 -8.828698 0 CFG=1
M  V30 9 C 9.834827 6.969278 -9.595360 0
M  V30 10 H 13.519880 8.890924 -8.760180 0
M  V30 11 H 12.872172 7.369307 -9.367621 0
M  V30 12 H 9.144279 8.534434 -6.255009 0
M  V30 13 H 10.615118 8.189801 -5.343378 0
M  V30 14 H 10.536987 9.613195 -6.371169 0
M  V30 15 H 11.304024 5.646711 -7.491638 0
M  V30 16 H 9.977958 5.988451 -6.399114 0
M  V30 17 H 11.434931 10.009232 -9.115824 0
M  V30 18 H 11.462757 8.933977 -10.512223 0
M  V30 19 H 9.479046 4.937619 -8.854420 0
M  V30 20 H 8.411980 6.169327 -8.186309 0
M  V30 21 H 9.388218 8.884056 -8.721287 0
M  V30 22 H 10.665448 6.569302 -10.170104 0
M  V30 23 H 9.031130 7.167288 -10.301983 0
M  V30 END ATOM
M  V30 BEGIN BOND
M  V30 1 1 2 1
M  V30 2 1 3 2
M  V30 3 1 3 4 CFG=1
M  V30 4 1 5 3
M  V30 5 1 6 1
M  V30 6 1 7 5
M  V30 7 1 8 3
M  V30 8 1 8 6
M  V30 9 1 9 7
M  V30 10 1 9 8
M  V30 11 1 10 1
M  V30 12 1 11 1
M  V30 13 1 12 4
M  V30 14 1 13 4
M  V30 15 1 14 4
M  V30 16 1 15 5
M  V30 17 1 16 5
M  V30 18 1 17 6
M  V30 19 1 18 6
M  V30 20 1 19 7
M  V30 21 1 20 7
M  V30 22 1 8 21 CFG=1
M  V30 23 1 22 9
M  V30 24 1 23 9
M  V30 END BOND
M  V30 END CTAB
M  END
>  <i_epik_Tot_Q>  (1) 
0

>  <i_epik_Tot_abs_Q>  (1) 
0

>  <i_i_glide_confnum>  (1) 
3

>  <i_i_glide_lignum>  (1) 
47

>  <i_i_glide_posenum>  (1) 
345

>  <i_i_glide_rotatable_bonds>  (1) 
0

>  <i_lp_mmshare_version>  (1) 
72125

>  <i_m_source_file_index>  (1) 
43

>  <i_f3d_flags>  (1) 
0

>  <num_sample>  (1) 
100

>  <b_lp_Chiralities_Consistent>  (1) 
1

>  <r_epik_Charging_Adjusted_Penalty>  (1) 
0

>  <r_epik_Ionization_Penalty>  (1) 
2.4347883345708157e-11

>  <r_epik_Ionization_Penalty_Charging>  (1) 
0

>  <r_epik_Ionization_Penalty_Neutral>  (1) 
2.4347883345708157e-11

>  <r_epik_State_Penalty>  (1) 
-0

>  <r_glide_ring_energy>  (1) 
1.1035134730129632

>  <r_i_docking_score>  (1) 
-4.8155295569643801

>  <r_i_glide_ecoul>  (1) 
-0.69460569662176586

>  <r_i_glide_eff_state_penalty>  (1) 
-0

>  <r_i_glide_einternal>  (1) 
0

>  <r_i_glide_emodel>  (1) 
-23.47648808216038

>  <r_i_glide_emodel_strain>  (1) 
0

>  <r_i_glide_energy>  (1) 
-18.37906124509642

>  <r_i_glide_erotb>  (1) 
0

>  <r_i_glide_esite>  (1) 
0

>  <r_i_glide_evdw>  (1) 
-17.684455548474652

>  <r_i_glide_gscore>  (1) 
-4.8155295569643801

>  <r_i_glide_gscore_strain>  (1) 
0

>  <r_i_glide_hbond>  (1) 
0

>  <r_i_glide_ligand_efficiency>  (1) 
-0.53505883966270895

>  <r_i_glide_ligand_efficiency_ln>  (1) 
-1.5061593080134701

>  <r_i_glide_ligand_efficiency_sa>  (1) 
-1.1129672367633234

>  <r_i_glide_lipo>  (1) 
-0.93213192941933054

>  <r_i_glide_metal>  (1) 
-0

>  <r_i_glide_rewards>  (1) 
-2.8949839956280514

>  <r_lp_Energy>  (1) 
5.4699619999999998

>  <r_lp_tautomer_probability>  (1) 
1

>  <s_epik_cmdline>  (1) 
J2VwaWtfcHl0aG9uJywgJy1waHQnLCAnMS4wJywgJy1waCcsICc3LjQnLCAnLXRuJywgJzgnLCAnLW1hJywgJzUwMCcsICctaW1hZScsICc8aW5maWxlLm1hZT4nLCAnLW9tYWUnLCAnPG91dGZpbGUubWFlPic=

>  <s_epik_input>  (1) 
TzFbQ0gyXVtDSDJdW0NASF0oW0NAXTEyW0NIM10pW0NIMl1bQ0gyXVtDSDJdMg==

>  <s_glide_docking_method>  (1) 
confgen

>  <s_i_glide_gridfile>  (1) 
gpcr_drd2_6luq_protein_autoprepared_prepared

>  <s_lp_Force_Field>  (1) 
S-OPLS

>  <s_lp_Variant>  (1) 
Pocket2Mol_42_num_sample_100-1

>  <s_m_source_file>  (1) 
generated__ligand_Pocket2Mol_2026-05-06_prepared.sdf

>  <GenAI_Model>  (1) 
Pocket2Mol

>  <Protein>  (1) 
generic_title2

$$$$
Pocket2Mol_47_num_sample_100
     RDKit          3D

  0  0  0  0  0  0  0  0  0  0999 V3000
M  V30 BEGIN CTAB
M  V30 COUNTS 16 17 0 0 1
M  V30 BEGIN ATOM
M  V30 1 C 8.910381 5.373996 -9.272812 0
M  V30 2 O 9.224117 5.558280 -7.951952 0
M  V30 3 C 9.999639 6.650486 -7.633921 0
M  V30 4 C 10.555443 7.455598 -8.660763 0
M  V30 5 C 11.350639 8.569226 -8.326370 0
M  V30 6 C 10.241997 6.969301 -6.284402 0
M  V30 7 C 11.034860 8.085786 -5.954143 0
M  V30 8 O 10.319914 7.152827 -9.982891 0
M  V30 9 C 11.589354 8.884584 -6.973670 0
M  V30 10 C 9.434840 6.139624 -10.247037 0
M  V30 11 H 8.208796 4.569295 -9.426866 0
M  V30 12 H 11.775327 9.183132 -9.107237 0
M  V30 13 H 9.818520 6.357108 -5.501540 0
M  V30 14 H 11.218932 8.328835 -4.918230 0
M  V30 15 H 12.197602 9.739527 -6.717889 0
M  V30 16 H 9.218013 6.038327 -11.299810 0
M  V30 END ATOM
M  V30 BEGIN BOND
M  V30 1 1 2 1
M  V30 2 1 3 2
M  V30 3 1 4 3
M  V30 4 2 5 4
M  V30 5 2 6 3
M  V30 6 1 7 6
M  V30 7 1 8 4
M  V30 8 1 9 5
M  V30 9 2 9 7
M  V30 10 2 10 1
M  V30 11 1 10 8
M  V30 12 1 11 1
M  V30 13 1 12 5
M  V30 14 1 13 6
M  V30 15 1 14 7
M  V30 16 1 15 9
M  V30 17 1 16 10
M  V30 END BOND
M  V30 END CTAB
M  END
>  <i_epik_Tot_Q>  (1) 
0

>  <i_epik_Tot_abs_Q>  (1) 
0

>  <i_i_glide_confnum>  (1) 
1

>  <i_i_glide_lignum>  (1) 
53

>  <i_i_glide_posenum>  (1) 
293

>  <i_i_glide_rotatable_bonds>  (1) 
0

>  <i_lp_mmshare_version>  (1) 
72125

>  <i_m_source_file_index>  (1) 
48

>  <i_f3d_flags>  (1) 
0

>  <num_sample>  (1) 
100

>  <b_lp_Chiralities_Consistent>  (1) 
1

>  <r_epik_Charging_Adjusted_Penalty>  (1) 
0

>  <r_epik_Ionization_Penalty>  (1) 
0

>  <r_epik_Ionization_Penalty_Charging>  (1) 
0

>  <r_epik_Ionization_Penalty_Neutral>  (1) 
0

>  <r_epik_State_Penalty>  (1) 
-0

>  <r_glide_ring_energy>  (1) 
0

>  <r_i_docking_score>  (1) 
-4.8148972622986204

>  <r_i_glide_ecoul>  (1) 
-0.04155540099117927

>  <r_i_glide_eff_state_penalty>  (1) 
-0

>  <r_i_glide_einternal>  (1) 
0

>  <r_i_glide_emodel>  (1) 
-25.601055457651363

>  <r_i_glide_emodel_strain>  (1) 
0

>  <r_i_glide_energy>  (1) 
-19.342999010668496

>  <r_i_glide_erotb>  (1) 
0

>  <r_i_glide_esite>  (1) 
0

>  <r_i_glide_evdw>  (1) 
-19.301443609677317

>  <r_i_glide_gscore>  (1) 
-4.8148972622986204

>  <r_i_glide_gscore_strain>  (1) 
0

>  <r_i_glide_hbond>  (1) 
0

>  <r_i_glide_ligand_efficiency>  (1) 
-0.48148972622986203

>  <r_i_glide_ligand_efficiency_ln>  (1) 
-1.4579176998384462

>  <r_i_glide_ligand_efficiency_sa>  (1) 
-1.0373381690835695

>  <r_i_glide_lipo>  (1) 
-0.9964472999608478

>  <r_i_glide_metal>  (1) 
-0

>  <r_i_glide_rewards>  (1) 
-2.8471444717052292

>  <r_lp_Energy>  (1) 
24.726983000000001

>  <r_lp_tautomer_probability>  (1) 
1

>  <s_epik_cmdline>  (1) 
J2VwaWtfcHl0aG9uJywgJy1waHQnLCAnMS4wJywgJy1waCcsICc3LjQnLCAnLXRuJywgJzgnLCAnLW1hJywgJzUwMCcsICctaW1hZScsICc8aW5maWxlLm1hZT4nLCAnLW9tYWUnLCAnPG91dGZpbGUubWFlPic=

>  <s_epik_input>  (1) 
TzFbQ0hdPVtDSF1PYyhjMTIpW2NIXVtjSF1bY0hdW2NIXTI=

>  <s_glide_docking_method>  (1) 
confgen

>  <s_i_glide_gridfile>  (1) 
gpcr_drd2_6luq_protein_autoprepared_prepared

>  <s_lp_Force_Field>  (1) 
S-OPLS

>  <s_lp_Variant>  (1) 
Pocket2Mol_47_num_sample_100-1

>  <s_m_source_file>  (1) 
generated__ligand_Pocket2Mol_2026-05-06_prepared.sdf

>  <GenAI_Model>  (1) 
Pocket2Mol

>  <Protein>  (1) 
generic_title2

$$$$
Pocket2Mol_94_num_sample_100
     RDKit          3D

  0  0  0  0  0  0  0  0  0  0999 V3000
M  V30 BEGIN CTAB
M  V30 COUNTS 24 25 0 0 1
M  V30 BEGIN ATOM
M  V30 1 C 8.745524 5.209807 -12.092770 0
M  V30 2 O 8.457723 4.618113 -10.769596 0
M  V30 3 C 9.035201 5.509834 -9.934253 0
M  V30 4 C 9.626974 6.569486 -10.524987 0
M  V30 5 C 10.267791 7.568855 -9.774382 0
M  V30 6 C 9.546775 6.586600 -11.987031 0
M  V30 7 C 9.033593 5.360208 -8.538429 0
M  V30 8 C 10.295610 7.462337 -8.363605 0
M  V30 9 N 10.963138 8.505589 -7.613376 0
M  V30 10 C 9.665283 6.336806 -7.736986 0
M  V30 11 C 11.120351 8.551796 -6.266176 0
M  V30 12 C 11.857536 9.769302 -5.725418 0
M  V30 13 O 10.719538 7.692552 -5.491537 0
M  V30 14 H 9.321973 4.488356 -12.674139 0
M  V30 15 H 7.804964 5.363317 -12.623167 0
M  V30 16 H 10.734324 8.407374 -10.269411 0
M  V30 17 H 8.976133 7.442003 -12.349808 0
M  V30 18 H 10.532318 6.542682 -12.452033 0
M  V30 19 H 8.553459 4.508248 -8.081782 0
M  V30 20 H 11.347171 9.266859 -8.151063 0
M  V30 21 H 9.655594 6.214698 -6.674378 0
M  V30 22 H 11.349227 10.687094 -6.019839 0
M  V30 23 H 11.902676 9.739684 -4.636177 0
M  V30 24 H 12.878376 9.796099 -6.108407 0
M  V30 END ATOM
M  V30 BEGIN BOND
M  V30 1 1 2 1
M  V30 2 1 3 2
M  V30 3 2 4 3
M  V30 4 1 5 4
M  V30 5 1 6 1
M  V30 6 1 6 4
M  V30 7 1 7 3
M  V30 8 2 8 5
M  V30 9 1 9 8
M  V30 10 2 10 7
M  V30 11 1 10 8
M  V30 12 1 11 9
M  V30 13 1 12 11
M  V30 14 2 13 11
M  V30 15 1 14 1
M  V30 16 1 15 1
M  V30 17 1 16 5
M  V30 18 1 17 6
M  V30 19 1 18 6
M  V30 20 1 19 7
M  V30 21 1 20 9
M  V30 22 1 21 10
M  V30 23 1 22 12
M  V30 24 1 23 12
M  V30 25 1 24 12
M  V30 END BOND
M  V30 END CTAB
M  END
>  <i_epik_Tot_Q>  (1) 
0

>  <i_epik_Tot_abs_Q>  (1) 
0

>  <i_i_glide_confnum>  (1) 
1

>  <i_i_glide_lignum>  (1) 
103

>  <i_i_glide_posenum>  (1) 
310

>  <i_i_glide_rotatable_bonds>  (1) 
2

>  <i_lp_mmshare_version>  (1) 
72125

>  <i_m_source_file_index>  (1) 
95

>  <i_f3d_flags>  (1) 
0

>  <num_sample>  (1) 
100

>  <b_lp_Chiralities_Consistent>  (1) 
1

>  <r_epik_Charging_Adjusted_Penalty>  (1) 
0

>  <r_epik_Ionization_Penalty>  (1) 
1.4103773659367358e-07

>  <r_epik_Ionization_Penalty_Charging>  (1) 
0

>  <r_epik_Ionization_Penalty_Neutral>  (1) 
1.4103773659367358e-07

>  <r_epik_State_Penalty>  (1) 
-0

>  <r_glide_ring_energy>  (1) 
0

>  <r_i_docking_score>  (1) 
-4.8146111752754699

>  <r_i_glide_ecoul>  (1) 
1.4626926943949885

>  <r_i_glide_eff_state_penalty>  (1) 
-0

>  <r_i_glide_einternal>  (1) 
0.45633020609032116

>  <r_i_glide_emodel>  (1) 
-32.89195518015363

>  <r_i_glide_emodel_strain>  (1) 
0

>  <r_i_glide_energy>  (1) 
-25.44094156198928

>  <r_i_glide_erotb>  (1) 
0

>  <r_i_glide_esite>  (1) 
0

>  <r_i_glide_evdw>  (1) 
-26.903634256384269

>  <r_i_glide_gscore>  (1) 
-4.8146111752754699

>  <r_i_glide_gscore_strain>  (1) 
0

>  <r_i_glide_hbond>  (1) 
0

>  <r_i_glide_ligand_efficiency>  (1) 
-0.37035470579042074

>  <r_i_glide_ligand_efficiency_ln>  (1) 
-1.3505412538886019

>  <r_i_glide_ligand_efficiency_sa>  (1) 
-0.87082786648563215

>  <r_i_glide_lipo>  (1) 
-0.47959181393530204

>  <r_i_glide_metal>  (1) 
-0

>  <r_i_glide_rewards>  (1) 
-3.2092415526802034

>  <r_lp_Energy>  (1) 
14.229996

>  <r_lp_tautomer_probability>  (1) 
1

>  <s_epik_cmdline>  (1) 
J2VwaWtfcHl0aG9uJywgJy1waHQnLCAnMS4wJywgJy1waCcsICc3LjQnLCAnLXRuJywgJzgnLCAnLW1hJywgJzUwMCcsICctaW1hZScsICc8aW5maWxlLm1hZT4nLCAnLW9tYWUnLCAnPG91dGZpbGUubWFlPic=

>  <s_epik_input>  (1) 
TzFbQ0gyXVtDSDJdYyhjMTIpW2NIXWMoW2NIXVtjSF0yKVtOSF1DKD1PKVtDSDNd

>  <s_glide_docking_method>  (1) 
confgen

>  <s_i_glide_gridfile>  (1) 
gpcr_drd2_6luq_protein_autoprepared_prepared

>  <s_lp_Force_Field>  (1) 
S-OPLS

>  <s_lp_Variant>  (1) 
Pocket2Mol_94_num_sample_100-1

>  <s_m_source_file>  (1) 
generated__ligand_Pocket2Mol_2026-05-06_prepared.sdf

>  <GenAI_Model>  (1) 
Pocket2Mol

>  <Protein>  (1) 
generic_title2

$$$$
Pocket2Mol_8_num_sample_100
     RDKit          3D

  0  0  0  0  0  0  0  0  0  0999 V3000
M  V30 BEGIN CTAB
M  V30 COUNTS 13 13 0 0 1
M  V30 BEGIN ATOM
M  V30 1 N 10.349212 8.569300 -6.955135 0
M  V30 2 C 11.063119 9.140724 -5.942945 0
M  V30 3 C 11.434837 8.324866 -5.002459 0
M  V30 4 C 10.326526 7.340427 -6.526598 0
M  V30 5 C 12.233923 8.714480 -3.774637 0
M  V30 6 C 11.028954 6.920469 -5.177565 0
M  V30 7 H 11.272181 10.200648 -5.976500 0
M  V30 8 H 9.823585 6.537047 -7.071301 0
M  V30 9 H 13.150314 8.127782 -3.721032 0
M  V30 10 H 12.505961 9.769388 -3.798777 0
M  V30 11 H 11.661382 8.530524 -2.866130 0
M  V30 12 H 10.315970 6.566212 -4.433283 0
M  V30 13 H 11.852069 6.226075 -5.336826 0
M  V30 END ATOM
M  V30 BEGIN BOND
M  V30 1 1 2 1
M  V30 2 2 3 2
M  V30 3 2 4 1
M  V30 4 1 5 3
M  V30 5 1 6 3
M  V30 6 1 6 4
M  V30 7 1 7 2
M  V30 8 1 8 4
M  V30 9 1 9 5
M  V30 10 1 10 5
M  V30 11 1 11 5
M  V30 12 1 12 6
M  V30 13 1 13 6
M  V30 END BOND
M  V30 END CTAB
M  END
>  <i_epik_Tot_Q>  (1) 
0

>  <i_epik_Tot_abs_Q>  (1) 
0

>  <i_i_glide_confnum>  (1) 
1

>  <i_i_glide_lignum>  (1) 
9

>  <i_i_glide_posenum>  (1) 
71

>  <i_i_glide_rotatable_bonds>  (1) 
0

>  <i_lp_mmshare_version>  (1) 
72125

>  <i_m_source_file_index>  (1) 
9

>  <i_f3d_flags>  (1) 
0

>  <num_sample>  (1) 
100

>  <b_lp_Chiralities_Consistent>  (1) 
1

>  <r_epik_Charging_Adjusted_Penalty>  (1) 
0

>  <r_epik_Ionization_Penalty>  (1) 
0

>  <r_epik_Ionization_Penalty_Charging>  (1) 
0

>  <r_epik_Ionization_Penalty_Neutral>  (1) 
0

>  <r_epik_State_Penalty>  (1) 
-0

>  <r_glide_ring_energy>  (1) 
0

>  <r_i_docking_score>  (1) 
-4.8081266832656926

>  <r_i_glide_ecoul>  (1) 
-0.40619616425478999

>  <r_i_glide_eff_state_penalty>  (1) 
-0

>  <r_i_glide_einternal>  (1) 
0

>  <r_i_glide_emodel>  (1) 
-21.30467517937192

>  <r_i_glide_emodel_strain>  (1) 
9.2582581601163838e-09

>  <r_i_glide_energy>  (1) 
-16.015369532883753

>  <r_i_glide_erotb>  (1) 
0

>  <r_i_glide_esite>  (1) 
0

>  <r_i_glide_evdw>  (1) 
-15.609173368628964

>  <r_i_glide_gscore>  (1) 
-4.8081266832656926

>  <r_i_glide_gscore_strain>  (1) 
0

>  <r_i_glide_hbond>  (1) 
0

>  <r_i_glide_ligand_efficiency>  (1) 
-0.80135444721094873

>  <r_i_glide_ligand_efficiency_ln>  (1) 
-1.722256783316358

>  <r_i_glide_ligand_efficiency_sa>  (1) 
-1.4561576681846309

>  <r_i_glide_lipo>  (1) 
-1.1882920634003848

>  <r_i_glide_metal>  (1) 
-0

>  <r_i_glide_rewards>  (1) 
-2.7784465267956406

>  <r_lp_Energy>  (1) 
-3.9959819999999997

>  <r_lp_tautomer_probability>  (1) 
1

>  <s_epik_Chemistry_Notes>  (1) 
This compound has an imine and may undergo hydrolysis.

>  <s_epik_cmdline>  (1) 
J2VwaWtfcHl0aG9uJywgJy1waHQnLCAnMS4wJywgJy1waCcsICc3LjQnLCAnLXRuJywgJzgnLCAnLW1hJywgJzUwMCcsICctaW1hZScsICc8aW5maWxlLm1hZT4nLCAnLW9tYWUnLCAnPG91dGZpbGUubWFlPic=

>  <s_epik_input>  (1) 
W0NIMl0xW0NIXT1OW0NIXT1DMVtDSDNd

>  <s_glide_docking_method>  (1) 
confgen

>  <s_i_glide_gridfile>  (1) 
gpcr_drd2_6luq_protein_autoprepared_prepared

>  <s_lp_Force_Field>  (1) 
S-OPLS

>  <s_lp_Variant>  (1) 
Pocket2Mol_8_num_sample_100-1

>  <s_m_source_file>  (1) 
generated__ligand_Pocket2Mol_2026-05-06_prepared.sdf

>  <GenAI_Model>  (1) 
Pocket2Mol

>  <Protein>  (1) 
generic_title2

$$$$
Pocket2Mol_17_num_sample_100
     RDKit          3D

  0  0  0  0  0  0  0  0  0  0999 V3000
M  V30 BEGIN CTAB
M  V30 COUNTS 12 12 0 0 1
M  V30 BEGIN ATOM
M  V30 1 N 11.137635 8.612406 -5.880817 0
M  V30 2 C 11.835045 9.467499 -5.037664 0
M  V30 3 C 12.354097 9.081055 -3.853130 0
M  V30 4 C 12.182543 7.678123 -3.411088 0
M  V30 5 O 12.634839 7.273710 -2.342047 0
M  V30 6 C 10.961673 7.291070 -5.491482 0
M  V30 7 C 11.434857 6.790326 -4.330781 0
M  V30 8 H 11.929335 10.476971 -5.410440 0
M  V30 9 H 12.892201 9.769263 -3.218063 0
M  V30 10 H 10.765635 8.945023 -6.760074 0
M  V30 11 H 10.409923 6.690626 -6.199951 0
M  V30 12 H 11.282290 5.757396 -4.054596 0
M  V30 END ATOM
M  V30 BEGIN BOND
M  V30 1 1 2 1
M  V30 2 2 3 2
M  V30 3 1 4 3
M  V30 4 2 5 4
M  V30 5 1 6 1
M  V30 6 1 7 4
M  V30 7 2 7 6
M  V30 8 1 8 2
M  V30 9 1 9 3
M  V30 10 1 10 1
M  V30 11 1 11 6
M  V30 12 1 12 7
M  V30 END BOND
M  V30 END CTAB
M  END
>  <i_epik_Tot_Q>  (1) 
0

>  <i_epik_Tot_abs_Q>  (1) 
0

>  <i_i_glide_confnum>  (1) 
1

>  <i_i_glide_lignum>  (1) 
20

>  <i_i_glide_posenum>  (1) 
331

>  <i_i_glide_rotatable_bonds>  (1) 
0

>  <i_lp_mmshare_version>  (1) 
72125

>  <i_m_source_file_index>  (1) 
18

>  <i_f3d_flags>  (1) 
0

>  <num_sample>  (1) 
100

>  <b_lp_Chiralities_Consistent>  (1) 
1

>  <r_epik_Charging_Adjusted_Penalty>  (1) 
0.00011828912318149299

>  <r_epik_Ionization_Penalty>  (1) 
0.00011828912318149299

>  <r_epik_Ionization_Penalty_Charging>  (1) 
0.00011828912318149299

>  <r_epik_Ionization_Penalty_Neutral>  (1) 
0

>  <r_epik_State_Penalty>  (1) 
-0

>  <r_glide_ring_energy>  (1) 
0

>  <r_i_docking_score>  (1) 
-4.8010018566927055

>  <r_i_glide_ecoul>  (1) 
-0.88609513977352417

>  <r_i_glide_eff_state_penalty>  (1) 
-0

>  <r_i_glide_einternal>  (1) 
0

>  <r_i_glide_emodel>  (1) 
-24.051991256679621

>  <r_i_glide_emodel_strain>  (1) 
0

>  <r_i_glide_energy>  (1) 
-18.013719366309175

>  <r_i_glide_erotb>  (1) 
0

>  <r_i_glide_esite>  (1) 
0

>  <r_i_glide_evdw>  (1) 
-17.127624226535652

>  <r_i_glide_gscore>  (1) 
-4.8010018566927055

>  <r_i_glide_gscore_strain>  (1) 
0

>  <r_i_glide_hbond>  (1) 
0

>  <r_i_glide_ligand_efficiency>  (1) 
-0.6858574080989579

>  <r_i_glide_ligand_efficiency_ln>  (1) 
-1.6297176810474949

>  <r_i_glide_ligand_efficiency_sa>  (1) 
-1.3119980228879449

>  <r_i_glide_lipo>  (1) 
-1.561706374399894

>  <r_i_glide_metal>  (1) 
-0

>  <r_i_glide_rewards>  (1) 
-2.25

>  <r_lp_Energy>  (1) 
8.1847359999999991

>  <r_lp_tautomer_probability>  (1) 
1

>  <s_epik_cmdline>  (1) 
J2VwaWtfcHl0aG9uJywgJy1waHQnLCAnMS4wJywgJy1waCcsICc3LjQnLCAnLXRuJywgJzgnLCAnLW1hJywgJzUwMCcsICctaW1hZScsICc8aW5maWxlLm1hZT4nLCAnLW9tYWUnLCAnPG91dGZpbGUubWFlPic=

>  <s_epik_input>  (1) 
W2NIXTFbY0hdbltjSF1bY0hdYzFbT0hd

>  <s_glide_docking_method>  (1) 
confgen

>  <s_i_glide_gridfile>  (1) 
gpcr_drd2_6luq_protein_autoprepared_prepared

>  <s_lp_Force_Field>  (1) 
S-OPLS

>  <s_lp_Variant>  (1) 
Pocket2Mol_17_num_sample_100-1

>  <s_m_source_file>  (1) 
generated__ligand_Pocket2Mol_2026-05-06_prepared.sdf

>  <GenAI_Model>  (1) 
Pocket2Mol

>  <Protein>  (1) 
generic_title2

$$$$
Pocket2Mol_94_num_sample_100
     RDKit          3D

  0  0  0  0  0  0  0  0  0  0999 V3000
M  V30 BEGIN CTAB
M  V30 COUNTS 24 25 0 0 1
M  V30 BEGIN ATOM
M  V30 1 C 12.482355 8.254774 -1.891660 0
M  V30 2 O 12.507780 9.369632 -2.854315 0
M  V30 3 C 12.060756 8.779669 -3.978337 0
M  V30 4 C 11.834838 7.455772 -3.891682 0
M  V30 5 C 11.354379 6.719188 -4.985275 0
M  V30 6 C 12.115137 6.863042 -2.580036 0
M  V30 7 C 11.838454 9.481678 -5.172459 0
M  V30 8 C 11.103607 7.378276 -6.214135 0
M  V30 9 N 10.635024 6.566367 -7.331588 0
M  V30 10 C 11.364273 8.786344 -6.306861 0
M  V30 11 C 10.091849 6.977999 -8.519514 0
M  V30 12 C 9.834850 8.459443 -8.770797 0
M  V30 13 O 9.793559 6.169300 -9.392917 0
M  V30 14 H 13.434465 8.199449 -1.367047 0
M  V30 15 H 11.734764 8.498151 -1.135943 0
M  V30 16 H 11.178126 5.661696 -4.889355 0
M  V30 17 H 11.239495 6.381224 -2.142845 0
M  V30 18 H 12.957061 6.172379 -2.621632 0
M  V30 19 H 12.034927 10.541666 -5.226715 0
M  V30 20 H 10.702400 5.568071 -7.201259 0
M  V30 21 H 11.231048 9.326588 -7.208843 0
M  V30 22 H 10.729571 8.976943 -9.115623 0
M  V30 23 H 9.134551 8.539721 -9.602961 0
M  V30 24 H 9.325936 8.952455 -7.941683 0
M  V30 END ATOM
M  V30 BEGIN BOND
M  V30 1 1 2 1
M  V30 2 1 3 2
M  V30 3 2 4 3
M  V30 4 1 5 4
M  V30 5 1 6 1
M  V30 6 1 6 4
M  V30 7 1 7 3
M  V30 8 2 8 5
M  V30 9 1 9 8
M  V30 10 2 10 7
M  V30 11 1 10 8
M  V30 12 1 11 9
M  V30 13 1 12 11
M  V30 14 2 13 11
M  V30 15 1 14 1
M  V30 16 1 15 1
M  V30 17 1 16 5
M  V30 18 1 17 6
M  V30 19 1 18 6
M  V30 20 1 19 7
M  V30 21 1 20 9
M  V30 22 1 21 10
M  V30 23 1 22 12
M  V30 24 1 23 12
M  V30 25 1 24 12
M  V30 END BOND
M  V30 END CTAB
M  END
>  <i_epik_Tot_Q>  (1) 
0

>  <i_epik_Tot_abs_Q>  (1) 
0

>  <i_i_glide_confnum>  (1) 
1

>  <i_i_glide_lignum>  (1) 
103

>  <i_i_glide_posenum>  (1) 
332

>  <i_i_glide_rotatable_bonds>  (1) 
2

>  <i_lp_mmshare_version>  (1) 
72125

>  <i_m_source_file_index>  (1) 
95

>  <i_f3d_flags>  (1) 
0

>  <num_sample>  (1) 
100

>  <b_lp_Chiralities_Consistent>  (1) 
1

>  <r_epik_Charging_Adjusted_Penalty>  (1) 
0

>  <r_epik_Ionization_Penalty>  (1) 
1.4103773659367358e-07

>  <r_epik_Ionization_Penalty_Charging>  (1) 
0

>  <r_epik_Ionization_Penalty_Neutral>  (1) 
1.4103773659367358e-07

>  <r_epik_State_Penalty>  (1) 
-0

>  <r_glide_ring_energy>  (1) 
0

>  <r_i_docking_score>  (1) 
-4.7988771094233753

>  <r_i_glide_ecoul>  (1) 
0.099609863755507122

>  <r_i_glide_eff_state_penalty>  (1) 
-0

>  <r_i_glide_einternal>  (1) 
3.792241321362865

>  <r_i_glide_emodel>  (1) 
-33.270809755183507

>  <r_i_glide_emodel_strain>  (1) 
0

>  <r_i_glide_energy>  (1) 
-27.512847117585938

>  <r_i_glide_erotb>  (1) 
0

>  <r_i_glide_esite>  (1) 
-0.062569907129347166

>  <r_i_glide_evdw>  (1) 
-27.612456981341445

>  <r_i_glide_gscore>  (1) 
-4.7988771094233753

>  <r_i_glide_gscore_strain>  (1) 
0

>  <r_i_glide_hbond>  (1) 
0

>  <r_i_glide_ligand_efficiency>  (1) 
-0.36914439303256735

>  <r_i_glide_ligand_efficiency_ln>  (1) 
-1.3461277084846084

>  <r_i_glide_ligand_efficiency_sa>  (1) 
-0.8679820161151004

>  <r_i_glide_lipo>  (1) 
-2.3058521926325986

>  <r_i_glide_metal>  (1) 
-0

>  <r_i_glide_rewards>  (1) 
-1.0647736401576831

>  <r_lp_Energy>  (1) 
14.229996

>  <r_lp_tautomer_probability>  (1) 
1

>  <s_epik_cmdline>  (1) 
J2VwaWtfcHl0aG9uJywgJy1waHQnLCAnMS4wJywgJy1waCcsICc3LjQnLCAnLXRuJywgJzgnLCAnLW1hJywgJzUwMCcsICctaW1hZScsICc8aW5maWxlLm1hZT4nLCAnLW9tYWUnLCAnPG91dGZpbGUubWFlPic=

>  <s_epik_input>  (1) 
TzFbQ0gyXVtDSDJdYyhjMTIpW2NIXWMoW2NIXVtjSF0yKVtOSF1DKD1PKVtDSDNd

>  <s_glide_docking_method>  (1) 
confgen

>  <s_i_glide_gridfile>  (1) 
gpcr_drd2_6luq_protein_autoprepared_prepared

>  <s_lp_Force_Field>  (1) 
S-OPLS

>  <s_lp_Variant>  (1) 
Pocket2Mol_94_num_sample_100-1

>  <s_m_source_file>  (1) 
generated__ligand_Pocket2Mol_2026-05-06_prepared.sdf

>  <GenAI_Model>  (1) 
Pocket2Mol

>  <Protein>  (1) 
generic_title2

$$$$
Pocket2Mol_24_num_sample_100
     RDKit          3D

  0  0  0  0  0  0  0  0  0  0999 V3000
M  V30 BEGIN CTAB
M  V30 COUNTS 15 16 0 0 1
M  V30 BEGIN ATOM
M  V30 1 C 9.488141 8.481646 -6.716479 0
M  V30 2 O 10.634841 9.281417 -6.411989 0
M  V30 3 C 11.806768 8.767967 -7.044774 0 CFG=2
M  V30 4 C 11.752570 8.452523 -8.523041 0 CFG=1
M  V30 5 O 13.034839 8.308254 -9.101900 0
M  V30 6 C 10.027602 7.102936 -7.082073 0
M  V30 7 C 11.434838 7.384980 -7.491664 0 CFG=2
M  V30 8 H 8.778222 8.453568 -5.891686 0
M  V30 9 H 8.977022 8.923140 -7.573367 0
M  V30 10 H 12.749849 8.969307 -6.543172 0
M  V30 11 H 10.978672 8.875916 -9.161268 0
M  V30 12 H 13.357256 9.163338 -9.362385 0
M  V30 13 H 10.032792 6.446149 -6.211460 0
M  V30 14 H 9.461217 6.624965 -7.882298 0
M  V30 15 H 12.154421 6.589630 -7.317186 0
M  V30 END ATOM
M  V30 BEGIN BOND
M  V30 1 1 2 1
M  V30 2 1 3 2
M  V30 3 1 4 3
M  V30 4 1 5 4
M  V30 5 1 6 1
M  V30 6 1 7 3
M  V30 7 1 7 4
M  V30 8 1 7 6
M  V30 9 1 8 1
M  V30 10 1 9 1
M  V30 11 1 3 10 CFG=1
M  V30 12 1 4 11 CFG=3
M  V30 13 1 12 5
M  V30 14 1 13 6
M  V30 15 1 14 6
M  V30 16 1 7 15 CFG=1
M  V30 END BOND
M  V30 END CTAB
M  END
>  <i_epik_Tot_Q>  (1) 
0

>  <i_epik_Tot_abs_Q>  (1) 
0

>  <i_i_glide_confnum>  (1) 
1

>  <i_i_glide_lignum>  (1) 
28

>  <i_i_glide_posenum>  (1) 
9

>  <i_i_glide_rotatable_bonds>  (1) 
1

>  <i_lp_mmshare_version>  (1) 
72125

>  <i_m_source_file_index>  (1) 
25

>  <i_f3d_flags>  (1) 
0

>  <num_sample>  (1) 
100

>  <b_lp_Chiralities_Consistent>  (1) 
1

>  <r_epik_Charging_Adjusted_Penalty>  (1) 
0

>  <r_epik_Ionization_Penalty>  (1) 
4.3639151522347116e-08

>  <r_epik_Ionization_Penalty_Charging>  (1) 
0

>  <r_epik_Ionization_Penalty_Neutral>  (1) 
4.3639151522347116e-08

>  <r_epik_State_Penalty>  (1) 
-0

>  <r_glide_ring_energy>  (1) 
0

>  <r_i_docking_score>  (1) 
-4.7982728163657447

>  <r_i_glide_ecoul>  (1) 
-3.5996631211477785

>  <r_i_glide_eff_state_penalty>  (1) 
-0

>  <r_i_glide_einternal>  (1) 
0.16920342446816389

>  <r_i_glide_emodel>  (1) 
-24.180645893878363

>  <r_i_glide_emodel_strain>  (1) 
0

>  <r_i_glide_energy>  (1) 
-17.73462218179186

>  <r_i_glide_erotb>  (1) 
0

>  <r_i_glide_esite>  (1) 
0

>  <r_i_glide_evdw>  (1) 
-14.13495906064408

>  <r_i_glide_gscore>  (1) 
-4.7982728163657447

>  <r_i_glide_gscore_strain>  (1) 
0

>  <r_i_glide_hbond>  (1) 
-0.26939454366973059

>  <r_i_glide_ligand_efficiency>  (1) 
-0.68546754519510633

>  <r_i_glide_ligand_efficiency_ln>  (1) 
-1.6287912983036641

>  <r_i_glide_ligand_efficiency_sa>  (1) 
-1.3112522419821611

>  <r_i_glide_lipo>  (1) 
-0.71551418482497708

>  <r_i_glide_metal>  (1) 
-0

>  <r_i_glide_rewards>  (1) 
-2.5666666666666664

>  <r_lp_Energy>  (1) 
3.2309049999999999

>  <r_lp_tautomer_probability>  (1) 
1

>  <s_epik_cmdline>  (1) 
J2VwaWtfcHl0aG9uJywgJy1waHQnLCAnMS4wJywgJy1waCcsICc3LjQnLCAnLXRuJywgJzgnLCAnLW1hJywgJzUwMCcsICctaW1hZScsICc8aW5maWxlLm1hZT4nLCAnLW9tYWUnLCAnPG91dGZpbGUubWFlPic=

>  <s_epik_input>  (1) 
TzFbQ0gyXVtDSDJdW0NIXShbQ0BIXTEyKVtDQEBIXTJbT0hd

>  <s_glide_docking_method>  (1) 
confgen

>  <s_i_glide_gridfile>  (1) 
gpcr_drd2_6luq_protein_autoprepared_prepared

>  <s_lp_Force_Field>  (1) 
S-OPLS

>  <s_lp_Variant>  (1) 
Pocket2Mol_24_num_sample_100-1

>  <s_m_source_file>  (1) 
generated__ligand_Pocket2Mol_2026-05-06_prepared.sdf

>  <GenAI_Model>  (1) 
Pocket2Mol

>  <Protein>  (1) 
generic_title2

$$$$
Pocket2Mol_35_num_sample_100
     RDKit          3D

  0  0  0  0  0  0  0  0  0  0999 V3000
M  V30 BEGIN CTAB
M  V30 COUNTS 16 17 0 0 1
M  V30 BEGIN ATOM
M  V30 1 C 9.870780 6.868153 -7.307560 0
M  V30 2 O 10.452322 6.202920 -6.170129 0
M  V30 3 C 11.034791 7.154666 -5.382384 0
M  V30 4 C 10.901614 8.430868 -5.891897 0
M  V30 5 C 11.443014 9.531347 -5.207302 0
M  V30 6 N 12.104891 9.369306 -4.037949 0
M  V30 7 C 12.234853 8.113623 -3.538615 0
M  V30 8 C 11.717294 6.959714 -4.170675 0
M  V30 9 C 10.147877 8.386978 -7.173995 0
M  V30 10 H 10.306783 6.470449 -8.224486 0
M  V30 11 H 8.799296 6.667936 -7.336959 0
M  V30 12 H 11.348738 10.536612 -5.590629 0
M  V30 13 H 12.769288 8.026729 -2.604191 0
M  V30 14 H 11.840609 5.976120 -3.742701 0
M  V30 15 H 9.228687 8.969251 -7.103434 0
M  V30 16 H 10.756790 8.768522 -7.994108 0
M  V30 END ATOM
M  V30 BEGIN BOND
M  V30 1 1 2 1
M  V30 2 1 3 2
M  V30 3 2 4 3
M  V30 4 1 5 4
M  V30 5 2 6 5
M  V30 6 1 7 6
M  V30 7 1 8 3
M  V30 8 2 8 7
M  V30 9 1 9 1
M  V30 10 1 9 4
M  V30 11 1 10 1
M  V30 12 1 11 1
M  V30 13 1 12 5
M  V30 14 1 13 7
M  V30 15 1 14 8
M  V30 16 1 15 9
M  V30 17 1 16 9
M  V30 END BOND
M  V30 END CTAB
M  END
>  <i_epik_Tot_Q>  (1) 
0

>  <i_epik_Tot_abs_Q>  (1) 
0

>  <i_i_glide_confnum>  (1) 
1

>  <i_i_glide_lignum>  (1) 
40

>  <i_i_glide_posenum>  (1) 
58

>  <i_i_glide_rotatable_bonds>  (1) 
0

>  <i_lp_mmshare_version>  (1) 
72125

>  <i_m_source_file_index>  (1) 
36

>  <i_f3d_flags>  (1) 
0

>  <num_sample>  (1) 
100

>  <b_lp_Chiralities_Consistent>  (1) 
1

>  <r_epik_Charging_Adjusted_Penalty>  (1) 
0.44367302241175355

>  <r_epik_Ionization_Penalty>  (1) 
0.44367302241175355

>  <r_epik_Ionization_Penalty_Charging>  (1) 
0

>  <r_epik_Ionization_Penalty_Neutral>  (1) 
0.44367302241175355

>  <r_epik_State_Penalty>  (1) 
0.44367302241175355

>  <r_glide_ring_energy>  (1) 
0

>  <r_i_docking_score>  (1) 
-4.79683030967694

>  <r_i_glide_ecoul>  (1) 
-0.5277733925040955

>  <r_i_glide_eff_state_penalty>  (1) 
0.44367302241175355

>  <r_i_glide_einternal>  (1) 
0

>  <r_i_glide_emodel>  (1) 
-27.021500462876659

>  <r_i_glide_emodel_strain>  (1) 
0

>  <r_i_glide_energy>  (1) 
-19.991892638544012

>  <r_i_glide_erotb>  (1) 
0

>  <r_i_glide_esite>  (1) 
0

>  <r_i_glide_evdw>  (1) 
-19.464119246039917

>  <r_i_glide_gscore>  (1) 
-5.2405033320886938

>  <r_i_glide_gscore_strain>  (1) 
0

>  <r_i_glide_hbond>  (1) 
0

>  <r_i_glide_ligand_efficiency>  (1) 
-0.53298114551966003

>  <r_i_glide_ligand_efficiency_ln>  (1) 
-1.5003107206417881

>  <r_i_glide_ligand_efficiency_sa>  (1) 
-1.1086454587871177

>  <r_i_glide_lipo>  (1) 
-1.4226531635791102

>  <r_i_glide_metal>  (1) 
-0

>  <r_i_glide_rewards>  (1) 
-2.7654781973319742

>  <r_lp_Energy>  (1) 
12.810587999999999

>  <s_epik_cmdline>  (1) 
J2VwaWtfcHl0aG9uJywgJy1waHQnLCAnMS4wJywgJy1waCcsICc3LjQnLCAnLXRuJywgJzgnLCAnLW1hJywgJzUwMCcsICctaW1hZScsICc8aW5maWxlLm1hZT4nLCAnLW9tYWUnLCAnPG91dGZpbGUubWFlPic=

>  <s_epik_input>  (1) 
TzFbQ0gyXVtDSDJdYyhjMTIpW2NIXW5bY0hdW2NIXTI=

>  <s_glide_docking_method>  (1) 
confgen

>  <s_i_glide_gridfile>  (1) 
gpcr_drd2_6luq_protein_autoprepared_prepared

>  <s_lp_Force_Field>  (1) 
S-OPLS

>  <s_lp_Variant>  (1) 
Pocket2Mol_35_num_sample_100-2

>  <s_m_source_file>  (1) 
generated__ligand_Pocket2Mol_2026-05-06_prepared.sdf

>  <GenAI_Model>  (1) 
Pocket2Mol

>  <Protein>  (1) 
generic_title2

$$$$
Pocket2Mol_28_num_sample_100
     RDKit          3D

  0  0  0  0  0  0  0  0  0  0999 V3000
M  V30 BEGIN CTAB
M  V30 COUNTS 13 13 0 0 1
M  V30 BEGIN ATOM
M  V30 1 N 9.994119 6.999932 -6.518040 0
M  V30 2 C 9.434109 7.118156 -7.782518 0
M  V30 3 C 9.991509 7.847150 -8.771587 0
M  V30 4 C 11.185713 7.661473 -6.251699 0
M  V30 5 O 9.443887 7.955642 -9.988307 0
M  V30 6 C 11.264793 8.566497 -8.520303 0
M  V30 7 O 11.815718 9.245033 -9.386376 0
M  V30 8 C 11.834917 8.419200 -7.161362 0
M  V30 9 H 8.508666 6.574503 -7.909623 0
M  V30 10 H 11.555635 7.519276 -5.246645 0
M  V30 11 H 8.520559 7.769330 -9.889006 0
M  V30 12 H 12.760741 8.921585 -6.923828 0
M  V30 13 H 9.542210 6.442643 -5.805592 0
M  V30 END ATOM
M  V30 BEGIN BOND
M  V30 1 1 2 1
M  V30 2 2 3 2
M  V30 3 1 4 1
M  V30 4 1 5 3
M  V30 5 1 6 3
M  V30 6 2 7 6
M  V30 7 2 8 4
M  V30 8 1 8 6
M  V30 9 1 9 2
M  V30 10 1 10 4
M  V30 11 1 11 5
M  V30 12 1 12 8
M  V30 13 1 13 1
M  V30 END BOND
M  V30 END CTAB
M  END
>  <i_epik_Tot_Q>  (1) 
0

>  <i_epik_Tot_abs_Q>  (1) 
0

>  <i_i_glide_confnum>  (1) 
1

>  <i_i_glide_lignum>  (1) 
32

>  <i_i_glide_posenum>  (1) 
328

>  <i_i_glide_rotatable_bonds>  (1) 
1

>  <i_lp_mmshare_version>  (1) 
72125

>  <i_m_source_file_index>  (1) 
29

>  <i_f3d_flags>  (1) 
0

>  <num_sample>  (1) 
100

>  <b_lp_Chiralities_Consistent>  (1) 
1

>  <r_epik_Charging_Adjusted_Penalty>  (1) 
0.000203171374695584

>  <r_epik_Ionization_Penalty>  (1) 
0.014901896624084464

>  <r_epik_Ionization_Penalty_Charging>  (1) 
0.000203171374695584

>  <r_epik_Ionization_Penalty_Neutral>  (1) 
0.01469872524938888

>  <r_epik_State_Penalty>  (1) 
-0

>  <r_glide_ring_energy>  (1) 
0

>  <r_i_docking_score>  (1) 
-4.7907046369763187

>  <r_i_glide_ecoul>  (1) 
-6.9240742346931832

>  <r_i_glide_eff_state_penalty>  (1) 
-0

>  <r_i_glide_einternal>  (1) 
1.2656900810336742

>  <r_i_glide_emodel>  (1) 
-26.835813898389752

>  <r_i_glide_emodel_strain>  (1) 
0.16177821659786495

>  <r_i_glide_energy>  (1) 
-20.46179694349529

>  <r_i_glide_erotb>  (1) 
0

>  <r_i_glide_esite>  (1) 
0

>  <r_i_glide_evdw>  (1) 
-13.537722708802107

>  <r_i_glide_gscore>  (1) 
-4.7907046369763187

>  <r_i_glide_gscore_strain>  (1) 
0

>  <r_i_glide_hbond>  (1) 
-0.16

>  <r_i_glide_ligand_efficiency>  (1) 
-0.59883807962203983

>  <r_i_glide_ligand_efficiency_ln>  (1) 
-1.5557056603071571

>  <r_i_glide_ligand_efficiency_sa>  (1) 
-1.1976761592440799

>  <r_i_glide_lipo>  (1) 
-0.66520736633223609

>  <r_i_glide_metal>  (1) 
-0

>  <r_i_glide_rewards>  (1) 
-2.25

>  <r_lp_Energy>  (1) 
11.500328

>  <r_lp_tautomer_probability>  (1) 
1

>  <s_epik_cmdline>  (1) 
J2VwaWtfcHl0aG9uJywgJy1waHQnLCAnMS4wJywgJy1waCcsICc3LjQnLCAnLXRuJywgJzgnLCAnLW1hJywgJzUwMCcsICctaW1hZScsICc8aW5maWxlLm1hZT4nLCAnLW9tYWUnLCAnPG91dGZpbGUubWFlPic=

>  <s_epik_input>  (1) 
W09IXWMxW2NIXW5bY0hdW2NIXWMxW09IXQ==

>  <s_glide_docking_method>  (1) 
confgen

>  <s_i_glide_gridfile>  (1) 
gpcr_drd2_6luq_protein_autoprepared_prepared

>  <s_lp_Force_Field>  (1) 
S-OPLS

>  <s_lp_Variant>  (1) 
Pocket2Mol_28_num_sample_100-1

>  <s_m_source_file>  (1) 
generated__ligand_Pocket2Mol_2026-05-06_prepared.sdf

>  <GenAI_Model>  (1) 
Pocket2Mol

>  <Protein>  (1) 
generic_title2

$$$$
Pocket2Mol_98_num_sample_100
     RDKit          3D

  0  0  0  0  0  0  0  0  0  0999 V3000
M  V30 BEGIN CTAB
M  V30 COUNTS 24 25 0 0 1
M  V30 BEGIN ATOM
M  V30 1 C 12.477825 8.251132 -1.891662 0
M  V30 2 O 12.493179 9.369306 -2.849133 0
M  V30 3 C 12.054110 8.779030 -3.975315 0
M  V30 4 C 11.834838 7.453478 -3.891667 0
M  V30 5 C 11.365040 6.715826 -4.989162 0
M  V30 6 C 12.114340 6.859864 -2.581023 0
M  V30 7 C 11.118367 7.375724 -6.218479 0
M  V30 8 N 10.664639 6.563964 -7.341062 0
M  V30 9 C 11.834459 9.481708 -5.169418 0
M  V30 10 C 11.370869 8.785193 -6.307475 0
M  V30 11 C 10.117218 6.975512 -8.526892 0
M  V30 12 O 9.834773 6.168613 -9.407281 0
M  V30 13 C 9.835007 8.454975 -8.766805 0
M  V30 14 H 13.434713 8.199008 -1.374786 0
M  V30 15 H 11.733665 8.488306 -1.130572 0
M  V30 16 H 11.195215 5.656802 -4.896358 0
M  V30 17 H 11.238979 6.375783 -2.146340 0
M  V30 18 H 12.958766 6.172066 -2.622780 0
M  V30 19 H 12.024898 10.543009 -5.220899 0
M  V30 20 H 11.240146 9.325277 -7.210275 0
M  V30 21 H 10.718883 8.988553 -9.115275 0
M  V30 22 H 9.127149 8.529266 -9.593328 0
M  V30 23 H 9.325593 8.936781 -7.931477 0
M  V30 24 H 10.746754 5.565984 -7.217022 0
M  V30 END ATOM
M  V30 BEGIN BOND
M  V30 1 1 2 1
M  V30 2 1 3 2
M  V30 3 2 4 3
M  V30 4 1 5 4
M  V30 5 1 6 1
M  V30 6 1 6 4
M  V30 7 2 7 5
M  V30 8 1 8 7
M  V30 9 1 9 3
M  V30 10 1 10 7
M  V30 11 2 10 9
M  V30 12 1 11 8
M  V30 13 2 12 11
M  V30 14 1 13 11
M  V30 15 1 14 1
M  V30 16 1 15 1
M  V30 17 1 16 5
M  V30 18 1 17 6
M  V30 19 1 18 6
M  V30 20 1 19 9
M  V30 21 1 20 10
M  V30 22 1 21 13
M  V30 23 1 22 13
M  V30 24 1 23 13
M  V30 25 1 24 8
M  V30 END BOND
M  V30 END CTAB
M  END
>  <i_epik_Tot_Q>  (1) 
0

>  <i_epik_Tot_abs_Q>  (1) 
0

>  <i_i_glide_confnum>  (1) 
1

>  <i_i_glide_lignum>  (1) 
107

>  <i_i_glide_posenum>  (1) 
332

>  <i_i_glide_rotatable_bonds>  (1) 
2

>  <i_lp_mmshare_version>  (1) 
72125

>  <i_m_source_file_index>  (1) 
99

>  <i_f3d_flags>  (1) 
0

>  <num_sample>  (1) 
100

>  <b_lp_Chiralities_Consistent>  (1) 
1

>  <r_epik_Charging_Adjusted_Penalty>  (1) 
0

>  <r_epik_Ionization_Penalty>  (1) 
1.4103773659367358e-07

>  <r_epik_Ionization_Penalty_Charging>  (1) 
0

>  <r_epik_Ionization_Penalty_Neutral>  (1) 
1.4103773659367358e-07

>  <r_epik_State_Penalty>  (1) 
-0

>  <r_glide_ring_energy>  (1) 
0

>  <r_i_docking_score>  (1) 
-4.7892183842804723

>  <r_i_glide_ecoul>  (1) 
0.048866225675084252

>  <r_i_glide_eff_state_penalty>  (1) 
-0

>  <r_i_glide_einternal>  (1) 
3.7922427116596467

>  <r_i_glide_emodel>  (1) 
-33.170667093697034

>  <r_i_glide_emodel_strain>  (1) 
0

>  <r_i_glide_energy>  (1) 
-27.419252723478696

>  <r_i_glide_erotb>  (1) 
0

>  <r_i_glide_esite>  (1) 
-0.060621443504315822

>  <r_i_glide_evdw>  (1) 
-27.46811894915378

>  <r_i_glide_gscore>  (1) 
-4.7892183842804723

>  <r_i_glide_gscore_strain>  (1) 
0

>  <r_i_glide_hbond>  (1) 
0

>  <r_i_glide_ligand_efficiency>  (1) 
-0.36840141417542094

>  <r_i_glide_ligand_efficiency_ln>  (1) 
-1.3434183501811903

>  <r_i_glide_ligand_efficiency_sa>  (1) 
-0.86623502415604903

>  <r_i_glide_lipo>  (1) 
-2.2992830760445568

>  <r_i_glide_metal>  (1) 
-0

>  <r_i_glide_rewards>  (1) 
-1.0632378511251726

>  <r_lp_Energy>  (1) 
14.229996

>  <r_lp_tautomer_probability>  (1) 
1

>  <s_epik_cmdline>  (1) 
J2VwaWtfcHl0aG9uJywgJy1waHQnLCAnMS4wJywgJy1waCcsICc3LjQnLCAnLXRuJywgJzgnLCAnLW1hJywgJzUwMCcsICctaW1hZScsICc8aW5maWxlLm1hZT4nLCAnLW9tYWUnLCAnPG91dGZpbGUubWFlPic=

>  <s_epik_input>  (1) 
TzFbQ0gyXVtDSDJdYyhjMTIpW2NIXWMoW2NIXVtjSF0yKS9OPUMoXFtPSF0pW0NIM10=

>  <s_glide_docking_method>  (1) 
confgen

>  <s_i_glide_gridfile>  (1) 
gpcr_drd2_6luq_protein_autoprepared_prepared

>  <s_lp_Force_Field>  (1) 
S-OPLS

>  <s_lp_Variant>  (1) 
Pocket2Mol_98_num_sample_100-1

>  <s_m_source_file>  (1) 
generated__ligand_Pocket2Mol_2026-05-06_prepared.sdf

>  <GenAI_Model>  (1) 
Pocket2Mol

>  <Protein>  (1) 
generic_title2

$$$$
Pocket2Mol_20_num_sample_100
     RDKit          3D

  0  0  0  0  0  0  0  0  0  0999 V3000
M  V30 BEGIN CTAB
M  V30 COUNTS 12 12 0 0 1
M  V30 BEGIN ATOM
M  V30 1 N 9.462184 7.902699 -8.868449 0 CHG=1
M  V30 2 C 9.780055 8.056295 -7.567820 0
M  V30 3 C 11.116229 8.233833 -7.187875 0
M  V30 4 C 10.390363 7.910702 -9.853409 0
M  V30 5 O 11.436482 8.392018 -5.876265 0 CHG=-1
M  V30 6 C 12.120591 8.249068 -8.180136 0
M  V30 7 C 11.752886 8.085853 -9.534115 0
M  V30 8 H 8.948967 8.032129 -6.872149 0
M  V30 9 H 10.015844 7.778340 -10.860728 0
M  V30 10 H 8.448069 7.769307 -9.121753 0
M  V30 11 H 13.156303 8.384677 -7.909180 0
M  V30 12 H 12.502888 8.094803 -10.308463 0
M  V30 END ATOM
M  V30 BEGIN BOND
M  V30 1 1 2 1
M  V30 2 2 3 2
M  V30 3 2 4 1
M  V30 4 1 5 3
M  V30 5 1 6 3
M  V30 6 1 7 4
M  V30 7 2 7 6
M  V30 8 1 8 2
M  V30 9 1 9 4
M  V30 10 1 10 1
M  V30 11 1 11 6
M  V30 12 1 12 7
M  V30 END BOND
M  V30 END CTAB
M  END
>  <i_epik_Tot_Q>  (1) 
0

>  <i_epik_Tot_abs_Q>  (1) 
2

>  <i_i_glide_confnum>  (1) 
1

>  <i_i_glide_lignum>  (1) 
23

>  <i_i_glide_posenum>  (1) 
327

>  <i_i_glide_rotatable_bonds>  (1) 
0

>  <i_lp_mmshare_version>  (1) 
72125

>  <i_m_source_file_index>  (1) 
21

>  <i_f3d_flags>  (1) 
0

>  <num_sample>  (1) 
100

>  <b_lp_Chiralities_Consistent>  (1) 
1

>  <r_epik_Charging_Adjusted_Penalty>  (1) 
0.36510749842979956

>  <r_epik_Ionization_Penalty>  (1) 
0.025180683492302028

>  <r_epik_Ionization_Penalty_Charging>  (1) 
0.025180683492302028

>  <r_epik_Ionization_Penalty_Neutral>  (1) 
0

>  <r_epik_State_Penalty>  (1) 
0.33992681493749755

>  <r_glide_ring_energy>  (1) 
0

>  <r_i_docking_score>  (1) 
-4.7817508180306127

>  <r_i_glide_ecoul>  (1) 
-8.3946367806903268

>  <r_i_glide_eff_state_penalty>  (1) 
0.33992681493749755

>  <r_i_glide_einternal>  (1) 
0

>  <r_i_glide_emodel>  (1) 
-30.039407648092791

>  <r_i_glide_emodel_strain>  (1) 
0

>  <r_i_glide_energy>  (1) 
-20.055260335859639

>  <r_i_glide_erotb>  (1) 
0

>  <r_i_glide_esite>  (1) 
-0.10000000000000001

>  <r_i_glide_evdw>  (1) 
-11.660623555169312

>  <r_i_glide_gscore>  (1) 
-5.12167763296811

>  <r_i_glide_gscore_strain>  (1) 
0

>  <r_i_glide_hbond>  (1) 
-0.19675543455308137

>  <r_i_glide_ligand_efficiency>  (1) 
-0.68310725971865893

>  <r_i_glide_ligand_efficiency_ln>  (1) 
-1.6231828453980552

>  <r_i_glide_ligand_efficiency_sa>  (1) 
-1.30673717829402

>  <r_i_glide_lipo>  (1) 
-0.73269550355301305

>  <r_i_glide_metal>  (1) 
-0

>  <r_i_glide_rewards>  (1) 
-2.25

>  <r_lp_Energy>  (1) 
9.275188

>  <r_lp_tautomer_probability>  (1) 
0.56342000000000003

>  <s_epik_cmdline>  (1) 
J2VwaWtfcHl0aG9uJywgJy1waHQnLCAnMS4wJywgJy1waCcsICc3LjQnLCAnLXRuJywgJzgnLCAnLW1hJywgJzUwMCcsICctaW1hZScsICc8aW5maWxlLm1hZT4nLCAnLW9tYWUnLCAnPG91dGZpbGUubWFlPic=

>  <s_epik_input>  (1) 
W2NIXTFbY0hdW2NIXW5bY0hdYzFbT0hd

>  <s_glide_docking_method>  (1) 
confgen

>  <s_i_glide_gridfile>  (1) 
gpcr_drd2_6luq_protein_autoprepared_prepared

>  <s_lp_Force_Field>  (1) 
S-OPLS

>  <s_lp_Variant>  (1) 
Pocket2Mol_20_num_sample_100-1

>  <s_m_source_file>  (1) 
generated__ligand_Pocket2Mol_2026-05-06_prepared.sdf

>  <GenAI_Model>  (1) 
Pocket2Mol

>  <Protein>  (1) 
generic_title2

$$$$
Pocket2Mol_8_num_sample_100
     RDKit          3D

  0  0  0  0  0  0  0  0  0  0999 V3000
M  V30 BEGIN CTAB
M  V30 COUNTS 13 13 0 0 1
M  V30 BEGIN ATOM
M  V30 1 N 11.514389 9.444091 -5.463680 0
M  V30 2 C 11.987646 9.041570 -4.247138 0
M  V30 3 C 11.834791 7.777302 -3.986247 0
M  V30 4 C 11.047250 8.305230 -5.893783 0
M  V30 5 C 12.242855 7.098743 -2.693508 0
M  V30 6 C 11.180815 6.980072 -5.045357 0
M  V30 7 H 12.433861 9.769301 -3.585624 0
M  V30 8 H 10.542448 8.203755 -6.858326 0
M  V30 9 H 11.389227 6.583612 -2.251853 0
M  V30 10 H 13.033639 6.371105 -2.858705 0
M  V30 11 H 12.607373 7.829366 -1.970089 0
M  V30 12 H 10.215315 6.568432 -4.751737 0
M  V30 13 H 11.834661 6.242089 -5.510616 0
M  V30 END ATOM
M  V30 BEGIN BOND
M  V30 1 1 2 1
M  V30 2 2 3 2
M  V30 3 2 4 1
M  V30 4 1 5 3
M  V30 5 1 6 3
M  V30 6 1 6 4
M  V30 7 1 7 2
M  V30 8 1 8 4
M  V30 9 1 9 5
M  V30 10 1 10 5
M  V30 11 1 11 5
M  V30 12 1 12 6
M  V30 13 1 13 6
M  V30 END BOND
M  V30 END CTAB
M  END
>  <i_epik_Tot_Q>  (1) 
0

>  <i_epik_Tot_abs_Q>  (1) 
0

>  <i_i_glide_confnum>  (1) 
1

>  <i_i_glide_lignum>  (1) 
9

>  <i_i_glide_posenum>  (1) 
308

>  <i_i_glide_rotatable_bonds>  (1) 
0

>  <i_lp_mmshare_version>  (1) 
72125

>  <i_m_source_file_index>  (1) 
9

>  <i_f3d_flags>  (1) 
0

>  <num_sample>  (1) 
100

>  <b_lp_Chiralities_Consistent>  (1) 
1

>  <r_epik_Charging_Adjusted_Penalty>  (1) 
0

>  <r_epik_Ionization_Penalty>  (1) 
0

>  <r_epik_Ionization_Penalty_Charging>  (1) 
0

>  <r_epik_Ionization_Penalty_Neutral>  (1) 
0

>  <r_epik_State_Penalty>  (1) 
-0

>  <r_glide_ring_energy>  (1) 
0

>  <r_i_docking_score>  (1) 
-4.7763185647732094

>  <r_i_glide_ecoul>  (1) 
-0.97733130400107748

>  <r_i_glide_eff_state_penalty>  (1) 
-0

>  <r_i_glide_einternal>  (1) 
0

>  <r_i_glide_emodel>  (1) 
-21.381917746794102

>  <r_i_glide_emodel_strain>  (1) 
0

>  <r_i_glide_energy>  (1) 
-16.12760344467122

>  <r_i_glide_erotb>  (1) 
0

>  <r_i_glide_esite>  (1) 
0

>  <r_i_glide_evdw>  (1) 
-15.150272140670143

>  <r_i_glide_gscore>  (1) 
-4.7763185647732094

>  <r_i_glide_gscore_strain>  (1) 
0

>  <r_i_glide_hbond>  (1) 
0

>  <r_i_glide_ligand_efficiency>  (1) 
-0.79605309412886827

>  <r_i_glide_ligand_efficiency_ln>  (1) 
-1.7108632091767926

>  <r_i_glide_ligand_efficiency_sa>  (1) 
-1.4465244703293083

>  <r_i_glide_lipo>  (1) 
-1.0849997807088809

>  <r_i_glide_metal>  (1) 
-0

>  <r_i_glide_rewards>  (1) 
-2.787205481430659

>  <r_lp_Energy>  (1) 
-3.9959819999999997

>  <r_lp_tautomer_probability>  (1) 
1

>  <s_epik_Chemistry_Notes>  (1) 
This compound has an imine and may undergo hydrolysis.

>  <s_epik_cmdline>  (1) 
J2VwaWtfcHl0aG9uJywgJy1waHQnLCAnMS4wJywgJy1waCcsICc3LjQnLCAnLXRuJywgJzgnLCAnLW1hJywgJzUwMCcsICctaW1hZScsICc8aW5maWxlLm1hZT4nLCAnLW9tYWUnLCAnPG91dGZpbGUubWFlPic=

>  <s_epik_input>  (1) 
W0NIMl0xW0NIXT1OW0NIXT1DMVtDSDNd

>  <s_glide_docking_method>  (1) 
confgen

>  <s_i_glide_gridfile>  (1) 
gpcr_drd2_6luq_protein_autoprepared_prepared

>  <s_lp_Force_Field>  (1) 
S-OPLS

>  <s_lp_Variant>  (1) 
Pocket2Mol_8_num_sample_100-1

>  <s_m_source_file>  (1) 
generated__ligand_Pocket2Mol_2026-05-06_prepared.sdf

>  <GenAI_Model>  (1) 
Pocket2Mol

>  <Protein>  (1) 
generic_title2

$$$$
Pocket2Mol_28_num_sample_100
     RDKit          3D

  0  0  0  0  0  0  0  0  0  0999 V3000
M  V30 BEGIN CTAB
M  V30 COUNTS 13 13 0 0 1
M  V30 BEGIN ATOM
M  V30 1 N 10.454055 8.555157 -6.661428 0
M  V30 2 C 9.679723 8.215336 -7.762682 0
M  V30 3 C 10.191641 8.039707 -8.998683 0
M  V30 4 C 11.821967 8.723750 -6.834248 0
M  V30 5 O 9.436838 7.712026 -10.054689 0
M  V30 6 C 11.648922 8.212242 -9.217491 0
M  V30 7 O 12.167224 8.064017 -10.323667 0
M  V30 8 C 12.445041 8.574390 -8.022563 0
M  V30 9 H 8.627262 8.102703 -7.545889 0
M  V30 10 H 12.352562 8.986930 -5.930816 0
M  V30 11 H 8.535164 7.769305 -9.773106 0
M  V30 12 H 13.511281 8.712428 -8.124784 0
M  V30 13 H 10.029267 8.677145 -5.752310 0
M  V30 END ATOM
M  V30 BEGIN BOND
M  V30 1 1 2 1
M  V30 2 2 3 2
M  V30 3 1 4 1
M  V30 4 1 5 3
M  V30 5 1 6 3
M  V30 6 2 7 6
M  V30 7 2 8 4
M  V30 8 1 8 6
M  V30 9 1 9 2
M  V30 10 1 10 4
M  V30 11 1 11 5
M  V30 12 1 12 8
M  V30 13 1 13 1
M  V30 END BOND
M  V30 END CTAB
M  END
>  <i_epik_Tot_Q>  (1) 
0

>  <i_epik_Tot_abs_Q>  (1) 
0

>  <i_i_glide_confnum>  (1) 
1

>  <i_i_glide_lignum>  (1) 
32

>  <i_i_glide_posenum>  (1) 
128

>  <i_i_glide_rotatable_bonds>  (1) 
1

>  <i_lp_mmshare_version>  (1) 
72125

>  <i_m_source_file_index>  (1) 
29

>  <i_f3d_flags>  (1) 
0

>  <num_sample>  (1) 
100

>  <b_lp_Chiralities_Consistent>  (1) 
1

>  <r_epik_Charging_Adjusted_Penalty>  (1) 
0.000203171374695584

>  <r_epik_Ionization_Penalty>  (1) 
0.014901896624084464

>  <r_epik_Ionization_Penalty_Charging>  (1) 
0.000203171374695584

>  <r_epik_Ionization_Penalty_Neutral>  (1) 
0.01469872524938888

>  <r_epik_State_Penalty>  (1) 
-0

>  <r_glide_ring_energy>  (1) 
0

>  <r_i_docking_score>  (1) 
-4.7680416290665821

>  <r_i_glide_ecoul>  (1) 
-5.8776032657840434

>  <r_i_glide_eff_state_penalty>  (1) 
-0

>  <r_i_glide_einternal>  (1) 
0.17237109766794068

>  <r_i_glide_emodel>  (1) 
-27.460068075594261

>  <r_i_glide_emodel_strain>  (1) 
0

>  <r_i_glide_energy>  (1) 
-20.411525532271519

>  <r_i_glide_erotb>  (1) 
0

>  <r_i_glide_esite>  (1) 
0

>  <r_i_glide_evdw>  (1) 
-14.533922266487474

>  <r_i_glide_gscore>  (1) 
-4.7680416290665821

>  <r_i_glide_gscore_strain>  (1) 
0

>  <r_i_glide_hbond>  (1) 
-0.16

>  <r_i_glide_ligand_efficiency>  (1) 
-0.59600520363332277

>  <r_i_glide_ligand_efficiency_ln>  (1) 
-1.5483462064571665

>  <r_i_glide_ligand_efficiency_sa>  (1) 
-1.1920104072666458

>  <r_i_glide_lipo>  (1) 
-0.74970502587460208

>  <r_i_glide_metal>  (1) 
-0

>  <r_i_glide_rewards>  (1) 
-2.25

>  <r_lp_Energy>  (1) 
11.500328

>  <r_lp_tautomer_probability>  (1) 
1

>  <s_epik_cmdline>  (1) 
J2VwaWtfcHl0aG9uJywgJy1waHQnLCAnMS4wJywgJy1waCcsICc3LjQnLCAnLXRuJywgJzgnLCAnLW1hJywgJzUwMCcsICctaW1hZScsICc8aW5maWxlLm1hZT4nLCAnLW9tYWUnLCAnPG91dGZpbGUubWFlPic=

>  <s_epik_input>  (1) 
W09IXWMxW2NIXW5bY0hdW2NIXWMxW09IXQ==

>  <s_glide_docking_method>  (1) 
confgen

>  <s_i_glide_gridfile>  (1) 
gpcr_drd2_6luq_protein_autoprepared_prepared

>  <s_lp_Force_Field>  (1) 
S-OPLS

>  <s_lp_Variant>  (1) 
Pocket2Mol_28_num_sample_100-1

>  <s_m_source_file>  (1) 
generated__ligand_Pocket2Mol_2026-05-06_prepared.sdf

>  <GenAI_Model>  (1) 
Pocket2Mol

>  <Protein>  (1) 
generic_title2

$$$$
Pocket2Mol_97_num_sample_100
     RDKit          3D

  0  0  0  0  0  0  0  0  0  0999 V3000
M  V30 BEGIN CTAB
M  V30 COUNTS 24 25 0 0 1
M  V30 BEGIN ATOM
M  V30 1 C 8.687279 5.141932 -12.774357 0
M  V30 2 O 8.969189 6.527470 -12.691656 0
M  V30 3 C 9.105640 4.409302 -11.498361 0
M  V30 4 O 8.631483 5.131887 -10.374969 0
M  V30 5 C 10.242509 6.825794 -12.151697 0
M  V30 6 C 9.429559 6.117446 -9.821542 0
M  V30 7 C 9.434839 6.283967 -8.421714 0
M  V30 8 C 10.234842 6.969302 -10.634200 0
M  V30 9 C 8.567393 5.400465 -7.559073 0
M  V30 10 C 10.245101 7.270052 -7.826939 0
M  V30 11 C 11.051704 8.096739 -8.626387 0
M  V30 12 F 11.834852 9.036250 -8.049181 0
M  V30 13 C 11.046061 7.949778 -10.025204 0
M  V30 14 H 9.197178 4.711442 -13.637058 0
M  V30 15 H 7.616545 5.026146 -12.943928 0
M  V30 16 H 10.183391 4.253117 -11.452131 0
M  V30 17 H 8.664148 3.413485 -11.491808 0
M  V30 18 H 10.543323 7.769292 -12.589482 0
M  V30 19 H 11.006256 6.115782 -12.472072 0
M  V30 20 H 8.968206 4.390061 -7.568596 0
M  V30 21 H 8.516071 5.769350 -6.534725 0
M  V30 22 H 7.552767 5.369249 -7.955808 0
M  V30 23 H 10.248571 7.390820 -6.753894 0
M  V30 24 H 11.665629 8.589860 -10.633409 0
M  V30 END ATOM
M  V30 BEGIN BOND
M  V30 1 1 2 1
M  V30 2 1 3 1
M  V30 3 1 4 3
M  V30 4 1 5 2
M  V30 5 1 6 4
M  V30 6 2 7 6
M  V30 7 1 8 5
M  V30 8 1 8 6
M  V30 9 1 9 7
M  V30 10 1 10 7
M  V30 11 2 11 10
M  V30 12 1 12 11
M  V30 13 2 13 8
M  V30 14 1 13 11
M  V30 15 1 14 1
M  V30 16 1 15 1
M  V30 17 1 16 3
M  V30 18 1 17 3
M  V30 19 1 18 5
M  V30 20 1 19 5
M  V30 21 1 20 9
M  V30 22 1 21 9
M  V30 23 1 22 9
M  V30 24 1 23 10
M  V30 25 1 24 13
M  V30 END BOND
M  V30 END CTAB
M  END
>  <i_epik_Tot_Q>  (1) 
0

>  <i_epik_Tot_abs_Q>  (1) 
0

>  <i_i_glide_confnum>  (1) 
2

>  <i_i_glide_lignum>  (1) 
106

>  <i_i_glide_posenum>  (1) 
256

>  <i_i_glide_rotatable_bonds>  (1) 
0

>  <i_lp_mmshare_version>  (1) 
72125

>  <i_m_source_file_index>  (1) 
98

>  <i_f3d_flags>  (1) 
0

>  <num_sample>  (1) 
100

>  <b_lp_Chiralities_Consistent>  (1) 
1

>  <r_epik_Charging_Adjusted_Penalty>  (1) 
0

>  <r_epik_Ionization_Penalty>  (1) 
1.3261073421285308e-13

>  <r_epik_Ionization_Penalty_Charging>  (1) 
0

>  <r_epik_Ionization_Penalty_Neutral>  (1) 
1.3261073421285308e-13

>  <r_epik_State_Penalty>  (1) 
-0

>  <r_glide_ring_energy>  (1) 
1.7623001670689571

>  <r_i_docking_score>  (1) 
-4.7661469028984325

>  <r_i_glide_ecoul>  (1) 
0.21434606225294284

>  <r_i_glide_eff_state_penalty>  (1) 
-0

>  <r_i_glide_einternal>  (1) 
0

>  <r_i_glide_emodel>  (1) 
-23.828399996251072

>  <r_i_glide_emodel_strain>  (1) 
0

>  <r_i_glide_energy>  (1) 
-17.598242594798585

>  <r_i_glide_erotb>  (1) 
0

>  <r_i_glide_esite>  (1) 
0

>  <r_i_glide_evdw>  (1) 
-17.812588657051528

>  <r_i_glide_gscore>  (1) 
-4.7661469028984325

>  <r_i_glide_gscore_strain>  (1) 
0

>  <r_i_glide_hbond>  (1) 
0

>  <r_i_glide_ligand_efficiency>  (1) 
-0.36662668483834093

>  <r_i_glide_ligand_efficiency_ln>  (1) 
-1.3369465944650114

>  <r_i_glide_ligand_efficiency_sa>  (1) 
-0.8620620415044572

>  <r_i_glide_lipo>  (1) 
-0.73568255761731827

>  <r_i_glide_metal>  (1) 
-0

>  <r_i_glide_rewards>  (1) 
-3.1719868217664793

>  <r_lp_Energy>  (1) 
15.481259999999999

>  <r_lp_tautomer_probability>  (1) 
1

>  <s_epik_cmdline>  (1) 
J2VwaWtfcHl0aG9uJywgJy1waHQnLCAnMS4wJywgJy1waCcsICc3LjQnLCAnLXRuJywgJzgnLCAnLW1hJywgJzUwMCcsICctaW1hZScsICc8aW5maWxlLm1hZT4nLCAnLW9tYWUnLCAnPG91dGZpbGUubWFlPic=

>  <s_epik_input>  (1) 
TzFbQ0gyXVtDSDJdT1tDSDJdYyhjMTIpW2NIXWMoRilbY0hdYzJbQ0gzXQ==

>  <s_glide_docking_method>  (1) 
confgen

>  <s_i_glide_gridfile>  (1) 
gpcr_drd2_6luq_protein_autoprepared_prepared

>  <s_lp_Force_Field>  (1) 
S-OPLS

>  <s_lp_Variant>  (1) 
Pocket2Mol_97_num_sample_100-1

>  <s_m_source_file>  (1) 
generated__ligand_Pocket2Mol_2026-05-06_prepared.sdf

>  <GenAI_Model>  (1) 
Pocket2Mol

>  <Protein>  (1) 
generic_title2

$$$$
Pocket2Mol_40_num_sample_100
     RDKit          3D

  0  0  0  0  0  0  0  0  0  0999 V3000
M  V30 BEGIN CTAB
M  V30 COUNTS 14 14 0 0 1
M  V30 BEGIN ATOM
M  V30 1 C 9.834839 7.164747 -8.593543 0
M  V30 2 O 11.233448 7.369302 -8.729822 0
M  V30 3 C 11.815054 8.167177 -7.772951 0
M  V30 4 C 9.482633 6.983572 -7.117466 0
M  V30 5 O 9.874047 8.157118 -6.423964 0
M  V30 6 C 11.168554 8.569297 -6.650161 0
M  V30 7 C 11.834840 9.473906 -5.575859 0
M  V30 8 O 11.108962 9.813035 -4.616036 0 CHG=-1
M  V30 9 O 13.033006 9.769301 -5.778086 0
M  V30 10 H 9.538127 6.289348 -9.171182 0
M  V30 11 H 9.308751 8.024244 -9.009497 0
M  V30 12 H 12.830801 8.437041 -8.024337 0
M  V30 13 H 9.995927 6.117119 -6.698090 0
M  V30 14 H 8.415664 6.818725 -6.981757 0
M  V30 END ATOM
M  V30 BEGIN BOND
M  V30 1 1 2 1
M  V30 2 1 3 2
M  V30 3 1 4 1
M  V30 4 1 5 4
M  V30 5 2 6 3
M  V30 6 1 6 5
M  V30 7 1 7 6
M  V30 8 1 8 7
M  V30 9 2 9 7
M  V30 10 1 10 1
M  V30 11 1 11 1
M  V30 12 1 12 3
M  V30 13 1 13 4
M  V30 14 1 14 4
M  V30 END BOND
M  V30 END CTAB
M  END
>  <i_epik_Tot_Q>  (1) 
-1

>  <i_epik_Tot_abs_Q>  (1) 
1

>  <i_i_glide_confnum>  (1) 
1

>  <i_i_glide_lignum>  (1) 
45

>  <i_i_glide_posenum>  (1) 
118

>  <i_i_glide_rotatable_bonds>  (1) 
1

>  <i_lp_mmshare_version>  (1) 
72125

>  <i_m_source_file_index>  (1) 
41

>  <i_f3d_flags>  (1) 
0

>  <num_sample>  (1) 
100

>  <b_lp_Chiralities_Consistent>  (1) 
1

>  <r_epik_Charging_Adjusted_Penalty>  (1) 
1.9393830553820406e-05

>  <r_epik_Ionization_Penalty>  (1) 
1.9393830553820406e-05

>  <r_epik_Ionization_Penalty_Charging>  (1) 
1.9393830553820406e-05

>  <r_epik_Ionization_Penalty_Neutral>  (1) 
0

>  <r_epik_State_Penalty>  (1) 
-0

>  <r_glide_ring_energy>  (1) 
0

>  <r_i_docking_score>  (1) 
-4.7577257414986258

>  <r_i_glide_ecoul>  (1) 
-2.2514951069028499

>  <r_i_glide_eff_state_penalty>  (1) 
-0

>  <r_i_glide_einternal>  (1) 
0.16908858080477107

>  <r_i_glide_emodel>  (1) 
-25.377095791998919

>  <r_i_glide_emodel_strain>  (1) 
0

>  <r_i_glide_energy>  (1) 
-18.51316527140515

>  <r_i_glide_erotb>  (1) 
0

>  <r_i_glide_esite>  (1) 
0

>  <r_i_glide_evdw>  (1) 
-16.261670164502299

>  <r_i_glide_gscore>  (1) 
-4.7577257414986258

>  <r_i_glide_gscore_strain>  (1) 
0

>  <r_i_glide_hbond>  (1) 
0

>  <r_i_glide_ligand_efficiency>  (1) 
-0.52863619349984736

>  <r_i_glide_ligand_efficiency_ln>  (1) 
-1.4880799350862441

>  <r_i_glide_ligand_efficiency_sa>  (1) 
-1.0996075943787686

>  <r_i_glide_lipo>  (1) 
-0.46525130057141684

>  <r_i_glide_metal>  (1) 
-0

>  <r_i_glide_rewards>  (1) 
-3.1416666666666666

>  <r_lp_Energy>  (1) 
18.695968999999998

>  <r_lp_tautomer_probability>  (1) 
1

>  <s_epik_cmdline>  (1) 
J2VwaWtfcHl0aG9uJywgJy1waHQnLCAnMS4wJywgJy1waCcsICc3LjQnLCAnLXRuJywgJzgnLCAnLW1hJywgJzUwMCcsICctaW1hZScsICc8aW5maWxlLm1hZT4nLCAnLW9tYWUnLCAnPG91dGZpbGUubWFlPic=

>  <s_epik_input>  (1) 
TzFbQ0gyXVtDSDJdT1tDSF09QzFDKD1PKVtPSF0=

>  <s_glide_docking_method>  (1) 
confgen

>  <s_i_glide_gridfile>  (1) 
gpcr_drd2_6luq_protein_autoprepared_prepared

>  <s_lp_Force_Field>  (1) 
S-OPLS

>  <s_lp_Variant>  (1) 
Pocket2Mol_40_num_sample_100-1

>  <s_m_source_file>  (1) 
generated__ligand_Pocket2Mol_2026-05-06_prepared.sdf

>  <GenAI_Model>  (1) 
Pocket2Mol

>  <Protein>  (1) 
generic_title2

$$$$
Pocket2Mol_13_num_sample_100
     RDKit          3D

  0  0  0  0  0  0  0  0  0  0999 V3000
M  V30 BEGIN CTAB
M  V30 COUNTS 15 15 0 0 1
M  V30 BEGIN ATOM
M  V30 1 N 11.347169 6.905141 -4.691687 0
M  V30 2 C 11.834839 6.852683 -3.407572 0
M  V30 3 C 12.242486 8.135111 -3.060986 0
M  V30 4 C 11.434835 8.168403 -5.155820 0
M  V30 5 C 12.840573 8.566023 -1.754921 0
M  V30 6 N 11.024117 8.570121 -6.415431 0
M  V30 7 C 11.974993 8.970795 -4.209002 0
M  V30 8 H 11.849735 5.923098 -2.856139 0
M  V30 9 H 12.943033 7.711365 -1.091718 0
M  V30 10 H 13.834834 8.969295 -1.916625 0
M  V30 11 H 12.223188 9.324483 -1.272825 0
M  V30 12 H 11.093313 9.525078 -6.734547 0
M  V30 13 H 10.975311 6.118504 -5.206262 0
M  V30 14 H 12.160280 10.029412 -4.309804 0
M  V30 15 H 10.610766 7.937563 -7.087090 0
M  V30 END ATOM
M  V30 BEGIN BOND
M  V30 1 1 2 1
M  V30 2 2 3 2
M  V30 3 1 4 1
M  V30 4 1 5 3
M  V30 5 1 6 4
M  V30 6 1 7 3
M  V30 7 2 7 4
M  V30 8 1 8 2
M  V30 9 1 9 5
M  V30 10 1 10 5
M  V30 11 1 11 5
M  V30 12 1 12 6
M  V30 13 1 13 1
M  V30 14 1 14 7
M  V30 15 1 15 6
M  V30 END BOND
M  V30 END CTAB
M  END
>  <i_epik_Tot_Q>  (1) 
0

>  <i_epik_Tot_abs_Q>  (1) 
0

>  <i_i_glide_confnum>  (1) 
1

>  <i_i_glide_lignum>  (1) 
16

>  <i_i_glide_posenum>  (1) 
44

>  <i_i_glide_rotatable_bonds>  (1) 
0

>  <i_lp_mmshare_version>  (1) 
72125

>  <i_m_source_file_index>  (1) 
14

>  <i_f3d_flags>  (1) 
0

>  <num_sample>  (1) 
100

>  <b_lp_Chiralities_Consistent>  (1) 
1

>  <r_epik_Charging_Adjusted_Penalty>  (1) 
0

>  <r_epik_Ionization_Penalty>  (1) 
0.00031849139131666116

>  <r_epik_Ionization_Penalty_Charging>  (1) 
0

>  <r_epik_Ionization_Penalty_Neutral>  (1) 
0.00031849139131666116

>  <r_epik_State_Penalty>  (1) 
-0

>  <r_glide_ring_energy>  (1) 
0

>  <r_i_docking_score>  (1) 
-4.7571905692598575

>  <r_i_glide_ecoul>  (1) 
-1.8710803415740822

>  <r_i_glide_eff_state_penalty>  (1) 
-0

>  <r_i_glide_einternal>  (1) 
0

>  <r_i_glide_emodel>  (1) 
-23.908115914272749

>  <r_i_glide_emodel_strain>  (1) 
0

>  <r_i_glide_energy>  (1) 
-17.867980146460347

>  <r_i_glide_erotb>  (1) 
0

>  <r_i_glide_esite>  (1) 
0

>  <r_i_glide_evdw>  (1) 
-15.996899804886263

>  <r_i_glide_gscore>  (1) 
-4.7571905692598575

>  <r_i_glide_gscore_strain>  (1) 
0

>  <r_i_glide_hbond>  (1) 
0

>  <r_i_glide_ligand_efficiency>  (1) 
-0.67959865275140818

>  <r_i_glide_ligand_efficiency_ln>  (1) 
-1.6148457789133115

>  <r_i_glide_ligand_efficiency_sa>  (1) 
-1.3000254546182735

>  <r_i_glide_lipo>  (1) 
-1.3254365910321975

>  <r_i_glide_metal>  (1) 
-0

>  <r_i_glide_rewards>  (1) 
-2.3512469367472346

>  <r_lp_Energy>  (1) 
-3.18065

>  <r_lp_tautomer_probability>  (1) 
1

>  <s_epik_cmdline>  (1) 
J2VwaWtfcHl0aG9uJywgJy1waHQnLCAnMS4wJywgJy1waCcsICc3LjQnLCAnLXRuJywgJzgnLCAnLW1hJywgJzUwMCcsICctaW1hZScsICc8aW5maWxlLm1hZT4nLCAnLW9tYWUnLCAnPG91dGZpbGUubWFlPic=

>  <s_epik_input>  (1) 
W05IMl1DKFtDSDJdMSk9TltDSF09QzFbQ0gzXQ==

>  <s_glide_docking_method>  (1) 
confgen

>  <s_i_glide_gridfile>  (1) 
gpcr_drd2_6luq_protein_autoprepared_prepared

>  <s_lp_Force_Field>  (1) 
S-OPLS

>  <s_lp_Variant>  (1) 
Pocket2Mol_13_num_sample_100-1

>  <s_m_source_file>  (1) 
generated__ligand_Pocket2Mol_2026-05-06_prepared.sdf

>  <GenAI_Model>  (1) 
Pocket2Mol

>  <Protein>  (1) 
generic_title2

$$$$
Pocket2Mol_24_num_sample_100
     RDKit          3D

  0  0  0  0  0  0  0  0  0  0999 V3000
M  V30 BEGIN CTAB
M  V30 COUNTS 15 16 0 0 1
M  V30 BEGIN ATOM
M  V30 1 C 11.034839 7.446035 -6.074544 0
M  V30 2 O 9.657247 7.672507 -6.358635 0
M  V30 3 C 9.483409 8.168507 -7.684245 0 CFG=2
M  V30 4 C 10.032106 7.309307 -8.797964 0 CFG=1
M  V30 5 O 9.434897 7.638969 -10.031239 0
M  V30 6 C 11.834534 8.229664 -7.123208 0
M  V30 7 C 10.855954 8.450043 -8.222616 0 CFG=2
M  V30 8 H 11.275899 7.736414 -5.052323 0
M  V30 9 H 11.238362 6.380304 -6.178744 0
M  V30 10 H 8.665646 8.874377 -7.838817 0
M  V30 11 H 10.273800 6.258736 -8.632114 0
M  V30 12 H 8.491115 7.769301 -9.864657 0
M  V30 13 H 12.137610 9.199431 -6.726585 0
M  V30 14 H 12.717318 7.700591 -7.478487 0
M  V30 15 H 11.033116 9.317336 -8.862128 0
M  V30 END ATOM
M  V30 BEGIN BOND
M  V30 1 1 2 1
M  V30 2 1 3 2
M  V30 3 1 4 3
M  V30 4 1 5 4
M  V30 5 1 6 1
M  V30 6 1 7 3
M  V30 7 1 7 4
M  V30 8 1 7 6
M  V30 9 1 8 1
M  V30 10 1 9 1
M  V30 11 1 3 10 CFG=3
M  V30 12 1 4 11 CFG=1
M  V30 13 1 12 5
M  V30 14 1 13 6
M  V30 15 1 14 6
M  V30 16 1 7 15 CFG=3
M  V30 END BOND
M  V30 END CTAB
M  END
>  <i_epik_Tot_Q>  (1) 
0

>  <i_epik_Tot_abs_Q>  (1) 
0

>  <i_i_glide_confnum>  (1) 
1

>  <i_i_glide_lignum>  (1) 
28

>  <i_i_glide_posenum>  (1) 
380

>  <i_i_glide_rotatable_bonds>  (1) 
1

>  <i_lp_mmshare_version>  (1) 
72125

>  <i_m_source_file_index>  (1) 
25

>  <i_f3d_flags>  (1) 
0

>  <num_sample>  (1) 
100

>  <b_lp_Chiralities_Consistent>  (1) 
1

>  <r_epik_Charging_Adjusted_Penalty>  (1) 
0

>  <r_epik_Ionization_Penalty>  (1) 
4.3639151522347116e-08

>  <r_epik_Ionization_Penalty_Charging>  (1) 
0

>  <r_epik_Ionization_Penalty_Neutral>  (1) 
4.3639151522347116e-08

>  <r_epik_State_Penalty>  (1) 
-0

>  <r_glide_ring_energy>  (1) 
0

>  <r_i_docking_score>  (1) 
-4.7553111250438693

>  <r_i_glide_ecoul>  (1) 
-6.9294162543450994

>  <r_i_glide_eff_state_penalty>  (1) 
-0

>  <r_i_glide_einternal>  (1) 
0.46121670946123217

>  <r_i_glide_emodel>  (1) 
-24.398041962101264

>  <r_i_glide_emodel_strain>  (1) 
0.12370130658659662

>  <r_i_glide_energy>  (1) 
-18.280198637901599

>  <r_i_glide_erotb>  (1) 
0

>  <r_i_glide_esite>  (1) 
0

>  <r_i_glide_evdw>  (1) 
-11.350782383556501

>  <r_i_glide_gscore>  (1) 
-4.7553111250438693

>  <r_i_glide_gscore_strain>  (1) 
0

>  <r_i_glide_hbond>  (1) 
-0.16

>  <r_i_glide_ligand_efficiency>  (1) 
-0.67933016072055274

>  <r_i_glide_ligand_efficiency_ln>  (1) 
-1.6142077946840265

>  <r_i_glide_ligand_efficiency_sa>  (1) 
-1.2995118478401242

>  <r_i_glide_lipo>  (1) 
-0.48961555551394575

>  <r_i_glide_metal>  (1) 
-0

>  <r_i_glide_rewards>  (1) 
-2.4987440122003339

>  <r_lp_Energy>  (1) 
3.2309049999999999

>  <r_lp_tautomer_probability>  (1) 
1

>  <s_epik_cmdline>  (1) 
J2VwaWtfcHl0aG9uJywgJy1waHQnLCAnMS4wJywgJy1waCcsICc3LjQnLCAnLXRuJywgJzgnLCAnLW1hJywgJzUwMCcsICctaW1hZScsICc8aW5maWxlLm1hZT4nLCAnLW9tYWUnLCAnPG91dGZpbGUubWFlPic=

>  <s_epik_input>  (1) 
TzFbQ0gyXVtDSDJdW0NIXShbQ0BIXTEyKVtDQEBIXTJbT0hd

>  <s_glide_docking_method>  (1) 
confgen

>  <s_i_glide_gridfile>  (1) 
gpcr_drd2_6luq_protein_autoprepared_prepared

>  <s_lp_Force_Field>  (1) 
S-OPLS

>  <s_lp_Variant>  (1) 
Pocket2Mol_24_num_sample_100-1

>  <s_m_source_file>  (1) 
generated__ligand_Pocket2Mol_2026-05-06_prepared.sdf

>  <GenAI_Model>  (1) 
Pocket2Mol

>  <Protein>  (1) 
generic_title2

$$$$
Pocket2Mol_16_num_sample_100
     RDKit          3D

  0  0  0  0  0  0  0  0  0  0999 V3000
M  V30 BEGIN CTAB
M  V30 COUNTS 19 19 0 0 1
M  V30 BEGIN ATOM
M  V30 1 C 10.686355 6.569426 -5.754248 0
M  V30 2 O 11.434806 7.726491 -5.393141 0
M  V30 3 C 11.225473 8.768046 -6.337101 0
M  V30 4 C 11.415732 10.102219 -5.601768 0
M  V30 5 C 12.234838 8.645025 -7.492894 0
M  V30 6 C 9.701146 7.002069 -6.840012 0
M  V30 7 C 9.789302 8.513099 -6.801604 0
M  V30 8 H 11.353942 5.787573 -6.118794 0
M  V30 9 H 10.170716 6.186464 -4.873242 0
M  V30 10 H 11.317489 10.946242 -6.283424 0
M  V30 11 H 12.406960 10.159458 -5.152185 0
M  V30 12 H 10.685519 10.226716 -4.801489 0
M  V30 13 H 12.001343 9.358143 -8.284751 0
M  V30 14 H 13.248374 8.863042 -7.156900 0
M  V30 15 H 12.236772 7.649343 -7.935780 0
M  V30 16 H 10.023278 6.629238 -7.812976 0
M  V30 17 H 8.687301 6.638917 -6.664673 0
M  V30 18 H 9.076779 8.886606 -6.067643 0
M  V30 19 H 9.547200 8.969303 -7.761752 0
M  V30 END ATOM
M  V30 BEGIN BOND
M  V30 1 1 2 1
M  V30 2 1 3 2
M  V30 3 1 4 3
M  V30 4 1 5 3
M  V30 5 1 6 1
M  V30 6 1 7 3
M  V30 7 1 7 6
M  V30 8 1 8 1
M  V30 9 1 9 1
M  V30 10 1 10 4
M  V30 11 1 11 4
M  V30 12 1 12 4
M  V30 13 1 13 5
M  V30 14 1 14 5
M  V30 15 1 15 5
M  V30 16 1 16 6
M  V30 17 1 17 6
M  V30 18 1 18 7
M  V30 19 1 19 7
M  V30 END BOND
M  V30 END CTAB
M  END
>  <i_epik_Tot_Q>  (1) 
0

>  <i_epik_Tot_abs_Q>  (1) 
0

>  <i_i_glide_confnum>  (1) 
4

>  <i_i_glide_lignum>  (1) 
19

>  <i_i_glide_posenum>  (1) 
44

>  <i_i_glide_rotatable_bonds>  (1) 
0

>  <i_lp_mmshare_version>  (1) 
72125

>  <i_m_source_file_index>  (1) 
17

>  <i_f3d_flags>  (1) 
0

>  <num_sample>  (1) 
100

>  <b_lp_Chiralities_Consistent>  (1) 
1

>  <r_epik_Charging_Adjusted_Penalty>  (1) 
0

>  <r_epik_Ionization_Penalty>  (1) 
1.3889264151150229e-11

>  <r_epik_Ionization_Penalty_Charging>  (1) 
0

>  <r_epik_Ionization_Penalty_Neutral>  (1) 
1.3889264151150229e-11

>  <r_epik_State_Penalty>  (1) 
-0

>  <r_glide_ring_energy>  (1) 
0.26153960478789529

>  <r_i_docking_score>  (1) 
-4.7539904786882188

>  <r_i_glide_ecoul>  (1) 
-0.71807059670571383

>  <r_i_glide_eff_state_penalty>  (1) 
-0

>  <r_i_glide_einternal>  (1) 
0

>  <r_i_glide_emodel>  (1) 
-21.733605019237729

>  <r_i_glide_emodel_strain>  (1) 
0.49391134849199858

>  <r_i_glide_energy>  (1) 
-17.123775600319679

>  <r_i_glide_erotb>  (1) 
0

>  <r_i_glide_esite>  (1) 
0

>  <r_i_glide_evdw>  (1) 
-16.405705003613964

>  <r_i_glide_gscore>  (1) 
-4.7539904786882188

>  <r_i_glide_gscore_strain>  (1) 
0

>  <r_i_glide_hbond>  (1) 
0

>  <r_i_glide_ligand_efficiency>  (1) 
-0.67914149695545978

>  <r_i_glide_ligand_efficiency_ln>  (1) 
-1.6137594964370232

>  <r_i_glide_ligand_efficiency_sa>  (1) 
-1.2991509470408187

>  <r_i_glide_lipo>  (1) 
-1.1613241340431979

>  <r_i_glide_metal>  (1) 
-0

>  <r_i_glide_rewards>  (1) 
-2.6646705049584662

>  <r_lp_Energy>  (1) 
0.043719999999999995

>  <r_lp_tautomer_probability>  (1) 
1

>  <s_epik_cmdline>  (1) 
J2VwaWtfcHl0aG9uJywgJy1waHQnLCAnMS4wJywgJy1waCcsICc3LjQnLCAnLXRuJywgJzgnLCAnLW1hJywgJzUwMCcsICctaW1hZScsICc8aW5maWxlLm1hZT4nLCAnLW9tYWUnLCAnPG91dGZpbGUubWFlPic=

>  <s_epik_input>  (1) 
W0NIMl0xW0NIMl1bQ0gyXU9DMShbQ0gzXSlbQ0gzXQ==

>  <s_glide_docking_method>  (1) 
confgen

>  <s_i_glide_gridfile>  (1) 
gpcr_drd2_6luq_protein_autoprepared_prepared

>  <s_lp_Force_Field>  (1) 
S-OPLS

>  <s_lp_Variant>  (1) 
Pocket2Mol_16_num_sample_100-1

>  <s_m_source_file>  (1) 
generated__ligand_Pocket2Mol_2026-05-06_prepared.sdf

>  <GenAI_Model>  (1) 
Pocket2Mol

>  <Protein>  (1) 
generic_title2

$$$$
Pocket2Mol_13_num_sample_100
     RDKit          3D

  0  0  0  0  0  0  0  0  0  0999 V3000
M  V30 BEGIN CTAB
M  V30 COUNTS 15 15 0 0 1
M  V30 BEGIN ATOM
M  V30 1 N 9.434840 7.508562 -8.153770 0
M  V30 2 C 9.434839 7.002204 -6.876604 0
M  V30 3 C 10.743123 7.027581 -6.414082 0
M  V30 4 C 10.689894 7.847479 -8.504435 0
M  V30 5 C 11.231991 6.569309 -5.068197 0
M  V30 6 N 11.042784 8.386373 -9.728588 0
M  V30 7 C 11.539753 7.581383 -7.485510 0
M  V30 8 H 8.516314 6.671449 -6.411518 0
M  V30 9 H 10.405888 6.187721 -4.466881 0
M  V30 10 H 11.961059 5.769367 -5.189527 0
M  V30 11 H 11.701434 7.393383 -4.531392 0
M  V30 12 H 11.991925 8.638435 -9.963874 0
M  V30 13 H 8.601788 7.614734 -8.740494 0
M  V30 14 H 12.605477 7.754211 -7.491668 0
M  V30 15 H 10.370761 8.562536 -10.461488 0
M  V30 END ATOM
M  V30 BEGIN BOND
M  V30 1 1 2 1
M  V30 2 2 3 2
M  V30 3 1 4 1
M  V30 4 1 5 3
M  V30 5 1 6 4
M  V30 6 1 7 3
M  V30 7 2 7 4
M  V30 8 1 8 2
M  V30 9 1 9 5
M  V30 10 1 10 5
M  V30 11 1 11 5
M  V30 12 1 12 6
M  V30 13 1 13 1
M  V30 14 1 14 7
M  V30 15 1 15 6
M  V30 END BOND
M  V30 END CTAB
M  END
>  <i_epik_Tot_Q>  (1) 
0

>  <i_epik_Tot_abs_Q>  (1) 
0

>  <i_i_glide_confnum>  (1) 
1

>  <i_i_glide_lignum>  (1) 
16

>  <i_i_glide_posenum>  (1) 
89

>  <i_i_glide_rotatable_bonds>  (1) 
0

>  <i_lp_mmshare_version>  (1) 
72125

>  <i_m_source_file_index>  (1) 
14

>  <i_f3d_flags>  (1) 
0

>  <num_sample>  (1) 
100

>  <b_lp_Chiralities_Consistent>  (1) 
1

>  <r_epik_Charging_Adjusted_Penalty>  (1) 
0

>  <r_epik_Ionization_Penalty>  (1) 
0.00031849139131666116

>  <r_epik_Ionization_Penalty_Charging>  (1) 
0

>  <r_epik_Ionization_Penalty_Neutral>  (1) 
0.00031849139131666116

>  <r_epik_State_Penalty>  (1) 
-0

>  <r_glide_ring_energy>  (1) 
0

>  <r_i_docking_score>  (1) 
-4.7501866083744071

>  <r_i_glide_ecoul>  (1) 
-3.4642044092770226

>  <r_i_glide_eff_state_penalty>  (1) 
-0

>  <r_i_glide_einternal>  (1) 
0

>  <r_i_glide_emodel>  (1) 
-23.662813039957662

>  <r_i_glide_emodel_strain>  (1) 
0

>  <r_i_glide_energy>  (1) 
-17.6315700995493

>  <r_i_glide_erotb>  (1) 
0

>  <r_i_glide_esite>  (1) 
-0.10000000000000001

>  <r_i_glide_evdw>  (1) 
-14.167365690272279

>  <r_i_glide_gscore>  (1) 
-4.7501866083744071

>  <r_i_glide_gscore_strain>  (1) 
0

>  <r_i_glide_hbond>  (1) 
-0.16

>  <r_i_glide_ligand_efficiency>  (1) 
-0.67859808691062962

>  <r_i_glide_ligand_efficiency_ln>  (1) 
-1.6124682587137575

>  <r_i_glide_ligand_efficiency_sa>  (1) 
-1.2981114410210313

>  <r_i_glide_lipo>  (1) 
-0.71218766246924026

>  <r_i_glide_metal>  (1) 
-0

>  <r_i_glide_rewards>  (1) 
-2.5499999999999998

>  <r_lp_Energy>  (1) 
-3.18065

>  <r_lp_tautomer_probability>  (1) 
1

>  <s_epik_cmdline>  (1) 
J2VwaWtfcHl0aG9uJywgJy1waHQnLCAnMS4wJywgJy1waCcsICc3LjQnLCAnLXRuJywgJzgnLCAnLW1hJywgJzUwMCcsICctaW1hZScsICc8aW5maWxlLm1hZT4nLCAnLW9tYWUnLCAnPG91dGZpbGUubWFlPic=

>  <s_epik_input>  (1) 
W05IMl1DKFtDSDJdMSk9TltDSF09QzFbQ0gzXQ==

>  <s_glide_docking_method>  (1) 
confgen

>  <s_i_glide_gridfile>  (1) 
gpcr_drd2_6luq_protein_autoprepared_prepared

>  <s_lp_Force_Field>  (1) 
S-OPLS

>  <s_lp_Variant>  (1) 
Pocket2Mol_13_num_sample_100-1

>  <s_m_source_file>  (1) 
generated__ligand_Pocket2Mol_2026-05-06_prepared.sdf

>  <GenAI_Model>  (1) 
Pocket2Mol

>  <Protein>  (1) 
generic_title2

$$$$
Pocket2Mol_30_num_sample_100
     RDKit          3D

  0  0  0  0  0  0  0  0  0  0999 V3000
M  V30 BEGIN CTAB
M  V30 COUNTS 14 14 0 0 1
M  V30 BEGIN ATOM
M  V30 1 N 11.024436 7.581696 -7.027181 0
M  V30 2 C 11.433605 8.866084 -7.039618 0
M  V30 3 C 11.849227 9.527631 -5.881516 0
M  V30 4 C 11.834832 8.795416 -4.695046 0
M  V30 5 O 12.234486 9.369640 -3.505200 0
M  V30 6 C 11.034855 6.992520 -5.821548 0
M  V30 7 N 11.434838 7.502852 -4.644967 0
M  V30 8 C 12.363858 8.552010 -2.346079 0
M  V30 9 H 11.426397 9.370090 -7.993876 0
M  V30 10 H 12.171988 10.557501 -5.904815 0
M  V30 11 H 10.700930 5.966678 -5.797905 0
M  V30 12 H 12.638273 9.174255 -1.495262 0
M  V30 13 H 11.434845 8.049042 -2.083831 0
M  V30 14 H 13.143240 7.801984 -2.483492 0
M  V30 END ATOM
M  V30 BEGIN BOND
M  V30 1 1 2 1
M  V30 2 2 3 2
M  V30 3 1 4 3
M  V30 4 1 5 4
M  V30 5 2 6 1
M  V30 6 2 7 4
M  V30 7 1 7 6
M  V30 8 1 8 5
M  V30 9 1 9 2
M  V30 10 1 10 3
M  V30 11 1 11 6
M  V30 12 1 12 8
M  V30 13 1 13 8
M  V30 14 1 14 8
M  V30 END BOND
M  V30 END CTAB
M  END
>  <i_epik_Tot_Q>  (1) 
0

>  <i_epik_Tot_abs_Q>  (1) 
0

>  <i_i_glide_confnum>  (1) 
1

>  <i_i_glide_lignum>  (1) 
34

>  <i_i_glide_posenum>  (1) 
280

>  <i_i_glide_rotatable_bonds>  (1) 
1

>  <i_lp_mmshare_version>  (1) 
72125

>  <i_m_source_file_index>  (1) 
31

>  <i_f3d_flags>  (1) 
0

>  <num_sample>  (1) 
100

>  <b_lp_Chiralities_Consistent>  (1) 
1

>  <r_epik_Charging_Adjusted_Penalty>  (1) 
0

>  <r_epik_Ionization_Penalty>  (1) 
8.6638422661064201e-06

>  <r_epik_Ionization_Penalty_Charging>  (1) 
0

>  <r_epik_Ionization_Penalty_Neutral>  (1) 
8.6638422661064201e-06

>  <r_epik_State_Penalty>  (1) 
-0

>  <r_glide_ring_energy>  (1) 
0

>  <r_i_docking_score>  (1) 
-4.7383483106045876

>  <r_i_glide_ecoul>  (1) 
-0.12897255387194553

>  <r_i_glide_eff_state_penalty>  (1) 
-0

>  <r_i_glide_einternal>  (1) 
0.061701078157501921

>  <r_i_glide_emodel>  (1) 
-24.387392769370599

>  <r_i_glide_emodel_strain>  (1) 
0

>  <r_i_glide_energy>  (1) 
-18.431076023100015

>  <r_i_glide_erotb>  (1) 
0

>  <r_i_glide_esite>  (1) 
0

>  <r_i_glide_evdw>  (1) 
-18.302103469228069

>  <r_i_glide_gscore>  (1) 
-4.7383483106045876

>  <r_i_glide_gscore_strain>  (1) 
0

>  <r_i_glide_hbond>  (1) 
0

>  <r_i_glide_ligand_efficiency>  (1) 
-0.59229353882557345

>  <r_i_glide_ligand_efficiency_ln>  (1) 
-1.5387037703010975

>  <r_i_glide_ligand_efficiency_sa>  (1) 
-1.1845870776511471

>  <r_i_glide_lipo>  (1) 
-1.1353326863156623

>  <r_i_glide_metal>  (1) 
-0

>  <r_i_glide_rewards>  (1) 
-2.6685645677467305

>  <r_lp_Energy>  (1) 
14.393509

>  <r_lp_tautomer_probability>  (1) 
1

>  <s_epik_cmdline>  (1) 
J2VwaWtfcHl0aG9uJywgJy1waHQnLCAnMS4wJywgJy1waCcsICc3LjQnLCAnLXRuJywgJzgnLCAnLW1hJywgJzUwMCcsICctaW1hZScsICc8aW5maWxlLm1hZT4nLCAnLW9tYWUnLCAnPG91dGZpbGUubWFlPic=

>  <s_epik_input>  (1) 
bjFbY0hdbltjSF1bY0hdYzFPW0NIM10=

>  <s_glide_docking_method>  (1) 
confgen

>  <s_i_glide_gridfile>  (1) 
gpcr_drd2_6luq_protein_autoprepared_prepared

>  <s_lp_Force_Field>  (1) 
S-OPLS

>  <s_lp_Variant>  (1) 
Pocket2Mol_30_num_sample_100-1

>  <s_m_source_file>  (1) 
generated__ligand_Pocket2Mol_2026-05-06_prepared.sdf

>  <GenAI_Model>  (1) 
Pocket2Mol

>  <Protein>  (1) 
generic_title2

$$$$
Pocket2Mol_27_num_sample_100
     RDKit          3D

  0  0  0  0  0  0  0  0  0  0999 V3000
M  V30 BEGIN CTAB
M  V30 COUNTS 15 15 0 0 1
M  V30 BEGIN ATOM
M  V30 1 C 12.054508 8.442671 -8.707306 0
M  V30 2 O 12.215709 8.969289 -7.363786 0
M  V30 3 C 11.207300 8.834685 -6.415424 0
M  V30 4 C 11.533290 9.487210 -5.091669 0
M  V30 5 C 10.750280 7.708908 -8.929468 0
M  V30 6 C 10.062922 8.178090 -6.691669 0
M  V30 7 C 9.834839 7.596758 -7.976034 0
M  V30 8 H 12.120579 9.267872 -9.417052 0
M  V30 9 H 12.884236 7.769312 -8.921054 0
M  V30 10 H 11.059531 8.948953 -4.272709 0
M  V30 11 H 12.610169 9.492916 -4.920923 0
M  V30 12 H 11.175303 10.517078 -5.082202 0
M  V30 13 H 10.581837 7.274243 -9.903787 0
M  V30 14 H 9.301703 8.092135 -5.929776 0
M  V30 15 H 8.912170 7.067749 -8.172690 0
M  V30 END ATOM
M  V30 BEGIN BOND
M  V30 1 1 2 1
M  V30 2 1 3 2
M  V30 3 1 4 3
M  V30 4 1 5 1
M  V30 5 2 6 3
M  V30 6 2 7 5
M  V30 7 1 7 6
M  V30 8 1 8 1
M  V30 9 1 9 1
M  V30 10 1 10 4
M  V30 11 1 11 4
M  V30 12 1 12 4
M  V30 13 1 13 5
M  V30 14 1 14 6
M  V30 15 1 15 7
M  V30 END BOND
M  V30 END CTAB
M  END
>  <i_epik_Tot_Q>  (1) 
0

>  <i_epik_Tot_abs_Q>  (1) 
0

>  <i_i_glide_confnum>  (1) 
1

>  <i_i_glide_lignum>  (1) 
31

>  <i_i_glide_posenum>  (1) 
156

>  <i_i_glide_rotatable_bonds>  (1) 
0

>  <i_lp_mmshare_version>  (1) 
72125

>  <i_m_source_file_index>  (1) 
28

>  <i_f3d_flags>  (1) 
0

>  <num_sample>  (1) 
100

>  <b_lp_Chiralities_Consistent>  (1) 
1

>  <r_epik_Charging_Adjusted_Penalty>  (1) 
0

>  <r_epik_Ionization_Penalty>  (1) 
0

>  <r_epik_Ionization_Penalty_Charging>  (1) 
0

>  <r_epik_Ionization_Penalty_Neutral>  (1) 
0

>  <r_epik_State_Penalty>  (1) 
-0

>  <r_glide_ring_energy>  (1) 
0

>  <r_i_docking_score>  (1) 
-4.7321335103315478

>  <r_i_glide_ecoul>  (1) 
-0.69044703696922005

>  <r_i_glide_eff_state_penalty>  (1) 
-0

>  <r_i_glide_einternal>  (1) 
0

>  <r_i_glide_emodel>  (1) 
-22.795583173979459

>  <r_i_glide_emodel_strain>  (1) 
0

>  <r_i_glide_energy>  (1) 
-17.577267820250558

>  <r_i_glide_erotb>  (1) 
0

>  <r_i_glide_esite>  (1) 
0

>  <r_i_glide_evdw>  (1) 
-16.886820783281337

>  <r_i_glide_gscore>  (1) 
-4.7321335103315478

>  <r_i_glide_gscore_strain>  (1) 
0

>  <r_i_glide_hbond>  (1) 
0

>  <r_i_glide_ligand_efficiency>  (1) 
-0.6760190729045068

>  <r_i_glide_ligand_efficiency_ln>  (1) 
-1.6063400683992468

>  <r_i_glide_ligand_efficiency_sa>  (1) 
-1.2931779647079122

>  <r_i_glide_lipo>  (1) 
-1.0342254156220978

>  <r_i_glide_metal>  (1) 
-0

>  <r_i_glide_rewards>  (1) 
-2.75

>  <r_lp_Energy>  (1) 
4.7929789999999999

>  <r_lp_tautomer_probability>  (1) 
1

>  <s_epik_cmdline>  (1) 
J2VwaWtfcHl0aG9uJywgJy1waHQnLCAnMS4wJywgJy1waCcsICc3LjQnLCAnLXRuJywgJzgnLCAnLW1hJywgJzUwMCcsICctaW1hZScsICc8aW5maWxlLm1hZT4nLCAnLW9tYWUnLCAnPG91dGZpbGUubWFlPic=

>  <s_epik_input>  (1) 
TzFbQ0gyXVtDSF09W0NIXVtDSF09QzFbQ0gzXQ==

>  <s_glide_docking_method>  (1) 
confgen

>  <s_i_glide_gridfile>  (1) 
gpcr_drd2_6luq_protein_autoprepared_prepared

>  <s_lp_Force_Field>  (1) 
S-OPLS

>  <s_lp_Variant>  (1) 
Pocket2Mol_27_num_sample_100-1

>  <s_m_source_file>  (1) 
generated__ligand_Pocket2Mol_2026-05-06_prepared.sdf

>  <GenAI_Model>  (1) 
Pocket2Mol

>  <Protein>  (1) 
generic_title2

$$$$
Pocket2Mol_31_num_sample_100
     RDKit          3D

  0  0  0  0  0  0  0  0  0  0999 V3000
M  V30 BEGIN CTAB
M  V30 COUNTS 20 21 0 0 1
M  V30 BEGIN ATOM
M  V30 1 C 9.128176 7.393430 -7.004598 0
M  V30 2 O 9.835264 8.569384 -6.605294 0
M  V30 3 C 11.133860 8.605044 -7.207124 0 CFG=2
M  V30 4 C 12.085678 9.387980 -6.309208 0
M  V30 5 C 11.070207 8.927966 -8.710938 0
M  V30 6 C 10.209487 6.332485 -7.158525 0
M  V30 7 C 11.656965 7.550280 -9.006728 0
M  V30 8 C 11.417069 7.139864 -7.544986 0 CFG=1
M  V30 9 H 8.358356 7.110940 -6.291641 0
M  V30 10 H 8.634843 7.571781 -7.956153 0
M  V30 11 H 13.105877 9.368984 -6.692997 0
M  V30 12 H 12.104624 8.977027 -5.299013 0
M  V30 13 H 11.784583 10.433221 -6.234621 0
M  V30 14 H 10.055427 9.048095 -9.093860 0
M  V30 15 H 11.716572 9.748711 -9.025228 0
M  V30 16 H 10.379619 5.838680 -6.202079 0
M  V30 17 H 9.942725 5.570753 -7.891315 0
M  V30 18 H 11.091091 6.970235 -9.736891 0
M  V30 19 H 12.714512 7.603838 -9.269222 0
M  V30 20 H 12.331363 6.766844 -7.091603 0
M  V30 END ATOM
M  V30 BEGIN BOND
M  V30 1 1 2 1
M  V30 2 1 3 2
M  V30 3 1 3 4 CFG=1
M  V30 4 1 5 3
M  V30 5 1 6 1
M  V30 6 1 7 5
M  V30 7 1 8 3
M  V30 8 1 8 6
M  V30 9 1 8 7
M  V30 10 1 9 1
M  V30 11 1 10 1
M  V30 12 1 11 4
M  V30 13 1 12 4
M  V30 14 1 13 4
M  V30 15 1 14 5
M  V30 16 1 15 5
M  V30 17 1 16 6
M  V30 18 1 17 6
M  V30 19 1 18 7
M  V30 20 1 19 7
M  V30 21 1 8 20 CFG=1
M  V30 END BOND
M  V30 END CTAB
M  END
>  <i_epik_Tot_Q>  (1) 
0

>  <i_epik_Tot_abs_Q>  (1) 
0

>  <i_i_glide_confnum>  (1) 
1

>  <i_i_glide_lignum>  (1) 
35

>  <i_i_glide_posenum>  (1) 
50

>  <i_i_glide_rotatable_bonds>  (1) 
0

>  <i_lp_mmshare_version>  (1) 
72125

>  <i_m_source_file_index>  (1) 
32

>  <i_f3d_flags>  (1) 
0

>  <num_sample>  (1) 
100

>  <b_lp_Chiralities_Consistent>  (1) 
1

>  <r_epik_Charging_Adjusted_Penalty>  (1) 
0

>  <r_epik_Ionization_Penalty>  (1) 
2.3587344998035955e-11

>  <r_epik_Ionization_Penalty_Charging>  (1) 
0

>  <r_epik_Ionization_Penalty_Neutral>  (1) 
2.3587344998035955e-11

>  <r_epik_State_Penalty>  (1) 
-0

>  <r_glide_ring_energy>  (1) 
0

>  <r_i_docking_score>  (1) 
-4.7307916439214877

>  <r_i_glide_ecoul>  (1) 
-0.83243303644085576

>  <r_i_glide_eff_state_penalty>  (1) 
-0

>  <r_i_glide_einternal>  (1) 
0

>  <r_i_glide_emodel>  (1) 
-18.473769191398041

>  <r_i_glide_emodel_strain>  (1) 
0

>  <r_i_glide_energy>  (1) 
-14.022113764422445

>  <r_i_glide_erotb>  (1) 
0

>  <r_i_glide_esite>  (1) 
0

>  <r_i_glide_evdw>  (1) 
-13.189680727981589

>  <r_i_glide_gscore>  (1) 
-4.7307916439214877

>  <r_i_glide_gscore_strain>  (1) 
0

>  <r_i_glide_hbond>  (1) 
0

>  <r_i_glide_ligand_efficiency>  (1) 
-0.59134895549018596

>  <r_i_glide_ligand_efficiency_ln>  (1) 
-1.5362498621554739

>  <r_i_glide_ligand_efficiency_sa>  (1) 
-1.1826979109803721

>  <r_i_glide_lipo>  (1) 
-1.14644265205628

>  <r_i_glide_metal>  (1) 
-0

>  <r_i_glide_rewards>  (1) 
-2.7999999999999998

>  <r_lp_Energy>  (1) 
15.613807

>  <r_lp_tautomer_probability>  (1) 
1

>  <s_epik_cmdline>  (1) 
J2VwaWtfcHl0aG9uJywgJy1waHQnLCAnMS4wJywgJy1waCcsICc3LjQnLCAnLXRuJywgJzgnLCAnLW1hJywgJzUwMCcsICctaW1hZScsICc8aW5maWxlLm1hZT4nLCAnLW9tYWUnLCAnPG91dGZpbGUubWFlPic=

>  <s_epik_input>  (1) 
TzFbQ0gyXVtDSDJdW0NASF0oW0NAXTEyW0NIM10pW0NIMl1bQ0gyXTI=

>  <s_glide_docking_method>  (1) 
confgen

>  <s_i_glide_gridfile>  (1) 
gpcr_drd2_6luq_protein_autoprepared_prepared

>  <s_lp_Force_Field>  (1) 
S-OPLS

>  <s_lp_Variant>  (1) 
Pocket2Mol_31_num_sample_100-1

>  <s_m_source_file>  (1) 
generated__ligand_Pocket2Mol_2026-05-06_prepared.sdf

>  <GenAI_Model>  (1) 
Pocket2Mol

>  <Protein>  (1) 
generic_title2

$$$$
Pocket2Mol_72_num_sample_100
     RDKit          3D

  0  0  0  0  0  0  0  0  0  0999 V3000
M  V30 BEGIN CTAB
M  V30 COUNTS 18 19 0 0 1
M  V30 BEGIN ATOM
M  V30 1 C 11.034921 8.562417 -6.000928 0
M  V30 2 O 11.487864 8.672006 -7.342541 0
M  V30 3 C 10.814056 7.886023 -8.252269 0
M  V30 4 C 10.924510 8.162690 -9.628327 0
M  V30 5 C 10.897877 7.079527 -5.645727 0
M  V30 6 C 10.010803 6.798281 -7.812210 0
M  V30 7 O 9.896120 6.512609 -6.470441 0
M  V30 8 C 10.234693 7.369213 -10.566181 0
M  V30 9 C 9.325347 6.006904 -8.754718 0
M  V30 10 F 8.560715 4.969305 -8.338745 0
M  V30 11 C 9.434839 6.292863 -10.129560 0
M  V30 12 H 11.751914 9.051438 -5.341363 0
M  V30 13 H 10.080980 9.078962 -5.890978 0
M  V30 14 H 11.535920 8.986951 -9.964750 0
M  V30 15 H 11.834839 6.543087 -5.789240 0
M  V30 16 H 10.612956 6.954539 -4.602245 0
M  V30 17 H 10.317315 7.585738 -11.620982 0
M  V30 18 H 8.905945 5.686265 -10.849407 0
M  V30 END ATOM
M  V30 BEGIN BOND
M  V30 1 1 2 1
M  V30 2 1 3 2
M  V30 3 2 4 3
M  V30 4 1 5 1
M  V30 5 1 6 3
M  V30 6 1 7 5
M  V30 7 1 7 6
M  V30 8 1 8 4
M  V30 9 2 9 6
M  V30 10 1 10 9
M  V30 11 2 11 8
M  V30 12 1 11 9
M  V30 13 1 12 1
M  V30 14 1 13 1
M  V30 15 1 14 4
M  V30 16 1 15 5
M  V30 17 1 16 5
M  V30 18 1 17 8
M  V30 19 1 18 11
M  V30 END BOND
M  V30 END CTAB
M  END
>  <i_epik_Tot_Q>  (1) 
0

>  <i_epik_Tot_abs_Q>  (1) 
0

>  <i_i_glide_confnum>  (1) 
2

>  <i_i_glide_lignum>  (1) 
79

>  <i_i_glide_posenum>  (1) 
207

>  <i_i_glide_rotatable_bonds>  (1) 
0

>  <i_lp_mmshare_version>  (1) 
72125

>  <i_m_source_file_index>  (1) 
73

>  <i_f3d_flags>  (1) 
0

>  <num_sample>  (1) 
100

>  <b_lp_Chiralities_Consistent>  (1) 
1

>  <r_epik_Charging_Adjusted_Penalty>  (1) 
0

>  <r_epik_Ionization_Penalty>  (1) 
0

>  <r_epik_Ionization_Penalty_Charging>  (1) 
0

>  <r_epik_Ionization_Penalty_Neutral>  (1) 
0

>  <r_epik_State_Penalty>  (1) 
-0

>  <r_glide_ring_energy>  (1) 
0.0030882705297212471

>  <r_i_docking_score>  (1) 
-4.7113713689555743

>  <r_i_glide_ecoul>  (1) 
0.63918075529387408

>  <r_i_glide_eff_state_penalty>  (1) 
-0

>  <r_i_glide_einternal>  (1) 
0

>  <r_i_glide_emodel>  (1) 
-26.139413492235558

>  <r_i_glide_emodel_strain>  (1) 
0

>  <r_i_glide_energy>  (1) 
-19.967741391438917

>  <r_i_glide_erotb>  (1) 
0

>  <r_i_glide_esite>  (1) 
0

>  <r_i_glide_evdw>  (1) 
-20.606922146732792

>  <r_i_glide_gscore>  (1) 
-4.7113713689555743

>  <r_i_glide_gscore_strain>  (1) 
0

>  <r_i_glide_hbond>  (1) 
0

>  <r_i_glide_ligand_efficiency>  (1) 
-0.42830648808687038

>  <r_i_glide_ligand_efficiency_ln>  (1) 
-1.3865557913665412

>  <r_i_glide_ligand_efficiency_sa>  (1) 
-0.95254510216686361

>  <r_i_glide_lipo>  (1) 
-0.66753122434961032

>  <r_i_glide_metal>  (1) 
-0

>  <r_i_glide_rewards>  (1) 
-3.1093711505634056

>  <r_lp_Energy>  (1) 
17.335863

>  <r_lp_tautomer_probability>  (1) 
1

>  <s_epik_cmdline>  (1) 
J2VwaWtfcHl0aG9uJywgJy1waHQnLCAnMS4wJywgJy1waCcsICc3LjQnLCAnLXRuJywgJzgnLCAnLW1hJywgJzUwMCcsICctaW1hZScsICc8aW5maWxlLm1hZT4nLCAnLW9tYWUnLCAnPG91dGZpbGUubWFlPic=

>  <s_epik_input>  (1) 
TzFbQ0gyXVtDSDJdT2MoYzEyKWMoRilbY0hdW2NIXVtjSF0y

>  <s_glide_docking_method>  (1) 
confgen

>  <s_i_glide_gridfile>  (1) 
gpcr_drd2_6luq_protein_autoprepared_prepared

>  <s_lp_Force_Field>  (1) 
S-OPLS

>  <s_lp_Variant>  (1) 
Pocket2Mol_72_num_sample_100-1

>  <s_m_source_file>  (1) 
generated__ligand_Pocket2Mol_2026-05-06_prepared.sdf

>  <GenAI_Model>  (1) 
Pocket2Mol

>  <Protein>  (1) 
generic_title2

$$$$
Pocket2Mol_30_num_sample_100
     RDKit          3D

  0  0  0  0  0  0  0  0  0  0999 V3000
M  V30 BEGIN CTAB
M  V30 COUNTS 14 14 0 0 1
M  V30 BEGIN ATOM
M  V30 1 N 11.068705 8.969274 -6.219641 0
M  V30 2 C 10.930056 7.670002 -5.886304 0
M  V30 3 C 11.434838 7.150292 -4.691680 0
M  V30 4 C 12.099735 8.046240 -3.839357 0
M  V30 5 O 12.635258 7.650720 -2.631584 0
M  V30 6 C 11.722994 9.721015 -5.320837 0
M  V30 7 N 12.255656 9.349579 -4.144858 0
M  V30 8 C 12.340057 6.349566 -2.139114 0
M  V30 9 H 10.405327 7.038667 -6.588026 0
M  V30 10 H 11.309977 6.108007 -4.443565 0
M  V30 11 H 11.834613 10.764275 -5.576540 0
M  V30 12 H 12.900979 6.176150 -1.221499 0
M  V30 13 H 11.277869 6.243763 -1.914596 0
M  V30 14 H 12.634841 5.563790 -2.830200 0
M  V30 END ATOM
M  V30 BEGIN BOND
M  V30 1 1 2 1
M  V30 2 2 3 2
M  V30 3 1 4 3
M  V30 4 1 5 4
M  V30 5 2 6 1
M  V30 6 2 7 4
M  V30 7 1 7 6
M  V30 8 1 8 5
M  V30 9 1 9 2
M  V30 10 1 10 3
M  V30 11 1 11 6
M  V30 12 1 12 8
M  V30 13 1 13 8
M  V30 14 1 14 8
M  V30 END BOND
M  V30 END CTAB
M  END
>  <i_epik_Tot_Q>  (1) 
0

>  <i_epik_Tot_abs_Q>  (1) 
0

>  <i_i_glide_confnum>  (1) 
1

>  <i_i_glide_lignum>  (1) 
34

>  <i_i_glide_posenum>  (1) 
226

>  <i_i_glide_rotatable_bonds>  (1) 
1

>  <i_lp_mmshare_version>  (1) 
72125

>  <i_m_source_file_index>  (1) 
31

>  <i_f3d_flags>  (1) 
0

>  <num_sample>  (1) 
100

>  <b_lp_Chiralities_Consistent>  (1) 
1

>  <r_epik_Charging_Adjusted_Penalty>  (1) 
0

>  <r_epik_Ionization_Penalty>  (1) 
8.6638422661064201e-06

>  <r_epik_Ionization_Penalty_Charging>  (1) 
0

>  <r_epik_Ionization_Penalty_Neutral>  (1) 
8.6638422661064201e-06

>  <r_epik_State_Penalty>  (1) 
-0

>  <r_glide_ring_energy>  (1) 
0

>  <r_i_docking_score>  (1) 
-4.7103335654439045

>  <r_i_glide_ecoul>  (1) 
-1.0180103367722533

>  <r_i_glide_eff_state_penalty>  (1) 
-0

>  <r_i_glide_einternal>  (1) 
4.0055907775909203

>  <r_i_glide_emodel>  (1) 
-23.675768866625084

>  <r_i_glide_emodel_strain>  (1) 
0

>  <r_i_glide_energy>  (1) 
-19.726795162592861

>  <r_i_glide_erotb>  (1) 
0

>  <r_i_glide_esite>  (1) 
0

>  <r_i_glide_evdw>  (1) 
-18.708784825820608

>  <r_i_glide_gscore>  (1) 
-4.7103335654439045

>  <r_i_glide_gscore_strain>  (1) 
0

>  <r_i_glide_hbond>  (1) 
0

>  <r_i_glide_ligand_efficiency>  (1) 
-0.58879169568048806

>  <r_i_glide_ligand_efficiency_ln>  (1) 
-1.5296064243110836

>  <r_i_glide_ligand_efficiency_sa>  (1) 
-1.1775833913609763

>  <r_i_glide_lipo>  (1) 
-0.92373519914112967

>  <r_i_glide_metal>  (1) 
-0

>  <r_i_glide_rewards>  (1) 
-2.6984575744959067

>  <r_lp_Energy>  (1) 
14.393509

>  <r_lp_tautomer_probability>  (1) 
1

>  <s_epik_cmdline>  (1) 
J2VwaWtfcHl0aG9uJywgJy1waHQnLCAnMS4wJywgJy1waCcsICc3LjQnLCAnLXRuJywgJzgnLCAnLW1hJywgJzUwMCcsICctaW1hZScsICc8aW5maWxlLm1hZT4nLCAnLW9tYWUnLCAnPG91dGZpbGUubWFlPic=

>  <s_epik_input>  (1) 
bjFbY0hdbltjSF1bY0hdYzFPW0NIM10=

>  <s_glide_docking_method>  (1) 
confgen

>  <s_i_glide_gridfile>  (1) 
gpcr_drd2_6luq_protein_autoprepared_prepared

>  <s_lp_Force_Field>  (1) 
S-OPLS

>  <s_lp_Variant>  (1) 
Pocket2Mol_30_num_sample_100-1

>  <s_m_source_file>  (1) 
generated__ligand_Pocket2Mol_2026-05-06_prepared.sdf

>  <GenAI_Model>  (1) 
Pocket2Mol

>  <Protein>  (1) 
generic_title2

$$$$
Pocket2Mol_81_num_sample_100
     RDKit          3D

  0  0  0  0  0  0  0  0  0  0999 V3000
M  V30 BEGIN CTAB
M  V30 COUNTS 20 21 0 0 1
M  V30 BEGIN ATOM
M  V30 1 C 8.932611 4.989918 -10.242617 0
M  V30 2 O 8.643118 5.360899 -8.902788 0
M  V30 3 C 9.434840 6.356037 -8.372801 0
M  V30 4 C 9.129166 6.248007 -11.091667 0
M  V30 5 O 10.234839 6.979610 -10.583570 0
M  V30 6 C 10.239122 7.169252 -9.217523 0
M  V30 7 C 11.052423 8.175668 -8.653422 0
M  V30 8 O 11.834893 8.954231 -9.463016 0
M  V30 9 C 9.443751 6.569301 -6.981789 0
M  V30 10 C 11.056877 8.378413 -7.254789 0
M  V30 11 O 11.834840 9.357415 -6.705636 0
M  V30 12 C 10.253111 7.576129 -6.424098 0
M  V30 13 H 8.105010 4.395992 -10.630416 0
M  V30 14 H 9.821908 4.359171 -10.266695 0
M  V30 15 H 8.234832 6.871818 -11.091662 0
M  V30 16 H 9.332196 5.978025 -12.128025 0
M  V30 17 H 12.668100 9.201199 -9.091668 0
M  V30 18 H 8.827812 5.957384 -6.340310 0
M  V30 19 H 12.031590 10.040731 -7.325446 0
M  V30 20 H 10.255413 7.733852 -5.356139 0
M  V30 END ATOM
M  V30 BEGIN BOND
M  V30 1 1 2 1
M  V30 2 1 3 2
M  V30 3 1 4 1
M  V30 4 1 5 4
M  V30 5 2 6 3
M  V30 6 1 6 5
M  V30 7 1 7 6
M  V30 8 1 8 7
M  V30 9 1 9 3
M  V30 10 2 10 7
M  V30 11 1 11 10
M  V30 12 2 12 9
M  V30 13 1 12 10
M  V30 14 1 13 1
M  V30 15 1 14 1
M  V30 16 1 15 4
M  V30 17 1 16 4
M  V30 18 1 17 8
M  V30 19 1 18 9
M  V30 20 1 19 11
M  V30 21 1 20 12
M  V30 END BOND
M  V30 END CTAB
M  END
>  <i_epik_Tot_Q>  (1) 
0

>  <i_epik_Tot_abs_Q>  (1) 
0

>  <i_i_glide_confnum>  (1) 
1

>  <i_i_glide_lignum>  (1) 
88

>  <i_i_glide_posenum>  (1) 
179

>  <i_i_glide_rotatable_bonds>  (1) 
2

>  <i_lp_mmshare_version>  (1) 
72125

>  <i_m_source_file_index>  (1) 
82

>  <i_f3d_flags>  (1) 
0

>  <num_sample>  (1) 
100

>  <b_lp_Chiralities_Consistent>  (1) 
1

>  <r_epik_Charging_Adjusted_Penalty>  (1) 
0.0036846811785224438

>  <r_epik_Ionization_Penalty>  (1) 
0.0053862680964110767

>  <r_epik_Ionization_Penalty_Charging>  (1) 
0

>  <r_epik_Ionization_Penalty_Neutral>  (1) 
0.0053862680964110767

>  <r_epik_State_Penalty>  (1) 
0.0036846811785224438

>  <r_glide_ring_energy>  (1) 
0

>  <r_i_docking_score>  (1) 
-4.7086148341282517

>  <r_i_glide_ecoul>  (1) 
-0.95835660123160493

>  <r_i_glide_eff_state_penalty>  (1) 
0.0036846811785224438

>  <r_i_glide_einternal>  (1) 
0.031699851487035247

>  <r_i_glide_emodel>  (1) 
-31.707989401377866

>  <r_i_glide_emodel_strain>  (1) 
0.49204249243413045

>  <r_i_glide_energy>  (1) 
-23.821569432078601

>  <r_i_glide_erotb>  (1) 
0

>  <r_i_glide_esite>  (1) 
0

>  <r_i_glide_evdw>  (1) 
-22.863212830846997

>  <r_i_glide_gscore>  (1) 
-4.7122995153067739

>  <r_i_glide_gscore_strain>  (1) 
0

>  <r_i_glide_hbond>  (1) 
0

>  <r_i_glide_ligand_efficiency>  (1) 
-0.39238456951068762

>  <r_i_glide_ligand_efficiency_ln>  (1) 
-1.351145183304894

>  <r_i_glide_ligand_efficiency_sa>  (1) 
-0.89833641055408409

>  <r_i_glide_lipo>  (1) 
-0.56796275333185919

>  <r_i_glide_metal>  (1) 
-0

>  <r_i_glide_rewards>  (1) 
-2.8574226302478243

>  <r_lp_Energy>  (1) 
18.638769

>  <r_lp_tautomer_probability>  (1) 
0.99999998461580031

>  <s_epik_cmdline>  (1) 
J2VwaWtfcHl0aG9uJywgJy1waHQnLCAnMS4wJywgJy1waCcsICc3LjQnLCAnLXRuJywgJzgnLCAnLW1hJywgJzUwMCcsICctaW1hZScsICc8aW5maWxlLm1hZT4nLCAnLW9tYWUnLCAnPG91dGZpbGUubWFlPic=

>  <s_epik_input>  (1) 
TzFbQ0gyXVtDSDJdT2MoYzEyKWMoW09IXSljKFtPSF0pW2NIXVtjSF0y

>  <s_glide_docking_method>  (1) 
confgen

>  <s_i_glide_gridfile>  (1) 
gpcr_drd2_6luq_protein_autoprepared_prepared

>  <s_lp_Force_Field>  (1) 
S-OPLS

>  <s_lp_Variant>  (1) 
Pocket2Mol_81_num_sample_100-1

>  <s_m_source_file>  (1) 
generated__ligand_Pocket2Mol_2026-05-06_prepared.sdf

>  <GenAI_Model>  (1) 
Pocket2Mol

>  <Protein>  (1) 
generic_title2

$$$$
Pocket2Mol_30_num_sample_100
     RDKit          3D

  0  0  0  0  0  0  0  0  0  0999 V3000
M  V30 BEGIN CTAB
M  V30 COUNTS 14 14 0 0 1
M  V30 BEGIN ATOM
M  V30 1 N 10.937430 8.653566 -6.377416 0
M  V30 2 C 10.855356 7.362060 -5.995193 0
M  V30 3 C 11.299435 6.927439 -4.744639 0
M  V30 4 C 11.834839 7.891629 -3.891667 0
M  V30 5 O 12.285275 7.548041 -2.631669 0
M  V30 6 C 11.471005 9.483776 -5.468305 0
M  V30 7 N 11.933662 9.196827 -4.240541 0
M  V30 8 C 12.801104 8.569301 -1.784226 0
M  V30 9 H 10.426956 6.668660 -6.703786 0
M  V30 10 H 11.225612 5.890699 -4.449311 0
M  V30 11 H 11.537767 10.520721 -5.763116 0
M  V30 12 H 13.034872 8.159804 -0.803556 0
M  V30 13 H 13.725622 8.969301 -2.195784 0
M  V30 14 H 12.086487 9.380179 -1.633970 0
M  V30 END ATOM
M  V30 BEGIN BOND
M  V30 1 1 2 1
M  V30 2 2 3 2
M  V30 3 1 4 3
M  V30 4 1 5 4
M  V30 5 2 6 1
M  V30 6 2 7 4
M  V30 7 1 7 6
M  V30 8 1 8 5
M  V30 9 1 9 2
M  V30 10 1 10 3
M  V30 11 1 11 6
M  V30 12 1 12 8
M  V30 13 1 13 8
M  V30 14 1 14 8
M  V30 END BOND
M  V30 END CTAB
M  END
>  <i_epik_Tot_Q>  (1) 
0

>  <i_epik_Tot_abs_Q>  (1) 
0

>  <i_i_glide_confnum>  (1) 
1

>  <i_i_glide_lignum>  (1) 
34

>  <i_i_glide_posenum>  (1) 
326

>  <i_i_glide_rotatable_bonds>  (1) 
1

>  <i_lp_mmshare_version>  (1) 
72125

>  <i_m_source_file_index>  (1) 
31

>  <i_f3d_flags>  (1) 
0

>  <num_sample>  (1) 
100

>  <b_lp_Chiralities_Consistent>  (1) 
1

>  <r_epik_Charging_Adjusted_Penalty>  (1) 
0

>  <r_epik_Ionization_Penalty>  (1) 
8.6638422661064201e-06

>  <r_epik_Ionization_Penalty_Charging>  (1) 
0

>  <r_epik_Ionization_Penalty_Neutral>  (1) 
8.6638422661064201e-06

>  <r_epik_State_Penalty>  (1) 
-0

>  <r_glide_ring_energy>  (1) 
0

>  <r_i_docking_score>  (1) 
-4.7075182748697708

>  <r_i_glide_ecoul>  (1) 
-0.95956150803172724

>  <r_i_glide_eff_state_penalty>  (1) 
-0

>  <r_i_glide_einternal>  (1) 
0.0010651928812140943

>  <r_i_glide_emodel>  (1) 
-25.527368618931494

>  <r_i_glide_emodel_strain>  (1) 
0

>  <r_i_glide_energy>  (1) 
-19.57968939915629

>  <r_i_glide_erotb>  (1) 
0

>  <r_i_glide_esite>  (1) 
0

>  <r_i_glide_evdw>  (1) 
-18.620127891124564

>  <r_i_glide_gscore>  (1) 
-4.7075182748697708

>  <r_i_glide_gscore_strain>  (1) 
0

>  <r_i_glide_hbond>  (1) 
0

>  <r_i_glide_ligand_efficiency>  (1) 
-0.58843978435872135

>  <r_i_glide_ligand_efficiency_ln>  (1) 
-1.5286922031654542

>  <r_i_glide_ligand_efficiency_sa>  (1) 
-1.1768795687174429

>  <r_i_glide_lipo>  (1) 
-0.93257788091513283

>  <r_i_glide_metal>  (1) 
-0

>  <r_i_glide_rewards>  (1) 
-2.69999977319365

>  <r_lp_Energy>  (1) 
14.393509

>  <r_lp_tautomer_probability>  (1) 
1

>  <s_epik_cmdline>  (1) 
J2VwaWtfcHl0aG9uJywgJy1waHQnLCAnMS4wJywgJy1waCcsICc3LjQnLCAnLXRuJywgJzgnLCAnLW1hJywgJzUwMCcsICctaW1hZScsICc8aW5maWxlLm1hZT4nLCAnLW9tYWUnLCAnPG91dGZpbGUubWFlPic=

>  <s_epik_input>  (1) 
bjFbY0hdbltjSF1bY0hdYzFPW0NIM10=

>  <s_glide_docking_method>  (1) 
confgen

>  <s_i_glide_gridfile>  (1) 
gpcr_drd2_6luq_protein_autoprepared_prepared

>  <s_lp_Force_Field>  (1) 
S-OPLS

>  <s_lp_Variant>  (1) 
Pocket2Mol_30_num_sample_100-1

>  <s_m_source_file>  (1) 
generated__ligand_Pocket2Mol_2026-05-06_prepared.sdf

>  <GenAI_Model>  (1) 
Pocket2Mol

>  <Protein>  (1) 
generic_title2

$$$$
Pocket2Mol_31_num_sample_100
     RDKit          3D

  0  0  0  0  0  0  0  0  0  0999 V3000
M  V30 BEGIN CTAB
M  V30 COUNTS 20 21 0 0 1
M  V30 BEGIN ATOM
M  V30 1 C 11.341456 8.020517 -9.135022 0
M  V30 2 O 11.923776 8.518977 -7.929807 0
M  V30 3 C 11.087277 8.237689 -6.803249 0 CFG=2
M  V30 4 C 11.274632 9.333826 -5.762521 0
M  V30 5 C 11.164414 6.762641 -6.375195 0
M  V30 6 C 9.834851 8.096612 -8.909922 0
M  V30 7 C 9.694745 6.593190 -6.756767 0
M  V30 8 C 9.709567 7.978569 -7.417325 0 CFG=1
M  V30 9 H 11.666916 8.593249 -10.003717 0
M  V30 10 H 11.649893 6.984603 -9.279019 0
M  V30 11 H 10.634841 9.172417 -4.896354 0
M  V30 12 H 11.034839 10.314600 -6.172508 0
M  V30 13 H 12.305287 9.369306 -5.409473 0
M  V30 14 H 11.834845 6.159789 -6.986987 0
M  V30 15 H 11.354565 6.612652 -5.311993 0
M  V30 16 H 9.443035 9.054426 -9.250372 0
M  V30 17 H 9.300995 7.310802 -9.444946 0
M  V30 18 H 9.504023 5.769316 -7.445368 0
M  V30 19 H 9.034840 6.546325 -5.891664 0
M  V30 20 H 8.926568 8.612250 -6.997887 0
M  V30 END ATOM
M  V30 BEGIN BOND
M  V30 1 1 2 1
M  V30 2 1 3 2
M  V30 3 1 3 4 CFG=1
M  V30 4 1 5 3
M  V30 5 1 6 1
M  V30 6 1 7 5
M  V30 7 1 8 3
M  V30 8 1 8 6
M  V30 9 1 8 7
M  V30 10 1 9 1
M  V30 11 1 10 1
M  V30 12 1 11 4
M  V30 13 1 12 4
M  V30 14 1 13 4
M  V30 15 1 14 5
M  V30 16 1 15 5
M  V30 17 1 16 6
M  V30 18 1 17 6
M  V30 19 1 18 7
M  V30 20 1 19 7
M  V30 21 1 8 20 CFG=1
M  V30 END BOND
M  V30 END CTAB
M  END
>  <i_epik_Tot_Q>  (1) 
0

>  <i_epik_Tot_abs_Q>  (1) 
0

>  <i_i_glide_confnum>  (1) 
1

>  <i_i_glide_lignum>  (1) 
35

>  <i_i_glide_posenum>  (1) 
216

>  <i_i_glide_rotatable_bonds>  (1) 
0

>  <i_lp_mmshare_version>  (1) 
72125

>  <i_m_source_file_index>  (1) 
32

>  <i_f3d_flags>  (1) 
0

>  <num_sample>  (1) 
100

>  <b_lp_Chiralities_Consistent>  (1) 
1

>  <r_epik_Charging_Adjusted_Penalty>  (1) 
0

>  <r_epik_Ionization_Penalty>  (1) 
2.3587344998035955e-11

>  <r_epik_Ionization_Penalty_Charging>  (1) 
0

>  <r_epik_Ionization_Penalty_Neutral>  (1) 
2.3587344998035955e-11

>  <r_epik_State_Penalty>  (1) 
-0

>  <r_glide_ring_energy>  (1) 
0

>  <r_i_docking_score>  (1) 
-4.7045934736383987

>  <r_i_glide_ecoul>  (1) 
-0.29488612423416094

>  <r_i_glide_eff_state_penalty>  (1) 
-0

>  <r_i_glide_einternal>  (1) 
0

>  <r_i_glide_emodel>  (1) 
-19.567787286245473

>  <r_i_glide_emodel_strain>  (1) 
6.5142558014485985e-11

>  <r_i_glide_energy>  (1) 
-15.14078422952921

>  <r_i_glide_erotb>  (1) 
0

>  <r_i_glide_esite>  (1) 
0

>  <r_i_glide_evdw>  (1) 
-14.845898105295049

>  <r_i_glide_gscore>  (1) 
-4.7045934736383987

>  <r_i_glide_gscore_strain>  (1) 
0

>  <r_i_glide_hbond>  (1) 
0

>  <r_i_glide_ligand_efficiency>  (1) 
-0.58807418420479984

>  <r_i_glide_ligand_efficiency_ln>  (1) 
-1.5277424201636387

>  <r_i_glide_ligand_efficiency_sa>  (1) 
-1.1761483684095999

>  <r_i_glide_lipo>  (1) 
-1.0762535069124692

>  <r_i_glide_metal>  (1) 
-0

>  <r_i_glide_rewards>  (1) 
-2.8418121428260523

>  <r_lp_Energy>  (1) 
15.613807

>  <r_lp_tautomer_probability>  (1) 
1

>  <s_epik_cmdline>  (1) 
J2VwaWtfcHl0aG9uJywgJy1waHQnLCAnMS4wJywgJy1waCcsICc3LjQnLCAnLXRuJywgJzgnLCAnLW1hJywgJzUwMCcsICctaW1hZScsICc8aW5maWxlLm1hZT4nLCAnLW9tYWUnLCAnPG91dGZpbGUubWFlPic=

>  <s_epik_input>  (1) 
TzFbQ0gyXVtDSDJdW0NASF0oW0NAXTEyW0NIM10pW0NIMl1bQ0gyXTI=

>  <s_glide_docking_method>  (1) 
confgen

>  <s_i_glide_gridfile>  (1) 
gpcr_drd2_6luq_protein_autoprepared_prepared

>  <s_lp_Force_Field>  (1) 
S-OPLS

>  <s_lp_Variant>  (1) 
Pocket2Mol_31_num_sample_100-1

>  <s_m_source_file>  (1) 
generated__ligand_Pocket2Mol_2026-05-06_prepared.sdf

>  <GenAI_Model>  (1) 
Pocket2Mol

>  <Protein>  (1) 
generic_title2

$$$$
Pocket2Mol_17_num_sample_100
     RDKit          3D

  0  0  0  0  0  0  0  0  0  0999 V3000
M  V30 BEGIN CTAB
M  V30 COUNTS 12 12 0 0 1
M  V30 BEGIN ATOM
M  V30 1 N 9.434657 8.032287 -8.388219 0
M  V30 2 C 10.587876 8.320560 -9.093303 0
M  V30 3 C 11.724743 8.754645 -8.511486 0
M  V30 4 C 11.749269 8.944630 -7.033584 0
M  V30 5 O 12.740209 9.369703 -6.448390 0
M  V30 6 C 9.434839 8.170626 -7.013693 0
M  V30 7 C 10.501687 8.596998 -6.308999 0
M  V30 8 H 10.500757 8.171584 -10.159863 0
M  V30 9 H 12.611122 8.977100 -9.087881 0
M  V30 10 H 8.567500 7.769131 -8.880594 0
M  V30 11 H 8.495671 7.910485 -6.545562 0
M  V30 12 H 10.470414 8.699741 -5.236354 0
M  V30 END ATOM
M  V30 BEGIN BOND
M  V30 1 1 2 1
M  V30 2 2 3 2
M  V30 3 1 4 3
M  V30 4 2 5 4
M  V30 5 1 6 1
M  V30 6 1 7 4
M  V30 7 2 7 6
M  V30 8 1 8 2
M  V30 9 1 9 3
M  V30 10 1 10 1
M  V30 11 1 11 6
M  V30 12 1 12 7
M  V30 END BOND
M  V30 END CTAB
M  END
>  <i_epik_Tot_Q>  (1) 
0

>  <i_epik_Tot_abs_Q>  (1) 
0

>  <i_i_glide_confnum>  (1) 
1

>  <i_i_glide_lignum>  (1) 
20

>  <i_i_glide_posenum>  (1) 
359

>  <i_i_glide_rotatable_bonds>  (1) 
0

>  <i_lp_mmshare_version>  (1) 
72125

>  <i_m_source_file_index>  (1) 
18

>  <i_f3d_flags>  (1) 
0

>  <num_sample>  (1) 
100

>  <b_lp_Chiralities_Consistent>  (1) 
1

>  <r_epik_Charging_Adjusted_Penalty>  (1) 
0.00011828912318149299

>  <r_epik_Ionization_Penalty>  (1) 
0.00011828912318149299

>  <r_epik_Ionization_Penalty_Charging>  (1) 
0.00011828912318149299

>  <r_epik_Ionization_Penalty_Neutral>  (1) 
0

>  <r_epik_State_Penalty>  (1) 
-0

>  <r_glide_ring_energy>  (1) 
0

>  <r_i_docking_score>  (1) 
-4.7010798318875917

>  <r_i_glide_ecoul>  (1) 
-4.9562256789478374

>  <r_i_glide_eff_state_penalty>  (1) 
-0

>  <r_i_glide_einternal>  (1) 
0

>  <r_i_glide_emodel>  (1) 
-23.396179794191632

>  <r_i_glide_emodel_strain>  (1) 
6.3849192599718663e-10

>  <r_i_glide_energy>  (1) 
-17.483580914306263

>  <r_i_glide_erotb>  (1) 
0

>  <r_i_glide_esite>  (1) 
-0.10000000000000001

>  <r_i_glide_evdw>  (1) 
-12.527355235358424

>  <r_i_glide_gscore>  (1) 
-4.7010798318875917

>  <r_i_glide_gscore_strain>  (1) 
0

>  <r_i_glide_hbond>  (1) 
-0.16

>  <r_i_glide_ligand_efficiency>  (1) 
-0.67158283312679878

>  <r_i_glide_ligand_efficiency_ln>  (1) 
-1.5957987834065888

>  <r_i_glide_ligand_efficiency_sa>  (1) 
-1.2846917433028793

>  <r_i_glide_lipo>  (1) 
-0.82127821827749492

>  <r_i_glide_metal>  (1) 
-0

>  <r_i_glide_rewards>  (1) 
-2.25

>  <r_lp_Energy>  (1) 
8.1847359999999991

>  <r_lp_tautomer_probability>  (1) 
1

>  <s_epik_cmdline>  (1) 
J2VwaWtfcHl0aG9uJywgJy1waHQnLCAnMS4wJywgJy1waCcsICc3LjQnLCAnLXRuJywgJzgnLCAnLW1hJywgJzUwMCcsICctaW1hZScsICc8aW5maWxlLm1hZT4nLCAnLW9tYWUnLCAnPG91dGZpbGUubWFlPic=

>  <s_epik_input>  (1) 
W2NIXTFbY0hdbltjSF1bY0hdYzFbT0hd

>  <s_glide_docking_method>  (1) 
confgen

>  <s_i_glide_gridfile>  (1) 
gpcr_drd2_6luq_protein_autoprepared_prepared

>  <s_lp_Force_Field>  (1) 
S-OPLS

>  <s_lp_Variant>  (1) 
Pocket2Mol_17_num_sample_100-1

>  <s_m_source_file>  (1) 
generated__ligand_Pocket2Mol_2026-05-06_prepared.sdf

>  <GenAI_Model>  (1) 
Pocket2Mol

>  <Protein>  (1) 
generic_title2

$$$$
Pocket2Mol_17_num_sample_100
     RDKit          3D

  0  0  0  0  0  0  0  0  0  0999 V3000
M  V30 BEGIN CTAB
M  V30 COUNTS 12 12 0 0 1
M  V30 BEGIN ATOM
M  V30 1 N 11.279725 7.731566 -5.276145 0
M  V30 2 C 11.669690 8.974528 -4.813525 0
M  V30 3 C 12.145934 9.187520 -3.569400 0
M  V30 4 C 12.260851 8.037585 -2.635202 0
M  V30 5 O 12.680898 8.171740 -1.491664 0
M  V30 6 C 11.379228 6.640467 -4.433628 0
M  V30 7 C 11.834839 6.716506 -3.166840 0
M  V30 8 H 11.558647 9.769237 -5.537324 0
M  V30 9 H 12.441149 10.168600 -3.232774 0
M  V30 10 H 10.924364 7.621203 -6.216821 0
M  V30 11 H 11.052907 5.715413 -4.875968 0
M  V30 12 H 11.898425 5.844515 -2.529979 0
M  V30 END ATOM
M  V30 BEGIN BOND
M  V30 1 1 2 1
M  V30 2 2 3 2
M  V30 3 1 4 3
M  V30 4 2 5 4
M  V30 5 1 6 1
M  V30 6 1 7 4
M  V30 7 2 7 6
M  V30 8 1 8 2
M  V30 9 1 9 3
M  V30 10 1 10 1
M  V30 11 1 11 6
M  V30 12 1 12 7
M  V30 END BOND
M  V30 END CTAB
M  END
>  <i_epik_Tot_Q>  (1) 
0

>  <i_epik_Tot_abs_Q>  (1) 
0

>  <i_i_glide_confnum>  (1) 
1

>  <i_i_glide_lignum>  (1) 
20

>  <i_i_glide_posenum>  (1) 
207

>  <i_i_glide_rotatable_bonds>  (1) 
0

>  <i_lp_mmshare_version>  (1) 
72125

>  <i_m_source_file_index>  (1) 
18

>  <i_f3d_flags>  (1) 
0

>  <num_sample>  (1) 
100

>  <b_lp_Chiralities_Consistent>  (1) 
1

>  <r_epik_Charging_Adjusted_Penalty>  (1) 
0.00011828912318149299

>  <r_epik_Ionization_Penalty>  (1) 
0.00011828912318149299

>  <r_epik_Ionization_Penalty_Charging>  (1) 
0.00011828912318149299

>  <r_epik_Ionization_Penalty_Neutral>  (1) 
0

>  <r_epik_State_Penalty>  (1) 
-0

>  <r_glide_ring_energy>  (1) 
0

>  <r_i_docking_score>  (1) 
-4.700726151963373

>  <r_i_glide_ecoul>  (1) 
-1.1587420905893659

>  <r_i_glide_eff_state_penalty>  (1) 
-0

>  <r_i_glide_einternal>  (1) 
0

>  <r_i_glide_emodel>  (1) 
-22.899520486707683

>  <r_i_glide_emodel_strain>  (1) 
0

>  <r_i_glide_energy>  (1) 
-16.987366433244581

>  <r_i_glide_erotb>  (1) 
0

>  <r_i_glide_esite>  (1) 
0

>  <r_i_glide_evdw>  (1) 
-15.828624342655216

>  <r_i_glide_gscore>  (1) 
-4.700726151963373

>  <r_i_glide_gscore_strain>  (1) 
0

>  <r_i_glide_hbond>  (1) 
0

>  <r_i_glide_ligand_efficiency>  (1) 
-0.67153230742333903

>  <r_i_glide_ligand_efficiency_ln>  (1) 
-1.5956787254596985

>  <r_i_glide_ligand_efficiency_sa>  (1) 
-1.2845950911091994

>  <r_i_glide_lipo>  (1) 
-1.4854836212422067

>  <r_i_glide_metal>  (1) 
-0

>  <r_i_glide_rewards>  (1) 
-2.25

>  <r_lp_Energy>  (1) 
8.1847359999999991

>  <r_lp_tautomer_probability>  (1) 
1

>  <s_epik_cmdline>  (1) 
J2VwaWtfcHl0aG9uJywgJy1waHQnLCAnMS4wJywgJy1waCcsICc3LjQnLCAnLXRuJywgJzgnLCAnLW1hJywgJzUwMCcsICctaW1hZScsICc8aW5maWxlLm1hZT4nLCAnLW9tYWUnLCAnPG91dGZpbGUubWFlPic=

>  <s_epik_input>  (1) 
W2NIXTFbY0hdbltjSF1bY0hdYzFbT0hd

>  <s_glide_docking_method>  (1) 
confgen

>  <s_i_glide_gridfile>  (1) 
gpcr_drd2_6luq_protein_autoprepared_prepared

>  <s_lp_Force_Field>  (1) 
S-OPLS

>  <s_lp_Variant>  (1) 
Pocket2Mol_17_num_sample_100-1

>  <s_m_source_file>  (1) 
generated__ligand_Pocket2Mol_2026-05-06_prepared.sdf

>  <GenAI_Model>  (1) 
Pocket2Mol

>  <Protein>  (1) 
generic_title2

$$$$
Pocket2Mol_36_num_sample_100
     RDKit          3D

  0  0  0  0  0  0  0  0  0  0999 V3000
M  V30 BEGIN CTAB
M  V30 COUNTS 15 16 0 0 1
M  V30 BEGIN ATOM
M  V30 1 C 11.984709 9.369302 -4.994874 0
M  V30 2 O 11.034827 8.337101 -5.064158 0
M  V30 3 C 10.915057 8.030793 -6.380977 0
M  V30 4 C 11.756146 8.836825 -7.121202 0
M  V30 5 C 11.834918 8.733286 -8.519916 0
M  V30 6 C 11.019210 7.769286 -9.155648 0
M  V30 7 C 10.155473 6.941551 -8.395493 0
M  V30 8 C 10.094783 7.065682 -6.988458 0
M  V30 9 O 12.429662 9.673798 -6.291724 0
M  V30 10 H 12.829512 9.048151 -4.384659 0
M  V30 11 H 11.530964 10.254041 -4.547055 0
M  V30 12 H 12.496706 9.369297 -9.088923 0
M  V30 13 H 11.054849 7.662992 -10.229931 0
M  V30 14 H 9.538117 6.209479 -8.895088 0
M  V30 15 H 9.440479 6.440458 -6.399202 0
M  V30 END ATOM
M  V30 BEGIN BOND
M  V30 1 1 2 1
M  V30 2 1 3 2
M  V30 3 1 4 3
M  V30 4 2 5 4
M  V30 5 1 6 5
M  V30 6 2 7 6
M  V30 7 2 8 3
M  V30 8 1 8 7
M  V30 9 1 9 1
M  V30 10 1 9 4
M  V30 11 1 10 1
M  V30 12 1 11 1
M  V30 13 1 12 5
M  V30 14 1 13 6
M  V30 15 1 14 7
M  V30 16 1 15 8
M  V30 END BOND
M  V30 END CTAB
M  END
>  <i_epik_Tot_Q>  (1) 
0

>  <i_epik_Tot_abs_Q>  (1) 
0

>  <i_i_glide_confnum>  (1) 
1

>  <i_i_glide_lignum>  (1) 
41

>  <i_i_glide_posenum>  (1) 
222

>  <i_i_glide_rotatable_bonds>  (1) 
0

>  <i_lp_mmshare_version>  (1) 
72125

>  <i_m_source_file_index>  (1) 
37

>  <i_f3d_flags>  (1) 
0

>  <num_sample>  (1) 
100

>  <b_lp_Chiralities_Consistent>  (1) 
1

>  <r_epik_Charging_Adjusted_Penalty>  (1) 
0

>  <r_epik_Ionization_Penalty>  (1) 
0

>  <r_epik_Ionization_Penalty_Charging>  (1) 
0

>  <r_epik_Ionization_Penalty_Neutral>  (1) 
0

>  <r_epik_State_Penalty>  (1) 
-0

>  <r_glide_ring_energy>  (1) 
0

>  <r_i_docking_score>  (1) 
-4.6932577523546728

>  <r_i_glide_ecoul>  (1) 
-0.67666865935795462

>  <r_i_glide_eff_state_penalty>  (1) 
-0

>  <r_i_glide_einternal>  (1) 
0

>  <r_i_glide_emodel>  (1) 
-25.034869533100618

>  <r_i_glide_emodel_strain>  (1) 
0

>  <r_i_glide_energy>  (1) 
-19.035843026855932

>  <r_i_glide_erotb>  (1) 
0

>  <r_i_glide_esite>  (1) 
0

>  <r_i_glide_evdw>  (1) 
-18.359174367497978

>  <r_i_glide_gscore>  (1) 
-4.6932577523546728

>  <r_i_glide_gscore_strain>  (1) 
0

>  <r_i_glide_hbond>  (1) 
0

>  <r_i_glide_ligand_efficiency>  (1) 
-0.52147308359496369

>  <r_i_glide_ligand_efficiency_ln>  (1) 
-1.4679162000765298

>  <r_i_glide_ligand_efficiency_sa>  (1) 
-1.0847077253428774

>  <r_i_glide_lipo>  (1) 
-0.97379873507608061

>  <r_i_glide_metal>  (1) 
-0

>  <r_i_glide_rewards>  (1) 
-2.7000000000000002

>  <r_lp_Energy>  (1) 
19.342482

>  <r_lp_tautomer_probability>  (1) 
1

>  <s_epik_Chemistry_Notes>  (1) 
This compound contains an acetal/aminal-like group ( X-CH(R)-Y where X, Y are N, S, or O) that may be acid/base labile, releasing an aldehyde.

>  <s_epik_cmdline>  (1) 
J2VwaWtfcHl0aG9uJywgJy1waHQnLCAnMS4wJywgJy1waCcsICc3LjQnLCAnLXRuJywgJzgnLCAnLW1hJywgJzUwMCcsICctaW1hZScsICc8aW5maWxlLm1hZT4nLCAnLW9tYWUnLCAnPG91dGZpbGUubWFlPic=

>  <s_epik_input>  (1) 
TzFbQ0gyXU9jKGMxMilbY0hdW2NIXVtjSF1bY0hdMg==

>  <s_glide_docking_method>  (1) 
confgen

>  <s_i_glide_gridfile>  (1) 
gpcr_drd2_6luq_protein_autoprepared_prepared

>  <s_lp_Force_Field>  (1) 
S-OPLS

>  <s_lp_Variant>  (1) 
Pocket2Mol_36_num_sample_100-1

>  <s_m_source_file>  (1) 
generated__ligand_Pocket2Mol_2026-05-06_prepared.sdf

>  <GenAI_Model>  (1) 
Pocket2Mol

>  <Protein>  (1) 
generic_title2

$$$$
Pocket2Mol_81_num_sample_100
     RDKit          3D

  0  0  0  0  0  0  0  0  0  0999 V3000
M  V30 BEGIN CTAB
M  V30 COUNTS 20 21 0 0 1
M  V30 BEGIN ATOM
M  V30 1 C 8.928137 4.984769 -10.271119 0
M  V30 2 O 8.645319 5.351417 -8.928352 0
M  V30 3 C 9.434840 6.349900 -8.400932 0
M  V30 4 C 9.121203 6.247185 -11.114240 0
M  V30 5 O 10.234969 6.969304 -10.612663 0
M  V30 6 C 10.239353 7.161344 -9.247598 0
M  V30 7 C 11.050757 8.169277 -8.685963 0
M  V30 8 O 11.834841 8.943957 -9.491667 0
M  V30 9 C 9.440518 6.569301 -7.010819 0
M  V30 10 C 11.053017 8.379326 -7.291277 0
M  V30 11 O 11.836041 9.359846 -6.749372 0
M  V30 12 C 10.246748 7.581400 -6.456541 0
M  V30 13 H 8.098036 4.393626 -10.657680 0
M  V30 14 H 9.816508 4.353073 -10.303518 0
M  V30 15 H 8.232158 6.877304 -11.091674 0
M  V30 16 H 9.308318 5.985832 -12.155709 0
M  V30 17 H 12.376775 9.526846 -8.980773 0
M  V30 18 H 8.824279 5.959253 -6.367720 0
M  V30 19 H 11.740518 9.430624 -5.812290 0
M  V30 20 H 10.246290 7.743282 -5.389297 0
M  V30 END ATOM
M  V30 BEGIN BOND
M  V30 1 1 2 1
M  V30 2 1 3 2
M  V30 3 1 4 1
M  V30 4 1 5 4
M  V30 5 2 6 3
M  V30 6 1 6 5
M  V30 7 1 7 6
M  V30 8 1 8 7
M  V30 9 1 9 3
M  V30 10 2 10 7
M  V30 11 1 11 10
M  V30 12 2 12 9
M  V30 13 1 12 10
M  V30 14 1 13 1
M  V30 15 1 14 1
M  V30 16 1 15 4
M  V30 17 1 16 4
M  V30 18 1 17 8
M  V30 19 1 18 9
M  V30 20 1 19 11
M  V30 21 1 20 12
M  V30 END BOND
M  V30 END CTAB
M  END
>  <i_epik_Tot_Q>  (1) 
0

>  <i_epik_Tot_abs_Q>  (1) 
0

>  <i_i_glide_confnum>  (1) 
1

>  <i_i_glide_lignum>  (1) 
88

>  <i_i_glide_posenum>  (1) 
323

>  <i_i_glide_rotatable_bonds>  (1) 
2

>  <i_lp_mmshare_version>  (1) 
72125

>  <i_m_source_file_index>  (1) 
82

>  <i_f3d_flags>  (1) 
0

>  <num_sample>  (1) 
100

>  <b_lp_Chiralities_Consistent>  (1) 
1

>  <r_epik_Charging_Adjusted_Penalty>  (1) 
0.0036846811785224438

>  <r_epik_Ionization_Penalty>  (1) 
0.0053862680964110767

>  <r_epik_Ionization_Penalty_Charging>  (1) 
0

>  <r_epik_Ionization_Penalty_Neutral>  (1) 
0.0053862680964110767

>  <r_epik_State_Penalty>  (1) 
0.0036846811785224438

>  <r_glide_ring_energy>  (1) 
0

>  <r_i_docking_score>  (1) 
-4.6930790585753481

>  <r_i_glide_ecoul>  (1) 
-0.91551156532899836

>  <r_i_glide_eff_state_penalty>  (1) 
0.0036846811785224438

>  <r_i_glide_einternal>  (1) 
0.068241905120146384

>  <r_i_glide_emodel>  (1) 
-32.044052740766062

>  <r_i_glide_emodel_strain>  (1) 
0

>  <r_i_glide_energy>  (1) 
-23.711536149680605

>  <r_i_glide_erotb>  (1) 
0

>  <r_i_glide_esite>  (1) 
0

>  <r_i_glide_evdw>  (1) 
-22.796024584351606

>  <r_i_glide_gscore>  (1) 
-4.6967637397538704

>  <r_i_glide_gscore_strain>  (1) 
0

>  <r_i_glide_hbond>  (1) 
0

>  <r_i_glide_ligand_efficiency>  (1) 
-0.3910899215479457

>  <r_i_glide_ligand_efficiency_ln>  (1) 
-1.3466871655976338

>  <r_i_glide_ligand_efficiency_sa>  (1) 
-0.89537240662999729

>  <r_i_glide_lipo>  (1) 
-0.55402933594486303

>  <r_i_glide_metal>  (1) 
-0

>  <r_i_glide_rewards>  (1) 
-2.8656064397920771

>  <r_lp_Energy>  (1) 
18.638769

>  <r_lp_tautomer_probability>  (1) 
0.99999998461580031

>  <s_epik_cmdline>  (1) 
J2VwaWtfcHl0aG9uJywgJy1waHQnLCAnMS4wJywgJy1waCcsICc3LjQnLCAnLXRuJywgJzgnLCAnLW1hJywgJzUwMCcsICctaW1hZScsICc8aW5maWxlLm1hZT4nLCAnLW9tYWUnLCAnPG91dGZpbGUubWFlPic=

>  <s_epik_input>  (1) 
TzFbQ0gyXVtDSDJdT2MoYzEyKWMoW09IXSljKFtPSF0pW2NIXVtjSF0y

>  <s_glide_docking_method>  (1) 
confgen

>  <s_i_glide_gridfile>  (1) 
gpcr_drd2_6luq_protein_autoprepared_prepared

>  <s_lp_Force_Field>  (1) 
S-OPLS

>  <s_lp_Variant>  (1) 
Pocket2Mol_81_num_sample_100-1

>  <s_m_source_file>  (1) 
generated__ligand_Pocket2Mol_2026-05-06_prepared.sdf

>  <GenAI_Model>  (1) 
Pocket2Mol

>  <Protein>  (1) 
generic_title2

$$$$
Pocket2Mol_13_num_sample_100
     RDKit          3D

  0  0  0  0  0  0  0  0  0  0999 V3000
M  V30 BEGIN CTAB
M  V30 COUNTS 15 15 0 0 1
M  V30 BEGIN ATOM
M  V30 1 N 9.434267 7.994155 -8.247969 0
M  V30 2 C 9.521558 8.311091 -6.913407 0
M  V30 3 C 10.856975 8.569297 -6.627853 0
M  V30 4 C 10.661764 8.038854 -8.803404 0
M  V30 5 C 11.434296 8.964031 -5.295716 0
M  V30 6 N 10.929063 7.770716 -10.135495 0
M  V30 7 C 11.578836 8.384596 -7.867255 0
M  V30 8 H 8.638361 8.330152 -6.290893 0
M  V30 9 H 11.454883 8.105103 -4.624382 0
M  V30 10 H 12.450409 9.342683 -5.411139 0
M  V30 11 H 10.829477 9.748362 -4.837968 0
M  V30 12 H 11.857238 7.817776 -10.528013 0
M  V30 13 H 8.563635 7.769248 -8.742018 0
M  V30 14 H 12.640189 8.497847 -8.033978 0
M  V30 15 H 10.208248 7.515261 -10.796976 0
M  V30 END ATOM
M  V30 BEGIN BOND
M  V30 1 1 2 1
M  V30 2 2 3 2
M  V30 3 1 4 1
M  V30 4 1 5 3
M  V30 5 1 6 4
M  V30 6 1 7 3
M  V30 7 2 7 4
M  V30 8 1 8 2
M  V30 9 1 9 5
M  V30 10 1 10 5
M  V30 11 1 11 5
M  V30 12 1 12 6
M  V30 13 1 13 1
M  V30 14 1 14 7
M  V30 15 1 15 6
M  V30 END BOND
M  V30 END CTAB
M  END
>  <i_epik_Tot_Q>  (1) 
0

>  <i_epik_Tot_abs_Q>  (1) 
0

>  <i_i_glide_confnum>  (1) 
1

>  <i_i_glide_lignum>  (1) 
16

>  <i_i_glide_posenum>  (1) 
73

>  <i_i_glide_rotatable_bonds>  (1) 
0

>  <i_lp_mmshare_version>  (1) 
72125

>  <i_m_source_file_index>  (1) 
14

>  <i_f3d_flags>  (1) 
0

>  <num_sample>  (1) 
100

>  <b_lp_Chiralities_Consistent>  (1) 
1

>  <r_epik_Charging_Adjusted_Penalty>  (1) 
0

>  <r_epik_Ionization_Penalty>  (1) 
0.00031849139131666116

>  <r_epik_Ionization_Penalty_Charging>  (1) 
0

>  <r_epik_Ionization_Penalty_Neutral>  (1) 
0.00031849139131666116

>  <r_epik_State_Penalty>  (1) 
-0

>  <r_glide_ring_energy>  (1) 
0

>  <r_i_docking_score>  (1) 
-4.6915353724124218

>  <r_i_glide_ecoul>  (1) 
-3.2388209287468896

>  <r_i_glide_eff_state_penalty>  (1) 
-0

>  <r_i_glide_einternal>  (1) 
0

>  <r_i_glide_emodel>  (1) 
-23.464733239620088

>  <r_i_glide_emodel_strain>  (1) 
0

>  <r_i_glide_energy>  (1) 
-17.507958921606122

>  <r_i_glide_erotb>  (1) 
0

>  <r_i_glide_esite>  (1) 
-0.10000000000000001

>  <r_i_glide_evdw>  (1) 
-14.269137992859232

>  <r_i_glide_gscore>  (1) 
-4.6915353724124218

>  <r_i_glide_gscore_strain>  (1) 
0

>  <r_i_glide_hbond>  (1) 
-0.16

>  <r_i_glide_ligand_efficiency>  (1) 
-0.67021933891606023

>  <r_i_glide_ligand_efficiency_ln>  (1) 
-1.592558881647117

>  <r_i_glide_ligand_efficiency_sa>  (1) 
-1.282083472709628

>  <r_i_glide_lipo>  (1) 
-0.81286667487084963

>  <r_i_glide_metal>  (1) 
-0

>  <r_i_glide_rewards>  (1) 
-2.4193886585865774

>  <r_lp_Energy>  (1) 
-3.18065

>  <r_lp_tautomer_probability>  (1) 
1

>  <s_epik_cmdline>  (1) 
J2VwaWtfcHl0aG9uJywgJy1waHQnLCAnMS4wJywgJy1waCcsICc3LjQnLCAnLXRuJywgJzgnLCAnLW1hJywgJzUwMCcsICctaW1hZScsICc8aW5maWxlLm1hZT4nLCAnLW9tYWUnLCAnPG91dGZpbGUubWFlPic=

>  <s_epik_input>  (1) 
W05IMl1DKFtDSDJdMSk9TltDSF09QzFbQ0gzXQ==

>  <s_glide_docking_method>  (1) 
confgen

>  <s_i_glide_gridfile>  (1) 
gpcr_drd2_6luq_protein_autoprepared_prepared

>  <s_lp_Force_Field>  (1) 
S-OPLS

>  <s_lp_Variant>  (1) 
Pocket2Mol_13_num_sample_100-1

>  <s_m_source_file>  (1) 
generated__ligand_Pocket2Mol_2026-05-06_prepared.sdf

>  <GenAI_Model>  (1) 
Pocket2Mol

>  <Protein>  (1) 
generic_title2

$$$$
Pocket2Mol_91_num_sample_100
     RDKit          3D

  0  0  0  0  0  0  0  0  0  0999 V3000
M  V30 BEGIN CTAB
M  V30 COUNTS 22 23 0 0 1
M  V30 BEGIN ATOM
M  V30 1 C 10.773579 6.691706 -6.317586 0
M  V30 2 O 10.949434 8.048249 -6.684470 0
M  V30 3 C 9.487064 6.170112 -6.941588 0
M  V30 4 O 9.048803 7.018751 -7.962221 0
M  V30 5 C 11.682075 8.324841 -7.771413 0
M  V30 6 C 9.834877 7.107554 -9.077705 0
M  V30 7 C 9.370655 6.572903 -10.298122 0
M  V30 8 O 12.723290 8.969300 -7.726441 0
M  V30 9 C 11.105130 7.754146 -9.041999 0
M  V30 10 C 10.156114 6.707127 -11.455841 0
M  V30 11 C 11.837734 7.864066 -10.242005 0
M  V30 12 N 9.749434 6.187609 -12.684753 0
M  V30 13 N 11.341476 7.347197 -11.388583 0 CHG=1
M  V30 14 H 11.629075 6.096052 -6.641581 0
M  V30 15 H 10.724947 6.610376 -5.231314 0
M  V30 16 H 9.597388 5.156784 -7.325822 0
M  V30 17 H 8.692933 6.154433 -6.195349 0
M  V30 18 H 8.413008 6.076107 -10.341270 0
M  V30 19 H 12.803847 8.346412 -10.319432 0
M  V30 20 H 8.881212 5.681964 -12.782466 0
M  V30 21 H 10.334272 6.253590 -13.505388 0
M  V30 22 H 11.895728 7.434592 -12.242099 0
M  V30 END ATOM
M  V30 BEGIN BOND
M  V30 1 1 2 1
M  V30 2 1 3 1
M  V30 3 1 4 3
M  V30 4 1 5 2
M  V30 5 1 6 4
M  V30 6 1 7 6
M  V30 7 2 8 5
M  V30 8 1 9 5
M  V30 9 2 9 6
M  V30 10 2 10 7
M  V30 11 1 11 9
M  V30 12 1 12 10
M  V30 13 1 13 10
M  V30 14 2 13 11
M  V30 15 1 14 1
M  V30 16 1 15 1
M  V30 17 1 16 3
M  V30 18 1 17 3
M  V30 19 1 18 7
M  V30 20 1 19 11
M  V30 21 1 20 12
M  V30 22 1 21 12
M  V30 23 1 22 13
M  V30 END BOND
M  V30 END CTAB
M  END
>  <i_epik_Tot_Q>  (1) 
1

>  <i_epik_Tot_abs_Q>  (1) 
1

>  <i_i_glide_confnum>  (1) 
1

>  <i_i_glide_lignum>  (1) 
98

>  <i_i_glide_posenum>  (1) 
302

>  <i_i_glide_rotatable_bonds>  (1) 
0

>  <i_lp_mmshare_version>  (1) 
72125

>  <i_m_source_file_index>  (1) 
92

>  <i_f3d_flags>  (1) 
0

>  <num_sample>  (1) 
100

>  <b_lp_Chiralities_Consistent>  (1) 
1

>  <r_epik_Charging_Adjusted_Penalty>  (1) 
0.71045643263358682

>  <r_epik_Ionization_Penalty>  (1) 
0.3552545589029974

>  <r_epik_Ionization_Penalty_Charging>  (1) 
0.35522821631679397

>  <r_epik_Ionization_Penalty_Neutral>  (1) 
2.6342586203446271e-05

>  <r_epik_State_Penalty>  (1) 
0.35522821631679286

>  <r_glide_ring_energy>  (1) 
0

>  <r_i_docking_score>  (1) 
-4.6874493440276286

>  <r_i_glide_ecoul>  (1) 
-3.7975144439921307

>  <r_i_glide_eff_state_penalty>  (1) 
0.35522821631679286

>  <r_i_glide_einternal>  (1) 
0

>  <r_i_glide_emodel>  (1) 
-28.758551454597828

>  <r_i_glide_emodel_strain>  (1) 
2.879545490941382e-10

>  <r_i_glide_energy>  (1) 
-19.043389755622822

>  <r_i_glide_erotb>  (1) 
0

>  <r_i_glide_esite>  (1) 
0

>  <r_i_glide_evdw>  (1) 
-15.245875311630691

>  <r_i_glide_gscore>  (1) 
-5.0426775603444218

>  <r_i_glide_gscore_strain>  (1) 
0

>  <r_i_glide_hbond>  (1) 
0

>  <r_i_glide_ligand_efficiency>  (1) 
-0.36057302646366374

>  <r_i_glide_ligand_efficiency_ln>  (1) 
-1.314871229297176

>  <r_i_glide_ligand_efficiency_sa>  (1) 
-0.84782786458046733

>  <r_i_glide_lipo>  (1) 
-0.64146061434442037

>  <r_i_glide_metal>  (1) 
-0

>  <r_i_glide_rewards>  (1) 
-3.0692960138196468

>  <r_lp_Energy>  (1) 
16.247630000000001

>  <s_epik_Chemistry_Notes>  (1) 
This compound has an ester and may undergo hydrolysis at high or low pH.

>  <s_epik_cmdline>  (1) 
J2VwaWtfcHl0aG9uJywgJy1waHQnLCAnMS4wJywgJy1waCcsICc3LjQnLCAnLXRuJywgJzgnLCAnLW1hJywgJzUwMCcsICctaW1hZScsICc8aW5maWxlLm1hZT4nLCAnLW9tYWUnLCAnPG91dGZpbGUubWFlPic=

>  <s_epik_input>  (1) 
TzFbQ0gyXVtDSDJdT0MoPU8pYyhjMTIpW2NIXW5jKFtjSF0yKVtOSDJd

>  <s_glide_docking_method>  (1) 
confgen

>  <s_i_glide_gridfile>  (1) 
gpcr_drd2_6luq_protein_autoprepared_prepared

>  <s_lp_Force_Field>  (1) 
S-OPLS

>  <s_lp_Variant>  (1) 
Pocket2Mol_91_num_sample_100-1

>  <s_m_source_file>  (1) 
generated__ligand_Pocket2Mol_2026-05-06_prepared.sdf

>  <GenAI_Model>  (1) 
Pocket2Mol

>  <Protein>  (1) 
generic_title2

$$$$
Pocket2Mol_31_num_sample_100
     RDKit          3D

  0  0  0  0  0  0  0  0  0  0999 V3000
M  V30 BEGIN CTAB
M  V30 COUNTS 20 21 0 0 1
M  V30 BEGIN ATOM
M  V30 1 C 10.902153 6.434848 -5.244794 0
M  V30 2 O 11.034839 7.845344 -5.091667 0
M  V30 3 C 10.920123 8.501021 -6.353084 0 CFG=2
M  V30 4 C 11.653483 9.830004 -6.278442 0
M  V30 5 C 9.502737 8.423597 -6.961668 0
M  V30 6 C 11.434880 6.128510 -6.644542 0
M  V30 7 C 10.122684 7.789890 -8.204612 0
M  V30 8 C 11.358145 7.443321 -7.362702 0 CFG=1
M  V30 9 H 11.440593 5.898230 -4.463456 0
M  V30 10 H 9.848055 6.169301 -5.164714 0
M  V30 11 H 11.834839 10.222637 -7.274157 0
M  V30 12 H 12.624968 9.720819 -5.795789 0
M  V30 13 H 11.083346 10.569292 -5.715704 0
M  V30 14 H 8.817241 7.752636 -6.442747 0
M  V30 15 H 9.019244 9.369301 -7.176622 0
M  V30 16 H 12.461072 5.769301 -6.594202 0
M  V30 17 H 10.838878 5.369302 -7.144303 0
M  V30 18 H 9.569074 6.935426 -8.596138 0
M  V30 19 H 10.333371 8.521414 -8.986261 0
M  V30 20 H 12.281503 7.707922 -7.879707 0
M  V30 END ATOM
M  V30 BEGIN BOND
M  V30 1 1 2 1
M  V30 2 1 3 2
M  V30 3 1 3 4 CFG=1
M  V30 4 1 5 3
M  V30 5 1 6 1
M  V30 6 1 7 5
M  V30 7 1 8 3
M  V30 8 1 8 6
M  V30 9 1 8 7
M  V30 10 1 9 1
M  V30 11 1 10 1
M  V30 12 1 11 4
M  V30 13 1 12 4
M  V30 14 1 13 4
M  V30 15 1 14 5
M  V30 16 1 15 5
M  V30 17 1 16 6
M  V30 18 1 17 6
M  V30 19 1 18 7
M  V30 20 1 19 7
M  V30 21 1 8 20 CFG=3
M  V30 END BOND
M  V30 END CTAB
M  END
>  <i_epik_Tot_Q>  (1) 
0

>  <i_epik_Tot_abs_Q>  (1) 
0

>  <i_i_glide_confnum>  (1) 
1

>  <i_i_glide_lignum>  (1) 
35

>  <i_i_glide_posenum>  (1) 
142

>  <i_i_glide_rotatable_bonds>  (1) 
0

>  <i_lp_mmshare_version>  (1) 
72125

>  <i_m_source_file_index>  (1) 
32

>  <i_f3d_flags>  (1) 
0

>  <num_sample>  (1) 
100

>  <b_lp_Chiralities_Consistent>  (1) 
1

>  <r_epik_Charging_Adjusted_Penalty>  (1) 
0

>  <r_epik_Ionization_Penalty>  (1) 
2.3587344998035955e-11

>  <r_epik_Ionization_Penalty_Charging>  (1) 
0

>  <r_epik_Ionization_Penalty_Neutral>  (1) 
2.3587344998035955e-11

>  <r_epik_State_Penalty>  (1) 
-0

>  <r_glide_ring_energy>  (1) 
0

>  <r_i_docking_score>  (1) 
-4.6867969781798378

>  <r_i_glide_ecoul>  (1) 
-0.86561846424049649

>  <r_i_glide_eff_state_penalty>  (1) 
-0

>  <r_i_glide_einternal>  (1) 
0

>  <r_i_glide_emodel>  (1) 
-19.385078665652323

>  <r_i_glide_emodel_strain>  (1) 
0.00024492653416885446

>  <r_i_glide_energy>  (1) 
-14.975066964238206

>  <r_i_glide_erotb>  (1) 
0

>  <r_i_glide_esite>  (1) 
0

>  <r_i_glide_evdw>  (1) 
-14.109448499997709

>  <r_i_glide_gscore>  (1) 
-4.6867969781798378

>  <r_i_glide_gscore_strain>  (1) 
0

>  <r_i_glide_hbond>  (1) 
0

>  <r_i_glide_ligand_efficiency>  (1) 
-0.58584962227247972

>  <r_i_glide_ligand_efficiency_ln>  (1) 
-1.5219632893642103

>  <r_i_glide_ligand_efficiency_sa>  (1) 
-1.1716992445449597

>  <r_i_glide_lipo>  (1) 
-1.0932778413894719

>  <r_i_glide_metal>  (1) 
-0

>  <r_i_glide_rewards>  (1) 
-2.7582039421544065

>  <r_lp_Energy>  (1) 
15.613807

>  <r_lp_tautomer_probability>  (1) 
1

>  <s_epik_cmdline>  (1) 
J2VwaWtfcHl0aG9uJywgJy1waHQnLCAnMS4wJywgJy1waCcsICc3LjQnLCAnLXRuJywgJzgnLCAnLW1hJywgJzUwMCcsICctaW1hZScsICc8aW5maWxlLm1hZT4nLCAnLW9tYWUnLCAnPG91dGZpbGUubWFlPic=

>  <s_epik_input>  (1) 
TzFbQ0gyXVtDSDJdW0NASF0oW0NAXTEyW0NIM10pW0NIMl1bQ0gyXTI=

>  <s_glide_docking_method>  (1) 
confgen

>  <s_i_glide_gridfile>  (1) 
gpcr_drd2_6luq_protein_autoprepared_prepared

>  <s_lp_Force_Field>  (1) 
S-OPLS

>  <s_lp_Variant>  (1) 
Pocket2Mol_31_num_sample_100-1

>  <s_m_source_file>  (1) 
generated__ligand_Pocket2Mol_2026-05-06_prepared.sdf

>  <GenAI_Model>  (1) 
Pocket2Mol

>  <Protein>  (1) 
generic_title2

$$$$
Pocket2Mol_97_num_sample_100
     RDKit          3D

  0  0  0  0  0  0  0  0  0  0999 V3000
M  V30 BEGIN CTAB
M  V30 COUNTS 24 25 0 0 1
M  V30 BEGIN ATOM
M  V30 1 C 12.012640 9.513071 -6.351496 0
M  V30 2 O 10.659018 9.242848 -6.029347 0
M  V30 3 C 12.491387 8.637355 -7.516578 0
M  V30 4 O 11.519843 8.687742 -8.537337 0
M  V30 5 C 10.339523 7.863246 -5.975377 0
M  V30 6 C 10.598300 7.664277 -8.526777 0
M  V30 7 C 10.245445 7.044972 -9.742852 0
M  V30 8 C 9.996590 7.220483 -7.312314 0
M  V30 9 C 10.865115 7.512883 -11.030042 0
M  V30 10 C 9.317039 5.994454 -9.756586 0
M  V30 11 C 8.729722 5.562024 -8.561181 0
M  V30 12 F 7.834830 4.569301 -8.581461 0
M  V30 13 C 9.066679 6.169305 -7.345011 0
M  V30 14 H 12.642639 9.363302 -5.474422 0
M  V30 15 H 12.078718 10.569260 -6.609470 0
M  V30 16 H 12.634839 7.600927 -7.216093 0
M  V30 17 H 13.453417 8.969301 -7.902585 0
M  V30 18 H 9.434845 7.769385 -5.385634 0
M  V30 19 H 11.103839 7.287823 -5.449941 0
M  V30 20 H 11.946274 7.378786 -11.018078 0
M  V30 21 H 10.447757 7.007989 -11.901941 0
M  V30 22 H 10.634839 8.569301 -11.091689 0
M  V30 23 H 9.047267 5.522233 -10.689361 0
M  V30 24 H 8.602956 5.830817 -6.430823 0
M  V30 END ATOM
M  V30 BEGIN BOND
M  V30 1 1 2 1
M  V30 2 1 3 1
M  V30 3 1 4 3
M  V30 4 1 5 2
M  V30 5 1 6 4
M  V30 6 2 7 6
M  V30 7 1 8 5
M  V30 8 1 8 6
M  V30 9 1 9 7
M  V30 10 1 10 7
M  V30 11 2 11 10
M  V30 12 1 12 11
M  V30 13 2 13 8
M  V30 14 1 13 11
M  V30 15 1 14 1
M  V30 16 1 15 1
M  V30 17 1 16 3
M  V30 18 1 17 3
M  V30 19 1 18 5
M  V30 20 1 19 5
M  V30 21 1 20 9
M  V30 22 1 21 9
M  V30 23 1 22 9
M  V30 24 1 23 10
M  V30 25 1 24 13
M  V30 END BOND
M  V30 END CTAB
M  END
>  <i_epik_Tot_Q>  (1) 
0

>  <i_epik_Tot_abs_Q>  (1) 
0

>  <i_i_glide_confnum>  (1) 
2

>  <i_i_glide_lignum>  (1) 
106

>  <i_i_glide_posenum>  (1) 
214

>  <i_i_glide_rotatable_bonds>  (1) 
0

>  <i_lp_mmshare_version>  (1) 
72125

>  <i_m_source_file_index>  (1) 
98

>  <i_f3d_flags>  (1) 
0

>  <num_sample>  (1) 
100

>  <b_lp_Chiralities_Consistent>  (1) 
1

>  <r_epik_Charging_Adjusted_Penalty>  (1) 
0

>  <r_epik_Ionization_Penalty>  (1) 
1.3261073421285308e-13

>  <r_epik_Ionization_Penalty_Charging>  (1) 
0

>  <r_epik_Ionization_Penalty_Neutral>  (1) 
1.3261073421285308e-13

>  <r_epik_State_Penalty>  (1) 
-0

>  <r_glide_ring_energy>  (1) 
1.7623001670689571

>  <r_i_docking_score>  (1) 
-4.6828285332615476

>  <r_i_glide_ecoul>  (1) 
0.22910243811221309

>  <r_i_glide_eff_state_penalty>  (1) 
-0

>  <r_i_glide_einternal>  (1) 
0

>  <r_i_glide_emodel>  (1) 
-24.307392305121297

>  <r_i_glide_emodel_strain>  (1) 
0

>  <r_i_glide_energy>  (1) 
-18.186146057237011

>  <r_i_glide_erotb>  (1) 
0

>  <r_i_glide_esite>  (1) 
0

>  <r_i_glide_evdw>  (1) 
-18.415248495349225

>  <r_i_glide_gscore>  (1) 
-4.6828285332615476

>  <r_i_glide_gscore_strain>  (1) 
0

>  <r_i_glide_hbond>  (1) 
0

>  <r_i_glide_ligand_efficiency>  (1) 
-0.3602175794816575

>  <r_i_glide_ligand_efficiency_ln>  (1) 
-1.3135750507816497

>  <r_i_glide_ligand_efficiency_sa>  (1) 
-0.84699208976203044

>  <r_i_glide_lipo>  (1) 
-0.71356950862017143

>  <r_i_glide_metal>  (1) 
-0

>  <r_i_glide_rewards>  (1) 
-3.0828619655907463

>  <r_lp_Energy>  (1) 
15.481259999999999

>  <r_lp_tautomer_probability>  (1) 
1

>  <s_epik_cmdline>  (1) 
J2VwaWtfcHl0aG9uJywgJy1waHQnLCAnMS4wJywgJy1waCcsICc3LjQnLCAnLXRuJywgJzgnLCAnLW1hJywgJzUwMCcsICctaW1hZScsICc8aW5maWxlLm1hZT4nLCAnLW9tYWUnLCAnPG91dGZpbGUubWFlPic=

>  <s_epik_input>  (1) 
TzFbQ0gyXVtDSDJdT1tDSDJdYyhjMTIpW2NIXWMoRilbY0hdYzJbQ0gzXQ==

>  <s_glide_docking_method>  (1) 
confgen

>  <s_i_glide_gridfile>  (1) 
gpcr_drd2_6luq_protein_autoprepared_prepared

>  <s_lp_Force_Field>  (1) 
S-OPLS

>  <s_lp_Variant>  (1) 
Pocket2Mol_97_num_sample_100-1

>  <s_m_source_file>  (1) 
generated__ligand_Pocket2Mol_2026-05-06_prepared.sdf

>  <GenAI_Model>  (1) 
Pocket2Mol

>  <Protein>  (1) 
generic_title2

$$$$
Pocket2Mol_40_num_sample_100
     RDKit          3D

  0  0  0  0  0  0  0  0  0  0999 V3000
M  V30 BEGIN CTAB
M  V30 COUNTS 14 14 0 0 1
M  V30 BEGIN ATOM
M  V30 1 C 9.435506 6.687714 -7.591419 0
M  V30 2 O 10.496709 6.168979 -6.810035 0
M  V30 3 C 11.034864 7.042088 -5.899769 0
M  V30 4 C 9.834745 8.074155 -8.090164 0
M  V30 5 O 10.066534 8.909693 -6.968222 0
M  V30 6 C 10.831859 8.378850 -5.954137 0
M  V30 7 C 11.434836 9.368941 -4.921533 0
M  V30 8 O 11.146586 10.569369 -5.091666 0 CHG=-1
M  V30 9 O 12.145623 8.865592 -4.022532 0
M  V30 10 H 8.534798 6.738642 -6.980460 0
M  V30 11 H 9.229770 6.015503 -8.424157 0
M  V30 12 H 11.622763 6.540016 -5.144861 0
M  V30 13 H 9.038198 8.510476 -8.692579 0
M  V30 14 H 10.729061 8.027172 -8.712743 0
M  V30 END ATOM
M  V30 BEGIN BOND
M  V30 1 1 2 1
M  V30 2 1 3 2
M  V30 3 1 4 1
M  V30 4 1 5 4
M  V30 5 2 6 3
M  V30 6 1 6 5
M  V30 7 1 7 6
M  V30 8 1 8 7
M  V30 9 2 9 7
M  V30 10 1 10 1
M  V30 11 1 11 1
M  V30 12 1 12 3
M  V30 13 1 13 4
M  V30 14 1 14 4
M  V30 END BOND
M  V30 END CTAB
M  END
>  <i_epik_Tot_Q>  (1) 
-1

>  <i_epik_Tot_abs_Q>  (1) 
1

>  <i_i_glide_confnum>  (1) 
2

>  <i_i_glide_lignum>  (1) 
45

>  <i_i_glide_posenum>  (1) 
147

>  <i_i_glide_rotatable_bonds>  (1) 
1

>  <i_lp_mmshare_version>  (1) 
72125

>  <i_m_source_file_index>  (1) 
41

>  <i_f3d_flags>  (1) 
0

>  <num_sample>  (1) 
100

>  <b_lp_Chiralities_Consistent>  (1) 
1

>  <r_epik_Charging_Adjusted_Penalty>  (1) 
1.9393830553820406e-05

>  <r_epik_Ionization_Penalty>  (1) 
1.9393830553820406e-05

>  <r_epik_Ionization_Penalty_Charging>  (1) 
1.9393830553820406e-05

>  <r_epik_Ionization_Penalty_Neutral>  (1) 
0

>  <r_epik_State_Penalty>  (1) 
-0

>  <r_glide_ring_energy>  (1) 
0.00027798022993746121

>  <r_i_docking_score>  (1) 
-4.6777982432379295

>  <r_i_glide_ecoul>  (1) 
-1.1503716911824162

>  <r_i_glide_eff_state_penalty>  (1) 
-0

>  <r_i_glide_einternal>  (1) 
0.0082923412250104356

>  <r_i_glide_emodel>  (1) 
-23.938687402217408

>  <r_i_glide_emodel_strain>  (1) 
0

>  <r_i_glide_energy>  (1) 
-17.111089788073084

>  <r_i_glide_erotb>  (1) 
0

>  <r_i_glide_esite>  (1) 
0

>  <r_i_glide_evdw>  (1) 
-15.960718096890668

>  <r_i_glide_gscore>  (1) 
-4.6777982432379295

>  <r_i_glide_gscore_strain>  (1) 
0

>  <r_i_glide_hbond>  (1) 
0

>  <r_i_glide_ligand_efficiency>  (1) 
-0.51975536035976999

>  <r_i_glide_ligand_efficiency_ln>  (1) 
-1.4630809097355482

>  <r_i_glide_ligand_efficiency_sa>  (1) 
-1.0811347170288705

>  <r_i_glide_lipo>  (1) 
-0.54887325138270016

>  <r_i_glide_metal>  (1) 
-0

>  <r_i_glide_rewards>  (1) 
-3.1583333333333332

>  <r_lp_Energy>  (1) 
18.695968999999998

>  <r_lp_tautomer_probability>  (1) 
1

>  <s_epik_cmdline>  (1) 
J2VwaWtfcHl0aG9uJywgJy1waHQnLCAnMS4wJywgJy1waCcsICc3LjQnLCAnLXRuJywgJzgnLCAnLW1hJywgJzUwMCcsICctaW1hZScsICc8aW5maWxlLm1hZT4nLCAnLW9tYWUnLCAnPG91dGZpbGUubWFlPic=

>  <s_epik_input>  (1) 
TzFbQ0gyXVtDSDJdT1tDSF09QzFDKD1PKVtPSF0=

>  <s_glide_docking_method>  (1) 
confgen

>  <s_i_glide_gridfile>  (1) 
gpcr_drd2_6luq_protein_autoprepared_prepared

>  <s_lp_Force_Field>  (1) 
S-OPLS

>  <s_lp_Variant>  (1) 
Pocket2Mol_40_num_sample_100-1

>  <s_m_source_file>  (1) 
generated__ligand_Pocket2Mol_2026-05-06_prepared.sdf

>  <GenAI_Model>  (1) 
Pocket2Mol

>  <Protein>  (1) 
generic_title2

$$$$
Pocket2Mol_36_num_sample_100
     RDKit          3D

  0  0  0  0  0  0  0  0  0  0999 V3000
M  V30 BEGIN CTAB
M  V30 COUNTS 15 16 0 0 1
M  V30 BEGIN ATOM
M  V30 1 C 11.225644 8.969631 -6.442093 0
M  V30 2 O 11.763759 9.794097 -5.360930 0
M  V30 3 C 11.834839 8.870628 -4.398046 0
M  V30 4 C 11.434839 7.655696 -4.776167 0
M  V30 5 C 11.437168 6.569301 -3.891667 0
M  V30 6 C 11.881072 6.771812 -2.564194 0
M  V30 7 C 12.306806 8.063891 -2.160711 0
M  V30 8 C 12.281106 9.127005 -3.091671 0
M  V30 9 O 11.035025 7.580065 -6.047632 0
M  V30 10 H 11.901309 9.009894 -7.297411 0
M  V30 11 H 10.256493 9.369301 -6.741036 0
M  V30 12 H 11.105442 5.597629 -4.219286 0
M  V30 13 H 11.893220 5.949441 -1.863230 0
M  V30 14 H 12.646688 8.235045 -1.149882 0
M  V30 15 H 12.598555 10.116544 -2.802203 0
M  V30 END ATOM
M  V30 BEGIN BOND
M  V30 1 1 2 1
M  V30 2 1 3 2
M  V30 3 1 4 3
M  V30 4 2 5 4
M  V30 5 1 6 5
M  V30 6 2 7 6
M  V30 7 2 8 3
M  V30 8 1 8 7
M  V30 9 1 9 1
M  V30 10 1 9 4
M  V30 11 1 10 1
M  V30 12 1 11 1
M  V30 13 1 12 5
M  V30 14 1 13 6
M  V30 15 1 14 7
M  V30 16 1 15 8
M  V30 END BOND
M  V30 END CTAB
M  END
>  <i_epik_Tot_Q>  (1) 
0

>  <i_epik_Tot_abs_Q>  (1) 
0

>  <i_i_glide_confnum>  (1) 
1

>  <i_i_glide_lignum>  (1) 
41

>  <i_i_glide_posenum>  (1) 
87

>  <i_i_glide_rotatable_bonds>  (1) 
0

>  <i_lp_mmshare_version>  (1) 
72125

>  <i_m_source_file_index>  (1) 
37

>  <i_f3d_flags>  (1) 
0

>  <num_sample>  (1) 
100

>  <b_lp_Chiralities_Consistent>  (1) 
1

>  <r_epik_Charging_Adjusted_Penalty>  (1) 
0

>  <r_epik_Ionization_Penalty>  (1) 
0

>  <r_epik_Ionization_Penalty_Charging>  (1) 
0

>  <r_epik_Ionization_Penalty_Neutral>  (1) 
0

>  <r_epik_State_Penalty>  (1) 
-0

>  <r_glide_ring_energy>  (1) 
0

>  <r_i_docking_score>  (1) 
-4.6766741844016764

>  <r_i_glide_ecoul>  (1) 
-0.77383950663580792

>  <r_i_glide_eff_state_penalty>  (1) 
-0

>  <r_i_glide_einternal>  (1) 
0

>  <r_i_glide_emodel>  (1) 
-25.174387643681456

>  <r_i_glide_emodel_strain>  (1) 
0

>  <r_i_glide_energy>  (1) 
-19.196558623057118

>  <r_i_glide_erotb>  (1) 
0

>  <r_i_glide_esite>  (1) 
0

>  <r_i_glide_evdw>  (1) 
-18.422719116421309

>  <r_i_glide_gscore>  (1) 
-4.6766741844016764

>  <r_i_glide_gscore_strain>  (1) 
0

>  <r_i_glide_hbond>  (1) 
0

>  <r_i_glide_ligand_efficiency>  (1) 
-0.51963046493351961

>  <r_i_glide_ligand_efficiency_ln>  (1) 
-1.4627293364228002

>  <r_i_glide_ligand_efficiency_sa>  (1) 
-1.0808749240731541

>  <r_i_glide_lipo>  (1) 
-1.5844075062007246

>  <r_i_glide_metal>  (1) 
-0

>  <r_i_glide_rewards>  (1) 
-2.0550547963845158

>  <r_lp_Energy>  (1) 
19.342482

>  <r_lp_tautomer_probability>  (1) 
1

>  <s_epik_Chemistry_Notes>  (1) 
This compound contains an acetal/aminal-like group ( X-CH(R)-Y where X, Y are N, S, or O) that may be acid/base labile, releasing an aldehyde.

>  <s_epik_cmdline>  (1) 
J2VwaWtfcHl0aG9uJywgJy1waHQnLCAnMS4wJywgJy1waCcsICc3LjQnLCAnLXRuJywgJzgnLCAnLW1hJywgJzUwMCcsICctaW1hZScsICc8aW5maWxlLm1hZT4nLCAnLW9tYWUnLCAnPG91dGZpbGUubWFlPic=

>  <s_epik_input>  (1) 
TzFbQ0gyXU9jKGMxMilbY0hdW2NIXVtjSF1bY0hdMg==

>  <s_glide_docking_method>  (1) 
confgen

>  <s_i_glide_gridfile>  (1) 
gpcr_drd2_6luq_protein_autoprepared_prepared

>  <s_lp_Force_Field>  (1) 
S-OPLS

>  <s_lp_Variant>  (1) 
Pocket2Mol_36_num_sample_100-1

>  <s_m_source_file>  (1) 
generated__ligand_Pocket2Mol_2026-05-06_prepared.sdf

>  <GenAI_Model>  (1) 
Pocket2Mol

>  <Protein>  (1) 
generic_title2

$$$$
Pocket2Mol_20_num_sample_100
     RDKit          3D

  0  0  0  0  0  0  0  0  0  0999 V3000
M  V30 BEGIN CTAB
M  V30 COUNTS 12 12 0 0 1
M  V30 BEGIN ATOM
M  V30 1 N 9.435197 7.950190 -8.792276 0 CHG=1
M  V30 2 C 10.409158 7.939549 -9.727954 0
M  V30 3 C 11.744463 8.172761 -9.347040 0
M  V30 4 C 9.681285 8.177798 -7.482468 0
M  V30 5 O 12.732639 8.163935 -10.283396 0 CHG=-1
M  V30 6 C 12.047190 8.414638 -7.991684 0
M  V30 7 C 11.000995 8.417246 -7.045853 0
M  V30 8 H 10.098949 7.747081 -10.744935 0
M  V30 9 H 8.822510 8.161857 -6.827500 0
M  V30 10 H 8.475698 7.778785 -9.091685 0
M  V30 11 H 13.067563 8.595144 -7.685188 0
M  V30 12 H 11.212434 8.600530 -6.002914 0
M  V30 END ATOM
M  V30 BEGIN BOND
M  V30 1 1 2 1
M  V30 2 2 3 2
M  V30 3 2 4 1
M  V30 4 1 5 3
M  V30 5 1 6 3
M  V30 6 1 7 4
M  V30 7 2 7 6
M  V30 8 1 8 2
M  V30 9 1 9 4
M  V30 10 1 10 1
M  V30 11 1 11 6
M  V30 12 1 12 7
M  V30 END BOND
M  V30 END CTAB
M  END
>  <i_epik_Tot_Q>  (1) 
0

>  <i_epik_Tot_abs_Q>  (1) 
2

>  <i_i_glide_confnum>  (1) 
1

>  <i_i_glide_lignum>  (1) 
23

>  <i_i_glide_posenum>  (1) 
224

>  <i_i_glide_rotatable_bonds>  (1) 
0

>  <i_lp_mmshare_version>  (1) 
72125

>  <i_m_source_file_index>  (1) 
21

>  <i_f3d_flags>  (1) 
0

>  <num_sample>  (1) 
100

>  <b_lp_Chiralities_Consistent>  (1) 
1

>  <r_epik_Charging_Adjusted_Penalty>  (1) 
0.36510749842979956

>  <r_epik_Ionization_Penalty>  (1) 
0.025180683492302028

>  <r_epik_Ionization_Penalty_Charging>  (1) 
0.025180683492302028

>  <r_epik_Ionization_Penalty_Neutral>  (1) 
0

>  <r_epik_State_Penalty>  (1) 
0.33992681493749755

>  <r_glide_ring_energy>  (1) 
0

>  <r_i_docking_score>  (1) 
-4.6734894104267068

>  <r_i_glide_ecoul>  (1) 
-7.5830358766414916

>  <r_i_glide_eff_state_penalty>  (1) 
0.33992681493749755

>  <r_i_glide_einternal>  (1) 
0

>  <r_i_glide_emodel>  (1) 
-28.75465380065674

>  <r_i_glide_emodel_strain>  (1) 
0

>  <r_i_glide_energy>  (1) 
-18.98155019699076

>  <r_i_glide_erotb>  (1) 
0

>  <r_i_glide_esite>  (1) 
-0.10000000000000001

>  <r_i_glide_evdw>  (1) 
-11.398514320349268

>  <r_i_glide_gscore>  (1) 
-5.0134162253642041

>  <r_i_glide_gscore_strain>  (1) 
0

>  <r_i_glide_hbond>  (1) 
-0.20000000000000001

>  <r_i_glide_ligand_efficiency>  (1) 
-0.66764134434667244

>  <r_i_glide_ligand_efficiency_ln>  (1) 
-1.5864331136933654

>  <r_i_glide_ligand_efficiency_sa>  (1) 
-1.2771519465088281

>  <r_i_glide_lipo>  (1) 
-0.75603512785051663

>  <r_i_glide_metal>  (1) 
-0

>  <r_i_glide_rewards>  (1) 
-2.25

>  <r_lp_Energy>  (1) 
9.275188

>  <r_lp_tautomer_probability>  (1) 
0.56342000000000003

>  <s_epik_cmdline>  (1) 
J2VwaWtfcHl0aG9uJywgJy1waHQnLCAnMS4wJywgJy1waCcsICc3LjQnLCAnLXRuJywgJzgnLCAnLW1hJywgJzUwMCcsICctaW1hZScsICc8aW5maWxlLm1hZT4nLCAnLW9tYWUnLCAnPG91dGZpbGUubWFlPic=

>  <s_epik_input>  (1) 
W2NIXTFbY0hdW2NIXW5bY0hdYzFbT0hd

>  <s_glide_docking_method>  (1) 
confgen

>  <s_i_glide_gridfile>  (1) 
gpcr_drd2_6luq_protein_autoprepared_prepared

>  <s_lp_Force_Field>  (1) 
S-OPLS

>  <s_lp_Variant>  (1) 
Pocket2Mol_20_num_sample_100-1

>  <s_m_source_file>  (1) 
generated__ligand_Pocket2Mol_2026-05-06_prepared.sdf

>  <GenAI_Model>  (1) 
Pocket2Mol

>  <Protein>  (1) 
generic_title2

$$$$
Pocket2Mol_44_num_sample_100
     RDKit          3D

  0  0  0  0  0  0  0  0  0  0999 V3000
M  V30 BEGIN CTAB
M  V30 COUNTS 8 8 0 0 1
M  V30 BEGIN ATOM
M  V30 1 N 11.434840 8.009069 -4.692674 0
M  V30 2 C 12.076814 8.974065 -3.900906 0
M  V30 3 C 12.558881 8.453417 -2.713442 0
M  V30 4 C 11.436303 6.805611 -4.131347 0
M  V30 5 S 12.220774 6.741693 -2.575682 0
M  V30 6 H 12.140752 9.994018 -4.250610 0
M  V30 7 H 13.085658 8.969202 -1.921742 0
M  V30 8 H 10.976519 5.963641 -4.627624 0
M  V30 END ATOM
M  V30 BEGIN BOND
M  V30 1 1 2 1
M  V30 2 2 3 2
M  V30 3 2 4 1
M  V30 4 1 5 3
M  V30 5 1 5 4
M  V30 6 1 6 2
M  V30 7 1 7 3
M  V30 8 1 8 4
M  V30 END BOND
M  V30 END CTAB
M  END
>  <i_epik_Tot_Q>  (1) 
0

>  <i_epik_Tot_abs_Q>  (1) 
0

>  <i_i_glide_confnum>  (1) 
1

>  <i_i_glide_lignum>  (1) 
49

>  <i_i_glide_posenum>  (1) 
9

>  <i_i_glide_rotatable_bonds>  (1) 
0

>  <i_lp_mmshare_version>  (1) 
72125

>  <i_m_source_file_index>  (1) 
45

>  <i_f3d_flags>  (1) 
0

>  <num_sample>  (1) 
100

>  <b_lp_Chiralities_Consistent>  (1) 
1

>  <r_epik_Charging_Adjusted_Penalty>  (1) 
0

>  <r_epik_Ionization_Penalty>  (1) 
1.4882382677604034e-05

>  <r_epik_Ionization_Penalty_Charging>  (1) 
0

>  <r_epik_Ionization_Penalty_Neutral>  (1) 
1.4882382677604034e-05

>  <r_epik_State_Penalty>  (1) 
-0

>  <r_glide_ring_energy>  (1) 
0

>  <r_i_docking_score>  (1) 
-4.671875578278871

>  <r_i_glide_ecoul>  (1) 
-1.5892772396052774

>  <r_i_glide_eff_state_penalty>  (1) 
-0

>  <r_i_glide_einternal>  (1) 
0

>  <r_i_glide_emodel>  (1) 
-20.343393855791376

>  <r_i_glide_emodel_strain>  (1) 
0

>  <r_i_glide_energy>  (1) 
-15.560434063048458

>  <r_i_glide_erotb>  (1) 
0

>  <r_i_glide_esite>  (1) 
0

>  <r_i_glide_evdw>  (1) 
-13.971156823443181

>  <r_i_glide_gscore>  (1) 
-4.671875578278871

>  <r_i_glide_gscore_strain>  (1) 
0

>  <r_i_glide_hbond>  (1) 
0

>  <r_i_glide_ligand_efficiency>  (1) 
-0.93437511565577425

>  <r_i_glide_ligand_efficiency_ln>  (1) 
-1.7903762170454998

>  <r_i_glide_ligand_efficiency_sa>  (1) 
-1.5977589729446307

>  <r_i_glide_lipo>  (1) 
-1.2513547908502716

>  <r_i_glide_metal>  (1) 
-0

>  <r_i_glide_rewards>  (1) 
-2.4835713603156493

>  <r_lp_Energy>  (1) 
1.6688799999999999

>  <r_lp_tautomer_probability>  (1) 
1

>  <s_epik_cmdline>  (1) 
J2VwaWtfcHl0aG9uJywgJy1waHQnLCAnMS4wJywgJy1waCcsICc3LjQnLCAnLXRuJywgJzgnLCAnLW1hJywgJzUwMCcsICctaW1hZScsICc8aW5maWxlLm1hZT4nLCAnLW9tYWUnLCAnPG91dGZpbGUubWFlPic=

>  <s_epik_input>  (1) 
bjFbY0hdW2NIXXNbY0hdMQ==

>  <s_glide_docking_method>  (1) 
confgen

>  <s_i_glide_gridfile>  (1) 
gpcr_drd2_6luq_protein_autoprepared_prepared

>  <s_lp_Force_Field>  (1) 
S-OPLS

>  <s_lp_Variant>  (1) 
Pocket2Mol_44_num_sample_100-1

>  <s_m_source_file>  (1) 
generated__ligand_Pocket2Mol_2026-05-06_prepared.sdf

>  <GenAI_Model>  (1) 
Pocket2Mol

>  <Protein>  (1) 
generic_title2

$$$$
Pocket2Mol_16_num_sample_100
     RDKit          3D

  0  0  0  0  0  0  0  0  0  0999 V3000
M  V30 BEGIN CTAB
M  V30 COUNTS 19 19 0 0 1
M  V30 BEGIN ATOM
M  V30 1 C 9.434839 8.140115 -7.820186 0
M  V30 2 O 9.721141 8.569301 -6.492329 0
M  V30 3 C 11.056862 8.249802 -6.142762 0
M  V30 4 C 11.586660 9.332273 -5.187139 0
M  V30 5 C 11.034839 6.860358 -5.477551 0
M  V30 6 C 10.756770 7.709306 -8.451057 0
M  V30 7 C 11.785775 8.265380 -7.491667 0
M  V30 8 H 8.718721 7.317767 -7.805454 0
M  V30 9 H 8.990127 8.969301 -8.369839 0
M  V30 10 H 12.636348 9.167018 -4.946012 0
M  V30 11 H 11.034839 9.343628 -4.248512 0
M  V30 12 H 11.500263 10.325646 -5.628978 0
M  V30 13 H 12.010451 6.569301 -5.092859 0
M  V30 14 H 10.337691 6.841444 -4.642147 0
M  V30 15 H 10.710449 6.083749 -6.169305 0
M  V30 16 H 10.818355 6.620961 -8.485766 0
M  V30 17 H 10.879223 8.084126 -9.467590 0
M  V30 18 H 12.025020 9.289541 -7.780537 0
M  V30 19 H 12.711728 7.692821 -7.491667 0
M  V30 END ATOM
M  V30 BEGIN BOND
M  V30 1 1 2 1
M  V30 2 1 3 2
M  V30 3 1 4 3
M  V30 4 1 5 3
M  V30 5 1 6 1
M  V30 6 1 7 3
M  V30 7 1 7 6
M  V30 8 1 8 1
M  V30 9 1 9 1
M  V30 10 1 10 4
M  V30 11 1 11 4
M  V30 12 1 12 4
M  V30 13 1 13 5
M  V30 14 1 14 5
M  V30 15 1 15 5
M  V30 16 1 16 6
M  V30 17 1 17 6
M  V30 18 1 18 7
M  V30 19 1 19 7
M  V30 END BOND
M  V30 END CTAB
M  END
>  <i_epik_Tot_Q>  (1) 
0

>  <i_epik_Tot_abs_Q>  (1) 
0

>  <i_i_glide_confnum>  (1) 
1

>  <i_i_glide_lignum>  (1) 
19

>  <i_i_glide_posenum>  (1) 
114

>  <i_i_glide_rotatable_bonds>  (1) 
0

>  <i_lp_mmshare_version>  (1) 
72125

>  <i_m_source_file_index>  (1) 
17

>  <i_f3d_flags>  (1) 
0

>  <num_sample>  (1) 
100

>  <b_lp_Chiralities_Consistent>  (1) 
1

>  <r_epik_Charging_Adjusted_Penalty>  (1) 
0

>  <r_epik_Ionization_Penalty>  (1) 
1.3889264151150229e-11

>  <r_epik_Ionization_Penalty_Charging>  (1) 
0

>  <r_epik_Ionization_Penalty_Neutral>  (1) 
1.3889264151150229e-11

>  <r_epik_State_Penalty>  (1) 
-0

>  <r_glide_ring_energy>  (1) 
0

>  <r_i_docking_score>  (1) 
-4.6696560896727659

>  <r_i_glide_ecoul>  (1) 
-0.39817198078993027

>  <r_i_glide_eff_state_penalty>  (1) 
-0

>  <r_i_glide_einternal>  (1) 
0

>  <r_i_glide_emodel>  (1) 
-21.322042895450338

>  <r_i_glide_emodel_strain>  (1) 
0.40985434643354957

>  <r_i_glide_energy>  (1) 
-16.71869533046068

>  <r_i_glide_erotb>  (1) 
0

>  <r_i_glide_esite>  (1) 
0

>  <r_i_glide_evdw>  (1) 
-16.320523349670751

>  <r_i_glide_gscore>  (1) 
-4.6696560896727659

>  <r_i_glide_gscore_strain>  (1) 
0

>  <r_i_glide_hbond>  (1) 
0

>  <r_i_glide_ligand_efficiency>  (1) 
-0.66709372709610937

>  <r_i_glide_ligand_efficiency_ln>  (1) 
-1.5851318789102304

>  <r_i_glide_ligand_efficiency_sa>  (1) 
-1.2761043923940021

>  <r_i_glide_lipo>  (1) 
-1.1193811914204623

>  <r_i_glide_metal>  (1) 
-0

>  <r_i_glide_rewards>  (1) 
-2.6745229336502772

>  <r_lp_Energy>  (1) 
0.043719999999999995

>  <r_lp_tautomer_probability>  (1) 
1

>  <s_epik_cmdline>  (1) 
J2VwaWtfcHl0aG9uJywgJy1waHQnLCAnMS4wJywgJy1waCcsICc3LjQnLCAnLXRuJywgJzgnLCAnLW1hJywgJzUwMCcsICctaW1hZScsICc8aW5maWxlLm1hZT4nLCAnLW9tYWUnLCAnPG91dGZpbGUubWFlPic=

>  <s_epik_input>  (1) 
W0NIMl0xW0NIMl1bQ0gyXU9DMShbQ0gzXSlbQ0gzXQ==

>  <s_glide_docking_method>  (1) 
confgen

>  <s_i_glide_gridfile>  (1) 
gpcr_drd2_6luq_protein_autoprepared_prepared

>  <s_lp_Force_Field>  (1) 
S-OPLS

>  <s_lp_Variant>  (1) 
Pocket2Mol_16_num_sample_100-1

>  <s_m_source_file>  (1) 
generated__ligand_Pocket2Mol_2026-05-06_prepared.sdf

>  <GenAI_Model>  (1) 
Pocket2Mol

>  <Protein>  (1) 
generic_title2

$$$$
Pocket2Mol_7_num_sample_100
     RDKit          3D

  0  0  0  0  0  0  0  0  0  0999 V3000
M  V30 BEGIN CTAB
M  V30 COUNTS 11 11 0 0 1
M  V30 BEGIN ATOM
M  V30 1 N 11.834839 6.569290 -3.142303 0
M  V30 2 C 11.434840 6.686704 -4.430670 0
M  V30 3 C 11.416381 7.911459 -5.128598 0
M  V30 4 C 11.834794 9.072984 -4.463194 0
M  V30 5 C 12.254060 8.964955 -3.129540 0
M  V30 6 C 12.237500 7.698673 -2.515113 0
M  V30 7 H 11.117621 5.775946 -4.917770 0
M  V30 8 H 11.085432 7.953563 -6.156294 0
M  V30 9 H 11.833695 10.028685 -4.966455 0
M  V30 10 H 12.584755 9.834332 -2.583319 0
M  V30 11 H 12.557941 7.587817 -1.491713 0
M  V30 END ATOM
M  V30 BEGIN BOND
M  V30 1 2 2 1
M  V30 2 1 3 2
M  V30 3 2 4 3
M  V30 4 1 5 4
M  V30 5 1 6 1
M  V30 6 2 6 5
M  V30 7 1 7 2
M  V30 8 1 8 3
M  V30 9 1 9 4
M  V30 10 1 10 5
M  V30 11 1 11 6
M  V30 END BOND
M  V30 END CTAB
M  END
>  <i_epik_Tot_Q>  (1) 
0

>  <i_epik_Tot_abs_Q>  (1) 
0

>  <i_i_glide_confnum>  (1) 
1

>  <i_i_glide_lignum>  (1) 
8

>  <i_i_glide_posenum>  (1) 
243

>  <i_i_glide_rotatable_bonds>  (1) 
0

>  <i_lp_mmshare_version>  (1) 
72125

>  <i_m_source_file_index>  (1) 
8

>  <i_f3d_flags>  (1) 
0

>  <num_sample>  (1) 
100

>  <b_lp_Chiralities_Consistent>  (1) 
1

>  <r_epik_Charging_Adjusted_Penalty>  (1) 
0

>  <r_epik_Ionization_Penalty>  (1) 
0.0028947865417402485

>  <r_epik_Ionization_Penalty_Charging>  (1) 
0

>  <r_epik_Ionization_Penalty_Neutral>  (1) 
0.0028947865417402485

>  <r_epik_State_Penalty>  (1) 
-0

>  <r_glide_ring_energy>  (1) 
0

>  <r_i_docking_score>  (1) 
-4.6661409700792165

>  <r_i_glide_ecoul>  (1) 
-0.11468770140989343

>  <r_i_glide_eff_state_penalty>  (1) 
-0

>  <r_i_glide_einternal>  (1) 
0

>  <r_i_glide_emodel>  (1) 
-18.869290745042189

>  <r_i_glide_emodel_strain>  (1) 
0

>  <r_i_glide_energy>  (1) 
-14.38480829786187

>  <r_i_glide_erotb>  (1) 
0

>  <r_i_glide_esite>  (1) 
0

>  <r_i_glide_evdw>  (1) 
-14.270120596451976

>  <r_i_glide_gscore>  (1) 
-4.6661409700792165

>  <r_i_glide_gscore_strain>  (1) 
0

>  <r_i_glide_hbond>  (1) 
0

>  <r_i_glide_ligand_efficiency>  (1) 
-0.77769016167986937

>  <r_i_glide_ligand_efficiency_ln>  (1) 
-1.6713979200254827

>  <r_i_glide_ligand_efficiency_sa>  (1) 
-1.4131568076314469

>  <r_i_glide_lipo>  (1) 
-1.485431785045134

>  <r_i_glide_metal>  (1) 
-0

>  <r_i_glide_rewards>  (1) 
-2.4500000000000002

>  <r_lp_Energy>  (1) 
11.088944

>  <r_lp_tautomer_probability>  (1) 
1

>  <s_epik_cmdline>  (1) 
J2VwaWtfcHl0aG9uJywgJy1waHQnLCAnMS4wJywgJy1waCcsICc3LjQnLCAnLXRuJywgJzgnLCAnLW1hJywgJzUwMCcsICctaW1hZScsICc8aW5maWxlLm1hZT4nLCAnLW9tYWUnLCAnPG91dGZpbGUubWFlPic=

>  <s_epik_input>  (1) 
bjFbY0hdW2NIXVtjSF1bY0hdW2NIXTE=

>  <s_glide_docking_method>  (1) 
confgen

>  <s_i_glide_gridfile>  (1) 
gpcr_drd2_6luq_protein_autoprepared_prepared

>  <s_lp_Force_Field>  (1) 
S-OPLS

>  <s_lp_Variant>  (1) 
Pocket2Mol_7_num_sample_100-1

>  <s_m_source_file>  (1) 
generated__ligand_Pocket2Mol_2026-05-06_prepared.sdf

>  <GenAI_Model>  (1) 
Pocket2Mol

>  <Protein>  (1) 
generic_title2

$$$$
Pocket2Mol_20_num_sample_100
     RDKit          3D

  0  0  0  0  0  0  0  0  0  0999 V3000
M  V30 BEGIN CTAB
M  V30 COUNTS 12 12 0 0 1
M  V30 BEGIN ATOM
M  V30 1 N 11.872959 8.632467 -7.306315 0
M  V30 2 C 11.243273 8.567852 -8.498920 0
M  V30 3 C 10.031019 7.874840 -8.696096 0
M  V30 4 C 11.306696 7.999574 -6.257292 0
M  V30 5 O 9.437386 7.842325 -9.925107 0
M  V30 6 C 9.448299 7.217612 -7.594639 0
M  V30 7 C 10.098838 7.280445 -6.348128 0
M  V30 8 H 11.720625 9.083988 -9.319033 0
M  V30 9 H 11.832148 8.068137 -5.316219 0
M  V30 10 H 8.495831 7.769345 -9.887380 0
M  V30 11 H 8.520422 6.674892 -7.700269 0
M  V30 12 H 9.682927 6.789398 -5.480960 0
M  V30 END ATOM
M  V30 BEGIN BOND
M  V30 1 2 2 1
M  V30 2 1 3 2
M  V30 3 1 4 1
M  V30 4 1 5 3
M  V30 5 2 6 3
M  V30 6 2 7 4
M  V30 7 1 7 6
M  V30 8 1 8 2
M  V30 9 1 9 4
M  V30 10 1 10 5
M  V30 11 1 11 6
M  V30 12 1 12 7
M  V30 END BOND
M  V30 END CTAB
M  END
>  <i_epik_Tot_Q>  (1) 
0

>  <i_epik_Tot_abs_Q>  (1) 
0

>  <i_i_glide_confnum>  (1) 
1

>  <i_i_glide_lignum>  (1) 
24

>  <i_i_glide_posenum>  (1) 
99

>  <i_i_glide_rotatable_bonds>  (1) 
1

>  <i_lp_mmshare_version>  (1) 
72125

>  <i_m_source_file_index>  (1) 
21

>  <i_f3d_flags>  (1) 
0

>  <num_sample>  (1) 
100

>  <b_lp_Chiralities_Consistent>  (1) 
1

>  <r_epik_Charging_Adjusted_Penalty>  (1) 
0.49104251329211085

>  <r_epik_Ionization_Penalty>  (1) 
0.049438115990627488

>  <r_epik_Ionization_Penalty_Charging>  (1) 
0

>  <r_epik_Ionization_Penalty_Neutral>  (1) 
0.049438115990627488

>  <r_epik_State_Penalty>  (1) 
0.49104251329211085

>  <r_glide_ring_energy>  (1) 
0

>  <r_i_docking_score>  (1) 
-4.6625526331881026

>  <r_i_glide_ecoul>  (1) 
-8.5944752331555456

>  <r_i_glide_eff_state_penalty>  (1) 
0.49104251329211085

>  <r_i_glide_einternal>  (1) 
0.82479387358257306

>  <r_i_glide_emodel>  (1) 
-26.827365354101637

>  <r_i_glide_emodel_strain>  (1) 
0.21584569949988541

>  <r_i_glide_energy>  (1) 
-19.785733135371601

>  <r_i_glide_erotb>  (1) 
0

>  <r_i_glide_esite>  (1) 
0

>  <r_i_glide_evdw>  (1) 
-11.191257902216053

>  <r_i_glide_gscore>  (1) 
-5.1535951464802139

>  <r_i_glide_gscore_strain>  (1) 
0

>  <r_i_glide_hbond>  (1) 
-0.16

>  <r_i_glide_ligand_efficiency>  (1) 
-0.66607894759830033

>  <r_i_glide_ligand_efficiency_ln>  (1) 
-1.5827205845647661

>  <r_i_glide_ligand_efficiency_sa>  (1) 
-1.2741631890490051

>  <r_i_glide_lipo>  (1) 
-0.64370124538302731

>  <r_i_glide_metal>  (1) 
-0

>  <r_i_glide_rewards>  (1) 
-2.5011597210130518

>  <r_lp_Energy>  (1) 
10.560834

>  <r_lp_tautomer_probability>  (1) 
0.43658000000000002

>  <s_epik_cmdline>  (1) 
J2VwaWtfcHl0aG9uJywgJy1waHQnLCAnMS4wJywgJy1waCcsICc3LjQnLCAnLXRuJywgJzgnLCAnLW1hJywgJzUwMCcsICctaW1hZScsICc8aW5maWxlLm1hZT4nLCAnLW9tYWUnLCAnPG91dGZpbGUubWFlPic=

>  <s_epik_input>  (1) 
W2NIXTFbY0hdW2NIXW5bY0hdYzFbT0hd

>  <s_glide_docking_method>  (1) 
confgen

>  <s_i_glide_gridfile>  (1) 
gpcr_drd2_6luq_protein_autoprepared_prepared

>  <s_lp_Force_Field>  (1) 
S-OPLS

>  <s_lp_Variant>  (1) 
Pocket2Mol_20_num_sample_100-2

>  <s_m_source_file>  (1) 
generated__ligand_Pocket2Mol_2026-05-06_prepared.sdf

>  <GenAI_Model>  (1) 
Pocket2Mol

>  <Protein>  (1) 
generic_title2

$$$$
Pocket2Mol_16_num_sample_100
     RDKit          3D

  0  0  0  0  0  0  0  0  0  0999 V3000
M  V30 BEGIN CTAB
M  V30 COUNTS 19 19 0 0 1
M  V30 BEGIN ATOM
M  V30 1 C 11.872853 8.558252 -9.226845 0
M  V30 2 O 12.190512 7.983071 -7.967448 0
M  V30 3 C 11.005109 7.864603 -7.180587 0
M  V30 4 C 10.995174 6.474602 -6.539226 0
M  V30 5 C 11.038190 8.962931 -6.108311 0
M  V30 6 C 10.493950 7.994729 -9.530003 0
M  V30 7 C 9.834887 8.022537 -8.166633 0
M  V30 8 H 11.835053 9.644972 -9.136879 0
M  V30 9 H 12.611714 8.300034 -9.985869 0
M  V30 10 H 10.081227 6.313355 -5.965879 0
M  V30 11 H 11.834842 6.331076 -5.861774 0
M  V30 12 H 11.046320 5.694465 -7.299410 0
M  V30 13 H 10.139138 8.935005 -5.497164 0
M  V30 14 H 11.894403 8.840763 -5.445111 0
M  V30 15 H 11.112085 9.953386 -6.553539 0
M  V30 16 H 9.945286 8.569301 -10.276614 0
M  V30 17 H 10.577693 6.966416 -9.883417 0
M  V30 18 H 9.076929 7.243594 -8.068652 0
M  V30 19 H 9.319938 8.969545 -8.018719 0
M  V30 END ATOM
M  V30 BEGIN BOND
M  V30 1 1 2 1
M  V30 2 1 3 2
M  V30 3 1 4 3
M  V30 4 1 5 3
M  V30 5 1 6 1
M  V30 6 1 7 3
M  V30 7 1 7 6
M  V30 8 1 8 1
M  V30 9 1 9 1
M  V30 10 1 10 4
M  V30 11 1 11 4
M  V30 12 1 12 4
M  V30 13 1 13 5
M  V30 14 1 14 5
M  V30 15 1 15 5
M  V30 16 1 16 6
M  V30 17 1 17 6
M  V30 18 1 18 7
M  V30 19 1 19 7
M  V30 END BOND
M  V30 END CTAB
M  END
>  <i_epik_Tot_Q>  (1) 
0

>  <i_epik_Tot_abs_Q>  (1) 
0

>  <i_i_glide_confnum>  (1) 
3

>  <i_i_glide_lignum>  (1) 
19

>  <i_i_glide_posenum>  (1) 
154

>  <i_i_glide_rotatable_bonds>  (1) 
0

>  <i_lp_mmshare_version>  (1) 
72125

>  <i_m_source_file_index>  (1) 
17

>  <i_f3d_flags>  (1) 
0

>  <num_sample>  (1) 
100

>  <b_lp_Chiralities_Consistent>  (1) 
1

>  <r_epik_Charging_Adjusted_Penalty>  (1) 
0

>  <r_epik_Ionization_Penalty>  (1) 
1.3889264151150229e-11

>  <r_epik_Ionization_Penalty_Charging>  (1) 
0

>  <r_epik_Ionization_Penalty_Neutral>  (1) 
1.3889264151150229e-11

>  <r_epik_State_Penalty>  (1) 
-0

>  <r_glide_ring_energy>  (1) 
0.26153915213888035

>  <r_i_docking_score>  (1) 
-4.6560660906964486

>  <r_i_glide_ecoul>  (1) 
-0.49150829110658611

>  <r_i_glide_eff_state_penalty>  (1) 
-0

>  <r_i_glide_einternal>  (1) 
0

>  <r_i_glide_emodel>  (1) 
-22.183266784438651

>  <r_i_glide_emodel_strain>  (1) 
0

>  <r_i_glide_energy>  (1) 
-17.184654685955845

>  <r_i_glide_erotb>  (1) 
0

>  <r_i_glide_esite>  (1) 
0

>  <r_i_glide_evdw>  (1) 
-16.693146394849258

>  <r_i_glide_gscore>  (1) 
-4.6560660906964486

>  <r_i_glide_gscore_strain>  (1) 
0

>  <r_i_glide_hbond>  (1) 
0

>  <r_i_glide_ligand_efficiency>  (1) 
-0.66515229867092118

>  <r_i_glide_ligand_efficiency_ln>  (1) 
-1.5805187039358763

>  <r_i_glide_ligand_efficiency_sa>  (1) 
-1.2723905734203389

>  <r_i_glide_lipo>  (1) 
-0.98995652704519621

>  <r_i_glide_metal>  (1) 
-0

>  <r_i_glide_rewards>  (1) 
-2.7577260002428012

>  <r_lp_Energy>  (1) 
0.043719999999999995

>  <r_lp_tautomer_probability>  (1) 
1

>  <s_epik_cmdline>  (1) 
J2VwaWtfcHl0aG9uJywgJy1waHQnLCAnMS4wJywgJy1waCcsICc3LjQnLCAnLXRuJywgJzgnLCAnLW1hJywgJzUwMCcsICctaW1hZScsICc8aW5maWxlLm1hZT4nLCAnLW9tYWUnLCAnPG91dGZpbGUubWFlPic=

>  <s_epik_input>  (1) 
W0NIMl0xW0NIMl1bQ0gyXU9DMShbQ0gzXSlbQ0gzXQ==

>  <s_glide_docking_method>  (1) 
confgen

>  <s_i_glide_gridfile>  (1) 
gpcr_drd2_6luq_protein_autoprepared_prepared

>  <s_lp_Force_Field>  (1) 
S-OPLS

>  <s_lp_Variant>  (1) 
Pocket2Mol_16_num_sample_100-1

>  <s_m_source_file>  (1) 
generated__ligand_Pocket2Mol_2026-05-06_prepared.sdf

>  <GenAI_Model>  (1) 
Pocket2Mol

>  <Protein>  (1) 
generic_title2

$$$$
Pocket2Mol_40_num_sample_100
     RDKit          3D

  0  0  0  0  0  0  0  0  0  0999 V3000
M  V30 BEGIN CTAB
M  V30 COUNTS 14 14 0 0 1
M  V30 BEGIN ATOM
M  V30 1 C 9.730974 7.855950 -6.975225 0
M  V30 2 O 10.602902 8.968845 -6.900968 0
M  V30 3 C 11.305940 9.094994 -5.727899 0
M  V30 4 C 10.455017 6.627470 -6.435729 0
M  V30 5 O 10.860224 6.861532 -5.093793 0
M  V30 6 C 11.434844 8.087319 -4.830842 0
M  V30 7 C 12.234810 8.244018 -3.493376 0
M  V30 8 O 12.291224 7.229509 -2.764109 0 CHG=-1
M  V30 9 O 12.736371 9.368654 -3.287679 0
M  V30 10 H 9.428305 7.701701 -8.011284 0
M  V30 11 H 8.826351 8.058917 -6.399905 0
M  V30 12 H 11.729088 10.081776 -5.605682 0
M  V30 13 H 11.327299 6.387883 -7.045570 0
M  V30 14 H 9.788191 5.769301 -6.466191 0
M  V30 END ATOM
M  V30 BEGIN BOND
M  V30 1 1 2 1
M  V30 2 1 3 2
M  V30 3 1 4 1
M  V30 4 1 5 4
M  V30 5 2 6 3
M  V30 6 1 6 5
M  V30 7 1 7 6
M  V30 8 1 8 7
M  V30 9 2 9 7
M  V30 10 1 10 1
M  V30 11 1 11 1
M  V30 12 1 12 3
M  V30 13 1 13 4
M  V30 14 1 14 4
M  V30 END BOND
M  V30 END CTAB
M  END
>  <i_epik_Tot_Q>  (1) 
-1

>  <i_epik_Tot_abs_Q>  (1) 
1

>  <i_i_glide_confnum>  (1) 
1

>  <i_i_glide_lignum>  (1) 
45

>  <i_i_glide_posenum>  (1) 
9

>  <i_i_glide_rotatable_bonds>  (1) 
1

>  <i_lp_mmshare_version>  (1) 
72125

>  <i_m_source_file_index>  (1) 
41

>  <i_f3d_flags>  (1) 
0

>  <num_sample>  (1) 
100

>  <b_lp_Chiralities_Consistent>  (1) 
1

>  <r_epik_Charging_Adjusted_Penalty>  (1) 
1.9393830553820406e-05

>  <r_epik_Ionization_Penalty>  (1) 
1.9393830553820406e-05

>  <r_epik_Ionization_Penalty_Charging>  (1) 
1.9393830553820406e-05

>  <r_epik_Ionization_Penalty_Neutral>  (1) 
0

>  <r_epik_State_Penalty>  (1) 
-0

>  <r_glide_ring_energy>  (1) 
0

>  <r_i_docking_score>  (1) 
-4.654899521966362

>  <r_i_glide_ecoul>  (1) 
-0.48047579345153191

>  <r_i_glide_eff_state_penalty>  (1) 
-0

>  <r_i_glide_einternal>  (1) 
0.0050881695280891037

>  <r_i_glide_emodel>  (1) 
-23.442598808330306

>  <r_i_glide_emodel_strain>  (1) 
0

>  <r_i_glide_energy>  (1) 
-16.64684180693019

>  <r_i_glide_erotb>  (1) 
0

>  <r_i_glide_esite>  (1) 
0

>  <r_i_glide_evdw>  (1) 
-16.166366013478658

>  <r_i_glide_gscore>  (1) 
-4.654899521966362

>  <r_i_glide_gscore_strain>  (1) 
0

>  <r_i_glide_hbond>  (1) 
0

>  <r_i_glide_ligand_efficiency>  (1) 
-0.51721105799626244

>  <r_i_glide_ligand_efficiency_ln>  (1) 
-1.4559188475413918

>  <r_i_glide_ligand_efficiency_sa>  (1) 
-1.0758423548415859

>  <r_i_glide_lipo>  (1) 
-0.73284318560803241

>  <r_i_glide_metal>  (1) 
-0

>  <r_i_glide_rewards>  (1) 
-3.041666666666667

>  <r_lp_Energy>  (1) 
18.695968999999998

>  <r_lp_tautomer_probability>  (1) 
1

>  <s_epik_cmdline>  (1) 
J2VwaWtfcHl0aG9uJywgJy1waHQnLCAnMS4wJywgJy1waCcsICc3LjQnLCAnLXRuJywgJzgnLCAnLW1hJywgJzUwMCcsICctaW1hZScsICc8aW5maWxlLm1hZT4nLCAnLW9tYWUnLCAnPG91dGZpbGUubWFlPic=

>  <s_epik_input>  (1) 
TzFbQ0gyXVtDSDJdT1tDSF09QzFDKD1PKVtPSF0=

>  <s_glide_docking_method>  (1) 
confgen

>  <s_i_glide_gridfile>  (1) 
gpcr_drd2_6luq_protein_autoprepared_prepared

>  <s_lp_Force_Field>  (1) 
S-OPLS

>  <s_lp_Variant>  (1) 
Pocket2Mol_40_num_sample_100-1

>  <s_m_source_file>  (1) 
generated__ligand_Pocket2Mol_2026-05-06_prepared.sdf

>  <GenAI_Model>  (1) 
Pocket2Mol

>  <Protein>  (1) 
generic_title2

$$$$
Pocket2Mol_87_num_sample_100
     RDKit          3D

  0  0  0  0  0  0  0  0  0  0999 V3000
M  V30 BEGIN CTAB
M  V30 COUNTS 21 22 0 0 1
M  V30 BEGIN ATOM
M  V30 1 C 10.760309 8.601788 -6.767582 0
M  V30 2 O 11.831964 8.385075 -7.671533 0
M  V30 3 C 10.463684 7.298095 -6.053623 0
M  V30 4 O 10.752858 6.211166 -6.902343 0
M  V30 5 C 11.561675 8.136823 -8.970506 0
M  V30 6 C 10.119943 6.175558 -8.120170 0
M  V30 7 C 9.123825 5.205954 -8.343122 0
M  V30 8 O 12.121593 8.728354 -9.891711 0
M  V30 9 C 10.488640 7.071123 -9.173941 0
M  V30 10 C 9.851915 6.942523 -10.445446 0
M  V30 11 C 8.500133 5.098970 -9.597999 0
M  V30 12 O 10.187380 7.769301 -11.478405 0
M  V30 13 C 8.867697 5.957445 -10.646283 0
M  V30 14 H 11.025487 9.378023 -6.049616 0
M  V30 15 H 9.874773 8.955081 -7.300341 0
M  V30 16 H 11.100503 7.204988 -5.173889 0
M  V30 17 H 9.433090 7.260272 -5.711254 0
M  V30 18 H 8.845046 4.533828 -7.548685 0
M  V30 19 H 7.738547 4.350454 -9.758283 0
M  V30 20 H 10.887814 8.359268 -11.232301 0
M  V30 21 H 8.386874 5.866053 -11.608810 0
M  V30 END ATOM
M  V30 BEGIN BOND
M  V30 1 1 2 1
M  V30 2 1 3 1
M  V30 3 1 4 3
M  V30 4 1 5 2
M  V30 5 1 6 4
M  V30 6 2 7 6
M  V30 7 2 8 5
M  V30 8 1 9 5
M  V30 9 1 9 6
M  V30 10 2 10 9
M  V30 11 1 11 7
M  V30 12 1 12 10
M  V30 13 1 13 10
M  V30 14 2 13 11
M  V30 15 1 14 1
M  V30 16 1 15 1
M  V30 17 1 16 3
M  V30 18 1 17 3
M  V30 19 1 18 7
M  V30 20 1 19 11
M  V30 21 1 20 12
M  V30 22 1 21 13
M  V30 END BOND
M  V30 END CTAB
M  END
>  <i_epik_Tot_Q>  (1) 
0

>  <i_epik_Tot_abs_Q>  (1) 
0

>  <i_i_glide_confnum>  (1) 
3

>  <i_i_glide_lignum>  (1) 
94

>  <i_i_glide_posenum>  (1) 
359

>  <i_i_glide_rotatable_bonds>  (1) 
1

>  <i_lp_mmshare_version>  (1) 
72125

>  <i_m_source_file_index>  (1) 
88

>  <i_f3d_flags>  (1) 
0

>  <num_sample>  (1) 
100

>  <b_lp_Chiralities_Consistent>  (1) 
1

>  <r_epik_Charging_Adjusted_Penalty>  (1) 
0.011568550508496497

>  <r_epik_Ionization_Penalty>  (1) 
0.011568550508503217

>  <r_epik_Ionization_Penalty_Charging>  (1) 
0

>  <r_epik_Ionization_Penalty_Neutral>  (1) 
0.011568550508503217

>  <r_epik_State_Penalty>  (1) 
0.011568550508496497

>  <r_glide_ring_energy>  (1) 
1.885471383816683

>  <r_i_docking_score>  (1) 
-4.6528169459998727

>  <r_i_glide_ecoul>  (1) 
1.7333317198920948

>  <r_i_glide_eff_state_penalty>  (1) 
0.011568550508496497

>  <r_i_glide_einternal>  (1) 
0.0071275584277121773

>  <r_i_glide_emodel>  (1) 
-27.171658707854554

>  <r_i_glide_emodel_strain>  (1) 
0

>  <r_i_glide_energy>  (1) 
-21.096924695019965

>  <r_i_glide_erotb>  (1) 
0

>  <r_i_glide_esite>  (1) 
0

>  <r_i_glide_evdw>  (1) 
-22.830256414912061

>  <r_i_glide_gscore>  (1) 
-4.6643854965083689

>  <r_i_glide_gscore_strain>  (1) 
0

>  <r_i_glide_hbond>  (1) 
0

>  <r_i_glide_ligand_efficiency>  (1) 
-0.35790899584614405

>  <r_i_glide_ligand_efficiency_ln>  (1) 
-1.3051565336437105

>  <r_i_glide_ligand_efficiency_sa>  (1) 
-0.84156383698034321

>  <r_i_glide_lipo>  (1) 
-0.53889480101804954

>  <r_i_glide_metal>  (1) 
-0

>  <r_i_glide_rewards>  (1) 
-3.2439776327285301

>  <r_lp_Energy>  (1) 
16.036466999999998

>  <s_epik_Chemistry_Notes>  (1) 
This compound has an ester and may undergo hydrolysis at high or low pH.

>  <s_epik_cmdline>  (1) 
J2VwaWtfcHl0aG9uJywgJy1waHQnLCAnMS4wJywgJy1waCcsICc3LjQnLCAnLXRuJywgJzgnLCAnLW1hJywgJzUwMCcsICctaW1hZScsICc8aW5maWxlLm1hZT4nLCAnLW9tYWUnLCAnPG91dGZpbGUubWFlPic=

>  <s_epik_input>  (1) 
TzFbQ0gyXVtDSDJdT0MoPU8pYyhjMTIpYyhbT0hdKVtjSF1bY0hdW2NIXTI=

>  <s_glide_docking_method>  (1) 
confgen

>  <s_i_glide_gridfile>  (1) 
gpcr_drd2_6luq_protein_autoprepared_prepared

>  <s_lp_Force_Field>  (1) 
S-OPLS

>  <s_lp_Variant>  (1) 
Pocket2Mol_87_num_sample_100-1

>  <s_m_source_file>  (1) 
generated__ligand_Pocket2Mol_2026-05-06_prepared.sdf

>  <GenAI_Model>  (1) 
Pocket2Mol

>  <Protein>  (1) 
generic_title2

$$$$
Pocket2Mol_36_num_sample_100
     RDKit          3D

  0  0  0  0  0  0  0  0  0  0999 V3000
M  V30 BEGIN CTAB
M  V30 COUNTS 15 16 0 0 1
M  V30 BEGIN ATOM
M  V30 1 C 9.798364 7.597865 -7.292559 0
M  V30 2 O 10.406167 8.890176 -6.982823 0
M  V30 3 C 11.030587 8.576257 -5.845150 0
M  V30 4 C 10.890759 7.302068 -5.479442 0
M  V30 5 C 11.473841 6.802400 -4.302343 0
M  V30 6 C 12.234839 7.681313 -3.491548 0
M  V30 7 C 12.382753 9.037232 -3.882614 0
M  V30 8 C 11.770928 9.489594 -5.076840 0
M  V30 9 O 10.153041 6.569339 -6.318331 0
M  V30 10 H 10.114100 7.280337 -8.287006 0
M  V30 11 H 8.712043 7.710335 -7.300057 0
M  V30 12 H 11.344886 5.769377 -4.022117 0
M  V30 13 H 12.694598 7.322994 -2.582477 0
M  V30 14 H 12.957032 9.719840 -3.272735 0
M  V30 15 H 11.869167 10.518129 -5.390895 0
M  V30 END ATOM
M  V30 BEGIN BOND
M  V30 1 1 2 1
M  V30 2 1 3 2
M  V30 3 1 4 3
M  V30 4 2 5 4
M  V30 5 1 6 5
M  V30 6 2 7 6
M  V30 7 2 8 3
M  V30 8 1 8 7
M  V30 9 1 9 1
M  V30 10 1 9 4
M  V30 11 1 10 1
M  V30 12 1 11 1
M  V30 13 1 12 5
M  V30 14 1 13 6
M  V30 15 1 14 7
M  V30 16 1 15 8
M  V30 END BOND
M  V30 END CTAB
M  END
>  <i_epik_Tot_Q>  (1) 
0

>  <i_epik_Tot_abs_Q>  (1) 
0

>  <i_i_glide_confnum>  (1) 
1

>  <i_i_glide_lignum>  (1) 
41

>  <i_i_glide_posenum>  (1) 
250

>  <i_i_glide_rotatable_bonds>  (1) 
0

>  <i_lp_mmshare_version>  (1) 
72125

>  <i_m_source_file_index>  (1) 
37

>  <i_f3d_flags>  (1) 
0

>  <num_sample>  (1) 
100

>  <b_lp_Chiralities_Consistent>  (1) 
1

>  <r_epik_Charging_Adjusted_Penalty>  (1) 
0

>  <r_epik_Ionization_Penalty>  (1) 
0

>  <r_epik_Ionization_Penalty_Charging>  (1) 
0

>  <r_epik_Ionization_Penalty_Neutral>  (1) 
0

>  <r_epik_State_Penalty>  (1) 
-0

>  <r_glide_ring_energy>  (1) 
0

>  <r_i_docking_score>  (1) 
-4.6331926228690374

>  <r_i_glide_ecoul>  (1) 
-1.1279876311894483

>  <r_i_glide_eff_state_penalty>  (1) 
-0

>  <r_i_glide_einternal>  (1) 
0

>  <r_i_glide_emodel>  (1) 
-25.981449132550249

>  <r_i_glide_emodel_strain>  (1) 
0

>  <r_i_glide_energy>  (1) 
-20.059199211547352

>  <r_i_glide_erotb>  (1) 
0

>  <r_i_glide_esite>  (1) 
-0.056642933779500131

>  <r_i_glide_evdw>  (1) 
-18.931211580357903

>  <r_i_glide_gscore>  (1) 
-4.6331926228690374

>  <r_i_glide_gscore_strain>  (1) 
0

>  <r_i_glide_hbond>  (1) 
0

>  <r_i_glide_ligand_efficiency>  (1) 
-0.51479918031878191

>  <r_i_glide_ligand_efficiency_ln>  (1) 
-1.4491295530854453

>  <r_i_glide_ligand_efficiency_sa>  (1) 
-1.0708254471014786

>  <r_i_glide_lipo>  (1) 
-1.8107909653932255

>  <r_i_glide_metal>  (1) 
-0

>  <r_i_glide_rewards>  (1) 
-1.6499999999999999

>  <r_lp_Energy>  (1) 
19.342482

>  <r_lp_tautomer_probability>  (1) 
1

>  <s_epik_Chemistry_Notes>  (1) 
This compound contains an acetal/aminal-like group ( X-CH(R)-Y where X, Y are N, S, or O) that may be acid/base labile, releasing an aldehyde.

>  <s_epik_cmdline>  (1) 
J2VwaWtfcHl0aG9uJywgJy1waHQnLCAnMS4wJywgJy1waCcsICc3LjQnLCAnLXRuJywgJzgnLCAnLW1hJywgJzUwMCcsICctaW1hZScsICc8aW5maWxlLm1hZT4nLCAnLW9tYWUnLCAnPG91dGZpbGUubWFlPic=

>  <s_epik_input>  (1) 
TzFbQ0gyXU9jKGMxMilbY0hdW2NIXVtjSF1bY0hdMg==

>  <s_glide_docking_method>  (1) 
confgen

>  <s_i_glide_gridfile>  (1) 
gpcr_drd2_6luq_protein_autoprepared_prepared

>  <s_lp_Force_Field>  (1) 
S-OPLS

>  <s_lp_Variant>  (1) 
Pocket2Mol_36_num_sample_100-1

>  <s_m_source_file>  (1) 
generated__ligand_Pocket2Mol_2026-05-06_prepared.sdf

>  <GenAI_Model>  (1) 
Pocket2Mol

>  <Protein>  (1) 
generic_title2

$$$$
Pocket2Mol_19_num_sample_100
     RDKit          3D

  0  0  0  0  0  0  0  0  0  0999 V3000
M  V30 BEGIN CTAB
M  V30 COUNTS 14 14 0 0 1
M  V30 BEGIN ATOM
M  V30 1 N 12.140815 7.749440 -3.783730 0 CHG=1
M  V30 2 C 11.434839 6.738064 -4.335831 0
M  V30 3 C 10.659758 6.969562 -5.491667 0
M  V30 4 C 10.634839 8.262869 -6.053499 0
M  V30 5 N 9.871189 8.519810 -7.189041 0
M  V30 6 C 11.390855 9.293725 -5.447513 0
M  V30 7 C 12.146722 9.000208 -4.291666 0
M  V30 8 H 11.508068 5.782196 -3.839246 0
M  V30 9 H 10.089147 6.169301 -5.937622 0
M  V30 10 H 9.723051 9.466810 -7.503249 0
M  V30 11 H 9.205693 7.834350 -7.529510 0
M  V30 12 H 11.388444 10.292047 -5.860600 0
M  V30 13 H 12.750506 9.723760 -3.762956 0
M  V30 14 H 12.693619 7.559187 -2.946435 0
M  V30 END ATOM
M  V30 BEGIN BOND
M  V30 1 1 2 1
M  V30 2 2 3 2
M  V30 3 1 4 3
M  V30 4 1 5 4
M  V30 5 2 6 4
M  V30 6 2 7 1
M  V30 7 1 7 6
M  V30 8 1 8 2
M  V30 9 1 9 3
M  V30 10 1 10 5
M  V30 11 1 11 5
M  V30 12 1 12 6
M  V30 13 1 13 7
M  V30 14 1 14 1
M  V30 END BOND
M  V30 END CTAB
M  END
>  <i_epik_Tot_Q>  (1) 
1

>  <i_epik_Tot_abs_Q>  (1) 
1

>  <i_i_glide_confnum>  (1) 
1

>  <i_i_glide_lignum>  (1) 
22

>  <i_i_glide_posenum>  (1) 
398

>  <i_i_glide_rotatable_bonds>  (1) 
0

>  <i_lp_mmshare_version>  (1) 
72125

>  <i_m_source_file_index>  (1) 
20

>  <i_f3d_flags>  (1) 
0

>  <num_sample>  (1) 
100

>  <b_lp_Chiralities_Consistent>  (1) 
1

>  <r_epik_Charging_Adjusted_Penalty>  (1) 
0.023410508937706027

>  <r_epik_Ionization_Penalty>  (1) 
0.011711918016166721

>  <r_epik_Ionization_Penalty_Charging>  (1) 
0.011705254468853022

>  <r_epik_Ionization_Penalty_Neutral>  (1) 
6.6635473136990569e-06

>  <r_epik_State_Penalty>  (1) 
0.011705254468853005

>  <r_glide_ring_energy>  (1) 
0

>  <r_i_docking_score>  (1) 
-4.6318202304297946

>  <r_i_glide_ecoul>  (1) 
-1.3092971393017709

>  <r_i_glide_eff_state_penalty>  (1) 
0.011705254468853005

>  <r_i_glide_einternal>  (1) 
0

>  <r_i_glide_emodel>  (1) 
-24.479383786564675

>  <r_i_glide_emodel_strain>  (1) 
0

>  <r_i_glide_energy>  (1) 
-15.813517321562193

>  <r_i_glide_erotb>  (1) 
0

>  <r_i_glide_esite>  (1) 
-0.010498106615485475

>  <r_i_glide_evdw>  (1) 
-14.504220182260422

>  <r_i_glide_gscore>  (1) 
-4.6435254848986478

>  <r_i_glide_gscore_strain>  (1) 
0

>  <r_i_glide_hbond>  (1) 
0

>  <r_i_glide_ligand_efficiency>  (1) 
-0.66168860434711352

>  <r_i_glide_ligand_efficiency_ln>  (1) 
-1.5722883577814193

>  <r_i_glide_ligand_efficiency_sa>  (1) 
-1.2657647645407353

>  <r_i_glide_lipo>  (1) 
-1.4614217982748756

>  <r_i_glide_metal>  (1) 
-0

>  <r_i_glide_rewards>  (1) 
-2.25

>  <r_lp_Energy>  (1) 
13.062742999999999

>  <r_lp_tautomer_probability>  (1) 
0.99999999993680011

>  <s_epik_cmdline>  (1) 
J2VwaWtfcHl0aG9uJywgJy1waHQnLCAnMS4wJywgJy1waCcsICc3LjQnLCAnLXRuJywgJzgnLCAnLW1hJywgJzUwMCcsICctaW1hZScsICc8aW5maWxlLm1hZT4nLCAnLW9tYWUnLCAnPG91dGZpbGUubWFlPic=

>  <s_epik_input>  (1) 
W2NIXTFbY0hdbltjSF1bY0hdYzFbTkgyXQ==

>  <s_glide_docking_method>  (1) 
confgen

>  <s_i_glide_gridfile>  (1) 
gpcr_drd2_6luq_protein_autoprepared_prepared

>  <s_lp_Force_Field>  (1) 
S-OPLS

>  <s_lp_Variant>  (1) 
Pocket2Mol_19_num_sample_100-1

>  <s_m_source_file>  (1) 
generated__ligand_Pocket2Mol_2026-05-06_prepared.sdf

>  <GenAI_Model>  (1) 
Pocket2Mol

>  <Protein>  (1) 
generic_title2

$$$$
Pocket2Mol_35_num_sample_100
     RDKit          3D

  0  0  0  0  0  0  0  0  0  0999 V3000
M  V30 BEGIN CTAB
M  V30 COUNTS 17 18 0 0 1
M  V30 BEGIN ATOM
M  V30 1 C 11.696823 8.968990 -4.909152 0
M  V30 2 O 10.750076 7.844117 -5.091745 0
M  V30 3 C 10.664585 7.769028 -6.432841 0
M  V30 4 C 11.433326 8.637237 -7.120766 0
M  V30 5 C 11.428176 8.640655 -8.528819 0
M  V30 6 N 10.629076 7.761455 -9.179539 0 CHG=1
M  V30 7 C 9.834839 6.876192 -8.522839 0
M  V30 8 C 9.833021 6.857247 -7.107959 0
M  V30 9 C 12.234581 9.547624 -6.297038 0
M  V30 10 H 12.532049 8.638294 -4.290931 0
M  V30 11 H 11.190050 9.758307 -4.351925 0
M  V30 12 H 12.015544 9.306525 -9.145451 0
M  V30 13 H 9.230324 6.225710 -9.140320 0
M  V30 14 H 9.207024 6.169044 -6.561756 0
M  V30 15 H 13.304983 9.397284 -6.440850 0
M  V30 16 H 11.955238 10.590386 -6.451261 0
M  V30 17 H 10.617174 7.767687 -10.200613 0
M  V30 END ATOM
M  V30 BEGIN BOND
M  V30 1 1 2 1
M  V30 2 1 3 2
M  V30 3 2 4 3
M  V30 4 1 5 4
M  V30 5 2 6 5
M  V30 6 1 7 6
M  V30 7 1 8 3
M  V30 8 2 8 7
M  V30 9 1 9 1
M  V30 10 1 9 4
M  V30 11 1 10 1
M  V30 12 1 11 1
M  V30 13 1 12 5
M  V30 14 1 13 7
M  V30 15 1 14 8
M  V30 16 1 15 9
M  V30 17 1 16 9
M  V30 18 1 17 6
M  V30 END BOND
M  V30 END CTAB
M  END
>  <i_epik_Tot_Q>  (1) 
1

>  <i_epik_Tot_abs_Q>  (1) 
1

>  <i_i_glide_confnum>  (1) 
1

>  <i_i_glide_lignum>  (1) 
39

>  <i_i_glide_posenum>  (1) 
341

>  <i_i_glide_rotatable_bonds>  (1) 
0

>  <i_lp_mmshare_version>  (1) 
72125

>  <i_m_source_file_index>  (1) 
36

>  <i_f3d_flags>  (1) 
0

>  <num_sample>  (1) 
100

>  <b_lp_Chiralities_Consistent>  (1) 
1

>  <r_epik_Charging_Adjusted_Penalty>  (1) 
0.75885481127580245

>  <r_epik_Ionization_Penalty>  (1) 
0.37942740563790117

>  <r_epik_Ionization_Penalty_Charging>  (1) 
0.37942740563790117

>  <r_epik_Ionization_Penalty_Neutral>  (1) 
0

>  <r_epik_State_Penalty>  (1) 
0.37942740563790123

>  <r_glide_ring_energy>  (1) 
0

>  <r_i_docking_score>  (1) 
-4.6268608775357123

>  <r_i_glide_ecoul>  (1) 
-1.3420187930621323

>  <r_i_glide_eff_state_penalty>  (1) 
0.37942740563790123

>  <r_i_glide_einternal>  (1) 
0

>  <r_i_glide_emodel>  (1) 
-27.793493513185496

>  <r_i_glide_emodel_strain>  (1) 
9.9475983006414026e-14

>  <r_i_glide_energy>  (1) 
-18.489502472643164

>  <r_i_glide_erotb>  (1) 
0

>  <r_i_glide_esite>  (1) 
-0.019391277194893176

>  <r_i_glide_evdw>  (1) 
-17.147483679581033

>  <r_i_glide_gscore>  (1) 
-5.006288283173614

>  <r_i_glide_gscore_strain>  (1) 
0

>  <r_i_glide_hbond>  (1) 
0

>  <r_i_glide_ligand_efficiency>  (1) 
-0.51409565305952354

>  <r_i_glide_ligand_efficiency_ln>  (1) 
-1.4471491650394481

>  <r_i_glide_ligand_efficiency_sa>  (1) 
-1.0693620514304194

>  <r_i_glide_lipo>  (1) 
-1.2998389782242419

>  <r_i_glide_metal>  (1) 
-0

>  <r_i_glide_rewards>  (1) 
-2.628381024816107

>  <r_lp_Energy>  (1) 
18.327531999999998

>  <s_epik_cmdline>  (1) 
J2VwaWtfcHl0aG9uJywgJy1waHQnLCAnMS4wJywgJy1waCcsICc3LjQnLCAnLXRuJywgJzgnLCAnLW1hJywgJzUwMCcsICctaW1hZScsICc8aW5maWxlLm1hZT4nLCAnLW9tYWUnLCAnPG91dGZpbGUubWFlPic=

>  <s_epik_input>  (1) 
TzFbQ0gyXVtDSDJdYyhjMTIpW2NIXW5bY0hdW2NIXTI=

>  <s_glide_docking_method>  (1) 
confgen

>  <s_i_glide_gridfile>  (1) 
gpcr_drd2_6luq_protein_autoprepared_prepared

>  <s_lp_Force_Field>  (1) 
S-OPLS

>  <s_lp_Variant>  (1) 
Pocket2Mol_35_num_sample_100-1

>  <s_m_source_file>  (1) 
generated__ligand_Pocket2Mol_2026-05-06_prepared.sdf

>  <GenAI_Model>  (1) 
Pocket2Mol

>  <Protein>  (1) 
generic_title2

$$$$
Pocket2Mol_20_num_sample_100
     RDKit          3D

  0  0  0  0  0  0  0  0  0  0999 V3000
M  V30 BEGIN CTAB
M  V30 COUNTS 12 12 0 0 1
M  V30 BEGIN ATOM
M  V30 1 N 10.119257 8.569236 -6.419080 0
M  V30 2 C 9.483088 8.236591 -7.563101 0
M  V30 3 C 10.140635 8.110770 -8.803990 0
M  V30 4 C 11.449695 8.789733 -6.477336 0
M  V30 5 O 9.447176 7.771768 -9.930496 0
M  V30 6 C 11.529132 8.342995 -8.853914 0
M  V30 7 C 12.198919 8.689876 -7.665702 0
M  V30 8 H 8.419455 8.066520 -7.484875 0
M  V30 9 H 11.932038 9.053879 -5.547726 0
M  V30 10 H 8.508093 7.769331 -9.809431 0
M  V30 11 H 12.072581 8.257627 -9.783168 0
M  V30 12 H 13.262986 8.875677 -7.663957 0
M  V30 END ATOM
M  V30 BEGIN BOND
M  V30 1 2 2 1
M  V30 2 1 3 2
M  V30 3 1 4 1
M  V30 4 1 5 3
M  V30 5 2 6 3
M  V30 6 2 7 4
M  V30 7 1 7 6
M  V30 8 1 8 2
M  V30 9 1 9 4
M  V30 10 1 10 5
M  V30 11 1 11 6
M  V30 12 1 12 7
M  V30 END BOND
M  V30 END CTAB
M  END
>  <i_epik_Tot_Q>  (1) 
0

>  <i_epik_Tot_abs_Q>  (1) 
0

>  <i_i_glide_confnum>  (1) 
1

>  <i_i_glide_lignum>  (1) 
24

>  <i_i_glide_posenum>  (1) 
49

>  <i_i_glide_rotatable_bonds>  (1) 
1

>  <i_lp_mmshare_version>  (1) 
72125

>  <i_m_source_file_index>  (1) 
21

>  <i_f3d_flags>  (1) 
0

>  <num_sample>  (1) 
100

>  <b_lp_Chiralities_Consistent>  (1) 
1

>  <r_epik_Charging_Adjusted_Penalty>  (1) 
0.49104251329211085

>  <r_epik_Ionization_Penalty>  (1) 
0.049438115990627488

>  <r_epik_Ionization_Penalty_Charging>  (1) 
0

>  <r_epik_Ionization_Penalty_Neutral>  (1) 
0.049438115990627488

>  <r_epik_State_Penalty>  (1) 
0.49104251329211085

>  <r_glide_ring_energy>  (1) 
0

>  <r_i_docking_score>  (1) 
-4.6247426354535666

>  <r_i_glide_ecoul>  (1) 
-7.5447906696500988

>  <r_i_glide_eff_state_penalty>  (1) 
0.49104251329211085

>  <r_i_glide_einternal>  (1) 
0.079732240303486898

>  <r_i_glide_emodel>  (1) 
-26.052626714407658

>  <r_i_glide_emodel_strain>  (1) 
0

>  <r_i_glide_energy>  (1) 
-18.478888979228692

>  <r_i_glide_erotb>  (1) 
0

>  <r_i_glide_esite>  (1) 
0

>  <r_i_glide_evdw>  (1) 
-10.934098309578593

>  <r_i_glide_gscore>  (1) 
-5.1157851487456778

>  <r_i_glide_gscore_strain>  (1) 
0

>  <r_i_glide_hbond>  (1) 
-0.16

>  <r_i_glide_ligand_efficiency>  (1) 
-0.66067751935050956

>  <r_i_glide_ligand_efficiency_ln>  (1) 
-1.5698858422198032

>  <r_i_glide_ligand_efficiency_sa>  (1) 
-1.2638306285222982

>  <r_i_glide_lipo>  (1) 
-0.81069496615256698

>  <r_i_glide_metal>  (1) 
-0

>  <r_i_glide_rewards>  (1) 
-2.4666666666666668

>  <r_lp_Energy>  (1) 
10.560834

>  <r_lp_tautomer_probability>  (1) 
0.43658000000000002

>  <s_epik_cmdline>  (1) 
J2VwaWtfcHl0aG9uJywgJy1waHQnLCAnMS4wJywgJy1waCcsICc3LjQnLCAnLXRuJywgJzgnLCAnLW1hJywgJzUwMCcsICctaW1hZScsICc8aW5maWxlLm1hZT4nLCAnLW9tYWUnLCAnPG91dGZpbGUubWFlPic=

>  <s_epik_input>  (1) 
W2NIXTFbY0hdW2NIXW5bY0hdYzFbT0hd

>  <s_glide_docking_method>  (1) 
confgen

>  <s_i_glide_gridfile>  (1) 
gpcr_drd2_6luq_protein_autoprepared_prepared

>  <s_lp_Force_Field>  (1) 
S-OPLS

>  <s_lp_Variant>  (1) 
Pocket2Mol_20_num_sample_100-2

>  <s_m_source_file>  (1) 
generated__ligand_Pocket2Mol_2026-05-06_prepared.sdf

>  <GenAI_Model>  (1) 
Pocket2Mol

>  <Protein>  (1) 
generic_title2

$$$$
Pocket2Mol_91_num_sample_100
     RDKit          3D

  0  0  0  0  0  0  0  0  0  0999 V3000
M  V30 BEGIN CTAB
M  V30 COUNTS 22 23 0 0 1
M  V30 BEGIN ATOM
M  V30 1 C 6.441761 7.283133 -12.291667 0
M  V30 2 O 7.809504 7.602675 -12.508036 0
M  V30 3 C 5.875978 6.687412 -13.573991 0
M  V30 4 O 6.882177 5.995776 -14.287505 0
M  V30 5 C 8.745203 6.720174 -12.107791 0
M  V30 6 C 7.535860 5.004309 -13.600681 0
M  V30 7 C 7.321189 3.653956 -13.955220 0
M  V30 8 O 9.726607 7.038359 -11.437139 0
M  V30 9 C 8.457572 5.306077 -12.549390 0
M  V30 10 C 8.015597 2.640748 -13.266126 0
M  V30 11 C 9.126726 4.241942 -11.916844 0
M  V30 12 N 7.835157 1.290245 -13.561512 0
M  V30 13 N 8.885072 2.969302 -12.291667 0 CHG=1
M  V30 14 H 6.340565 6.572670 -11.468876 0
M  V30 15 H 5.883594 8.169302 -11.993056 0
M  V30 16 H 5.034839 6.028433 -13.361141 0
M  V30 17 H 5.505616 7.483728 -14.219786 0
M  V30 18 H 6.634838 3.403617 -14.747573 0
M  V30 19 H 9.834839 4.370789 -11.115123 0
M  V30 20 H 7.188072 0.985981 -14.275032 0
M  V30 21 H 8.329157 0.569297 -13.055410 0
M  V30 22 H 9.381307 2.214686 -11.800888 0
M  V30 END ATOM
M  V30 BEGIN BOND
M  V30 1 1 2 1
M  V30 2 1 3 1
M  V30 3 1 4 3
M  V30 4 1 5 2
M  V30 5 1 6 4
M  V30 6 1 7 6
M  V30 7 2 8 5
M  V30 8 1 9 5
M  V30 9 2 9 6
M  V30 10 2 10 7
M  V30 11 1 11 9
M  V30 12 1 12 10
M  V30 13 1 13 10
M  V30 14 2 13 11
M  V30 15 1 14 1
M  V30 16 1 15 1
M  V30 17 1 16 3
M  V30 18 1 17 3
M  V30 19 1 18 7
M  V30 20 1 19 11
M  V30 21 1 20 12
M  V30 22 1 21 12
M  V30 23 1 22 13
M  V30 END BOND
M  V30 END CTAB
M  END
>  <i_epik_Tot_Q>  (1) 
1

>  <i_epik_Tot_abs_Q>  (1) 
1

>  <i_i_glide_confnum>  (1) 
1

>  <i_i_glide_lignum>  (1) 
98

>  <i_i_glide_posenum>  (1) 
253

>  <i_i_glide_rotatable_bonds>  (1) 
0

>  <i_lp_mmshare_version>  (1) 
72125

>  <i_m_source_file_index>  (1) 
92

>  <i_f3d_flags>  (1) 
0

>  <num_sample>  (1) 
100

>  <b_lp_Chiralities_Consistent>  (1) 
1

>  <r_epik_Charging_Adjusted_Penalty>  (1) 
0.71045643263358682

>  <r_epik_Ionization_Penalty>  (1) 
0.3552545589029974

>  <r_epik_Ionization_Penalty_Charging>  (1) 
0.35522821631679397

>  <r_epik_Ionization_Penalty_Neutral>  (1) 
2.6342586203446271e-05

>  <r_epik_State_Penalty>  (1) 
0.35522821631679286

>  <r_glide_ring_energy>  (1) 
0

>  <r_i_docking_score>  (1) 
-4.6178004498659844

>  <r_i_glide_ecoul>  (1) 
-4.5664145148222328

>  <r_i_glide_eff_state_penalty>  (1) 
0.35522821631679286

>  <r_i_glide_einternal>  (1) 
0

>  <r_i_glide_emodel>  (1) 
-30.554024974744785

>  <r_i_glide_emodel_strain>  (1) 
0

>  <r_i_glide_energy>  (1) 
-20.973047993988594

>  <r_i_glide_erotb>  (1) 
0

>  <r_i_glide_esite>  (1) 
-0.034911504676669362

>  <r_i_glide_evdw>  (1) 
-16.406633479166363

>  <r_i_glide_gscore>  (1) 
-4.9730286661827776

>  <r_i_glide_gscore_strain>  (1) 
0

>  <r_i_glide_hbond>  (1) 
0

>  <r_i_glide_ligand_efficiency>  (1) 
-0.35521541922046035

>  <r_i_glide_ligand_efficiency_ln>  (1) 
-1.2953340950554604

>  <r_i_glide_ligand_efficiency_sa>  (1) 
-0.83523033682633918

>  <r_i_glide_lipo>  (1) 
-0.81716926090931408

>  <r_i_glide_metal>  (1) 
-0

>  <r_i_glide_rewards>  (1) 
-2.6156540494151423

>  <r_lp_Energy>  (1) 
16.247630000000001

>  <s_epik_Chemistry_Notes>  (1) 
This compound has an ester and may undergo hydrolysis at high or low pH.

>  <s_epik_cmdline>  (1) 
J2VwaWtfcHl0aG9uJywgJy1waHQnLCAnMS4wJywgJy1waCcsICc3LjQnLCAnLXRuJywgJzgnLCAnLW1hJywgJzUwMCcsICctaW1hZScsICc8aW5maWxlLm1hZT4nLCAnLW9tYWUnLCAnPG91dGZpbGUubWFlPic=

>  <s_epik_input>  (1) 
TzFbQ0gyXVtDSDJdT0MoPU8pYyhjMTIpW2NIXW5jKFtjSF0yKVtOSDJd

>  <s_glide_docking_method>  (1) 
confgen

>  <s_i_glide_gridfile>  (1) 
gpcr_drd2_6luq_protein_autoprepared_prepared

>  <s_lp_Force_Field>  (1) 
S-OPLS

>  <s_lp_Variant>  (1) 
Pocket2Mol_91_num_sample_100-1

>  <s_m_source_file>  (1) 
generated__ligand_Pocket2Mol_2026-05-06_prepared.sdf

>  <GenAI_Model>  (1) 
Pocket2Mol

>  <Protein>  (1) 
generic_title2

$$$$
Pocket2Mol_36_num_sample_100
     RDKit          3D

  0  0  0  0  0  0  0  0  0  0999 V3000
M  V30 BEGIN CTAB
M  V30 COUNTS 15 16 0 0 1
M  V30 BEGIN ATOM
M  V30 1 C 12.076223 6.612431 -2.433030 0
M  V30 2 O 12.656913 7.933968 -2.637549 0
M  V30 3 C 12.189098 8.190285 -3.863595 0
M  V30 4 C 11.434839 7.218509 -4.377350 0
M  V30 5 C 10.863343 7.321482 -5.657050 0
M  V30 6 C 11.091187 8.496165 -6.409686 0
M  V30 7 C 11.889413 9.531849 -5.859104 0
M  V30 8 C 12.448598 9.369433 -4.569405 0
M  V30 9 O 11.283225 6.169328 -3.573501 0
M  V30 10 H 11.431002 6.640389 -1.555595 0
M  V30 11 H 12.880741 5.899234 -2.249421 0
M  V30 12 H 10.257338 6.522955 -6.054577 0
M  V30 13 H 10.661138 8.602841 -7.396302 0
M  V30 14 H 12.073532 10.435438 -6.420896 0
M  V30 15 H 13.063599 10.143862 -4.137075 0
M  V30 END ATOM
M  V30 BEGIN BOND
M  V30 1 1 2 1
M  V30 2 1 3 2
M  V30 3 1 4 3
M  V30 4 2 5 4
M  V30 5 1 6 5
M  V30 6 2 7 6
M  V30 7 2 8 3
M  V30 8 1 8 7
M  V30 9 1 9 1
M  V30 10 1 9 4
M  V30 11 1 10 1
M  V30 12 1 11 1
M  V30 13 1 12 5
M  V30 14 1 13 6
M  V30 15 1 14 7
M  V30 16 1 15 8
M  V30 END BOND
M  V30 END CTAB
M  END
>  <i_epik_Tot_Q>  (1) 
0

>  <i_epik_Tot_abs_Q>  (1) 
0

>  <i_i_glide_confnum>  (1) 
1

>  <i_i_glide_lignum>  (1) 
41

>  <i_i_glide_posenum>  (1) 
78

>  <i_i_glide_rotatable_bonds>  (1) 
0

>  <i_lp_mmshare_version>  (1) 
72125

>  <i_m_source_file_index>  (1) 
37

>  <i_f3d_flags>  (1) 
0

>  <num_sample>  (1) 
100

>  <b_lp_Chiralities_Consistent>  (1) 
1

>  <r_epik_Charging_Adjusted_Penalty>  (1) 
0

>  <r_epik_Ionization_Penalty>  (1) 
0

>  <r_epik_Ionization_Penalty_Charging>  (1) 
0

>  <r_epik_Ionization_Penalty_Neutral>  (1) 
0

>  <r_epik_State_Penalty>  (1) 
-0

>  <r_glide_ring_energy>  (1) 
0

>  <r_i_docking_score>  (1) 
-4.6169131683075388

>  <r_i_glide_ecoul>  (1) 
0.29816887243685392

>  <r_i_glide_eff_state_penalty>  (1) 
-0

>  <r_i_glide_einternal>  (1) 
0

>  <r_i_glide_emodel>  (1) 
-23.232619993487816

>  <r_i_glide_emodel_strain>  (1) 
0

>  <r_i_glide_energy>  (1) 
-17.331178833600294

>  <r_i_glide_erotb>  (1) 
0

>  <r_i_glide_esite>  (1) 
0

>  <r_i_glide_evdw>  (1) 
-17.629347706037148

>  <r_i_glide_gscore>  (1) 
-4.6169131683075388

>  <r_i_glide_gscore_strain>  (1) 
0

>  <r_i_glide_hbond>  (1) 
0

>  <r_i_glide_ligand_efficiency>  (1) 
-0.51299035203417098

>  <r_i_glide_ligand_efficiency_ln>  (1) 
-1.4440378073642042

>  <r_i_glide_ligand_efficiency_sa>  (1) 
-1.0670629326479806

>  <r_i_glide_lipo>  (1) 
-1.6801711138712101

>  <r_i_glide_metal>  (1) 
-0

>  <r_i_glide_rewards>  (1) 
-2.1000000000000001

>  <r_lp_Energy>  (1) 
19.342482

>  <r_lp_tautomer_probability>  (1) 
1

>  <s_epik_Chemistry_Notes>  (1) 
This compound contains an acetal/aminal-like group ( X-CH(R)-Y where X, Y are N, S, or O) that may be acid/base labile, releasing an aldehyde.

>  <s_epik_cmdline>  (1) 
J2VwaWtfcHl0aG9uJywgJy1waHQnLCAnMS4wJywgJy1waCcsICc3LjQnLCAnLXRuJywgJzgnLCAnLW1hJywgJzUwMCcsICctaW1hZScsICc8aW5maWxlLm1hZT4nLCAnLW9tYWUnLCAnPG91dGZpbGUubWFlPic=

>  <s_epik_input>  (1) 
TzFbQ0gyXU9jKGMxMilbY0hdW2NIXVtjSF1bY0hdMg==

>  <s_glide_docking_method>  (1) 
confgen

>  <s_i_glide_gridfile>  (1) 
gpcr_drd2_6luq_protein_autoprepared_prepared

>  <s_lp_Force_Field>  (1) 
S-OPLS

>  <s_lp_Variant>  (1) 
Pocket2Mol_36_num_sample_100-1

>  <s_m_source_file>  (1) 
generated__ligand_Pocket2Mol_2026-05-06_prepared.sdf

>  <GenAI_Model>  (1) 
Pocket2Mol

>  <Protein>  (1) 
generic_title2

$$$$
Pocket2Mol_12_num_sample_100
     RDKit          3D

  0  0  0  0  0  0  0  0  0  0999 V3000
M  V30 BEGIN CTAB
M  V30 COUNTS 14 14 0 0 1
M  V30 BEGIN ATOM
M  V30 1 O 10.375272 8.965315 -6.691656 0
M  V30 2 C 11.088277 9.308998 -5.606744 0
M  V30 3 C 10.253943 7.500416 -6.519134 0
M  V30 4 C 11.434841 8.349734 -4.808068 0
M  V30 5 C 12.236823 8.527926 -3.533108 0
M  V30 6 C 11.003501 7.000590 -5.193665 0
M  V30 7 H 11.296466 10.365443 -5.516966 0
M  V30 8 H 10.667315 7.003776 -7.397638 0
M  V30 9 H 9.195622 7.238103 -6.477078 0
M  V30 10 H 13.144110 7.925309 -3.569043 0
M  V30 11 H 12.526125 9.569736 -3.390890 0
M  V30 12 H 11.660628 8.215156 -2.662833 0
M  V30 13 H 11.838384 6.332529 -5.399527 0
M  V30 14 H 10.326462 6.557418 -4.462948 0
M  V30 END ATOM
M  V30 BEGIN BOND
M  V30 1 1 2 1
M  V30 2 1 3 1
M  V30 3 2 4 2
M  V30 4 1 5 4
M  V30 5 1 6 3
M  V30 6 1 6 4
M  V30 7 1 7 2
M  V30 8 1 8 3
M  V30 9 1 9 3
M  V30 10 1 10 5
M  V30 11 1 11 5
M  V30 12 1 12 5
M  V30 13 1 13 6
M  V30 14 1 14 6
M  V30 END BOND
M  V30 END CTAB
M  END
>  <i_epik_Tot_Q>  (1) 
0

>  <i_epik_Tot_abs_Q>  (1) 
0

>  <i_i_glide_confnum>  (1) 
1

>  <i_i_glide_lignum>  (1) 
15

>  <i_i_glide_posenum>  (1) 
10

>  <i_i_glide_rotatable_bonds>  (1) 
0

>  <i_lp_mmshare_version>  (1) 
72125

>  <i_m_source_file_index>  (1) 
13

>  <i_f3d_flags>  (1) 
0

>  <num_sample>  (1) 
100

>  <b_lp_Chiralities_Consistent>  (1) 
1

>  <r_epik_Charging_Adjusted_Penalty>  (1) 
0

>  <r_epik_Ionization_Penalty>  (1) 
0

>  <r_epik_Ionization_Penalty_Charging>  (1) 
0

>  <r_epik_Ionization_Penalty_Neutral>  (1) 
0

>  <r_epik_State_Penalty>  (1) 
-0

>  <r_glide_ring_energy>  (1) 
0

>  <r_i_docking_score>  (1) 
-4.6113189360806075

>  <r_i_glide_ecoul>  (1) 
-0.50831715676542821

>  <r_i_glide_eff_state_penalty>  (1) 
-0

>  <r_i_glide_einternal>  (1) 
0

>  <r_i_glide_emodel>  (1) 
-19.002727930801665

>  <r_i_glide_emodel_strain>  (1) 
0

>  <r_i_glide_energy>  (1) 
-14.502487455666927

>  <r_i_glide_erotb>  (1) 
0

>  <r_i_glide_esite>  (1) 
0

>  <r_i_glide_evdw>  (1) 
-13.994170298901498

>  <r_i_glide_gscore>  (1) 
-4.6113189360806075

>  <r_i_glide_gscore_strain>  (1) 
0

>  <r_i_glide_hbond>  (1) 
0

>  <r_i_glide_ligand_efficiency>  (1) 
-0.76855315601343455

>  <r_i_glide_ligand_efficiency_ln>  (1) 
-1.651760829293677

>  <r_i_glide_ligand_efficiency_sa>  (1) 
-1.3965537664781444

>  <r_i_glide_lipo>  (1) 
-1.3270295142873847

>  <r_i_glide_metal>  (1) 
-0

>  <r_i_glide_rewards>  (1) 
-2.5083333333333333

>  <r_lp_Energy>  (1) 
-7.9393969999999996

>  <r_lp_tautomer_probability>  (1) 
1

>  <s_epik_cmdline>  (1) 
J2VwaWtfcHl0aG9uJywgJy1waHQnLCAnMS4wJywgJy1waCcsICc3LjQnLCAnLXRuJywgJzgnLCAnLW1hJywgJzUwMCcsICctaW1hZScsICc8aW5maWxlLm1hZT4nLCAnLW9tYWUnLCAnPG91dGZpbGUubWFlPic=

>  <s_epik_input>  (1) 
W0NIMl0xW0NIMl1PW0NIXT1DMVtDSDNd

>  <s_glide_docking_method>  (1) 
confgen

>  <s_i_glide_gridfile>  (1) 
gpcr_drd2_6luq_protein_autoprepared_prepared

>  <s_lp_Force_Field>  (1) 
S-OPLS

>  <s_lp_Variant>  (1) 
Pocket2Mol_12_num_sample_100-1

>  <s_m_source_file>  (1) 
generated__ligand_Pocket2Mol_2026-05-06_prepared.sdf

>  <GenAI_Model>  (1) 
Pocket2Mol

>  <Protein>  (1) 
generic_title2

$$$$
Pocket2Mol_96_num_sample_100
     RDKit          3D

  0  0  0  0  0  0  0  0  0  0999 V3000
M  V30 BEGIN CTAB
M  V30 COUNTS 20 21 0 0 1
M  V30 BEGIN ATOM
M  V30 1 C 10.222529 8.535584 -6.872522 0
M  V30 2 O 11.429717 8.390099 -7.606759 0
M  V30 3 C 9.771053 7.171168 -6.382105 0
M  V30 4 O 10.242041 6.169269 -7.253454 0
M  V30 5 C 11.370250 8.284418 -8.952123 0
M  V30 6 C 9.834843 6.261181 -8.559196 0
M  V30 7 C 8.907000 5.326134 -9.055255 0
M  V30 8 O 12.055521 8.969301 -9.706954 0
M  V30 9 C 10.367272 7.261542 -9.430961 0
M  V30 10 C 8.506604 5.369301 -10.403509 0
M  V30 11 C 9.034835 6.345646 -11.266907 0
M  V30 12 F 8.649911 6.379676 -12.564757 0
M  V30 13 C 9.963224 7.287004 -10.785423 0
M  V30 14 H 10.370961 9.214952 -6.033309 0
M  V30 15 H 9.447631 8.976919 -7.501917 0
M  V30 16 H 10.190249 6.971751 -5.395828 0
M  V30 17 H 8.684712 7.127123 -6.291668 0
M  V30 18 H 8.504761 4.569338 -8.399448 0
M  V30 19 H 7.794516 4.648870 -10.776855 0
M  V30 20 H 10.362507 8.033583 -11.454915 0
M  V30 END ATOM
M  V30 BEGIN BOND
M  V30 1 1 2 1
M  V30 2 1 3 1
M  V30 3 1 4 3
M  V30 4 1 5 2
M  V30 5 1 6 4
M  V30 6 1 7 6
M  V30 7 2 8 5
M  V30 8 1 9 5
M  V30 9 2 9 6
M  V30 10 2 10 7
M  V30 11 1 11 10
M  V30 12 1 12 11
M  V30 13 1 13 9
M  V30 14 2 13 11
M  V30 15 1 14 1
M  V30 16 1 15 1
M  V30 17 1 16 3
M  V30 18 1 17 3
M  V30 19 1 18 7
M  V30 20 1 19 10
M  V30 21 1 20 13
M  V30 END BOND
M  V30 END CTAB
M  END
>  <i_epik_Tot_Q>  (1) 
0

>  <i_epik_Tot_abs_Q>  (1) 
0

>  <i_i_glide_confnum>  (1) 
6

>  <i_i_glide_lignum>  (1) 
105

>  <i_i_glide_posenum>  (1) 
332

>  <i_i_glide_rotatable_bonds>  (1) 
0

>  <i_lp_mmshare_version>  (1) 
72125

>  <i_m_source_file_index>  (1) 
97

>  <i_f3d_flags>  (1) 
0

>  <num_sample>  (1) 
100

>  <b_lp_Chiralities_Consistent>  (1) 
1

>  <r_epik_Charging_Adjusted_Penalty>  (1) 
0

>  <r_epik_Ionization_Penalty>  (1) 
0

>  <r_epik_Ionization_Penalty_Charging>  (1) 
0

>  <r_epik_Ionization_Penalty_Neutral>  (1) 
0

>  <r_epik_State_Penalty>  (1) 
-0

>  <r_glide_ring_energy>  (1) 
1.0398180339394281

>  <r_i_docking_score>  (1) 
-4.6023960466798979

>  <r_i_glide_ecoul>  (1) 
0.53905991103461481

>  <r_i_glide_eff_state_penalty>  (1) 
-0

>  <r_i_glide_einternal>  (1) 
0

>  <r_i_glide_emodel>  (1) 
-30.609035373538955

>  <r_i_glide_emodel_strain>  (1) 
0

>  <r_i_glide_energy>  (1) 
-23.517780954104879

>  <r_i_glide_erotb>  (1) 
0

>  <r_i_glide_esite>  (1) 
-0.0033055923481682815

>  <r_i_glide_evdw>  (1) 
-24.056840865139492

>  <r_i_glide_gscore>  (1) 
-4.6023960466798979

>  <r_i_glide_gscore_strain>  (1) 
0

>  <r_i_glide_hbond>  (1) 
0

>  <r_i_glide_ligand_efficiency>  (1) 
-0.35403046512922293

>  <r_i_glide_ligand_efficiency_ln>  (1) 
-1.2910130229611696

>  <r_i_glide_ligand_efficiency_sa>  (1) 
-0.83244411316825606

>  <r_i_glide_lipo>  (1) 
-0.20642433626831588

>  <r_i_glide_metal>  (1) 
-0

>  <r_i_glide_rewards>  (1) 
-3.2706830614616318

>  <r_lp_Energy>  (1) 
17.467690999999999

>  <r_lp_tautomer_probability>  (1) 
1

>  <s_epik_Chemistry_Notes>  (1) 
This compound has an ester and may undergo hydrolysis at high or low pH.

>  <s_epik_cmdline>  (1) 
J2VwaWtfcHl0aG9uJywgJy1waHQnLCAnMS4wJywgJy1waCcsICc3LjQnLCAnLXRuJywgJzgnLCAnLW1hJywgJzUwMCcsICctaW1hZScsICc8aW5maWxlLm1hZT4nLCAnLW9tYWUnLCAnPG91dGZpbGUubWFlPic=

>  <s_epik_input>  (1) 
TzFbQ0gyXVtDSDJdT0MoPU8pYyhjMTIpW2NIXWMoRilbY0hdW2NIXTI=

>  <s_glide_docking_method>  (1) 
confgen

>  <s_i_glide_gridfile>  (1) 
gpcr_drd2_6luq_protein_autoprepared_prepared

>  <s_lp_Force_Field>  (1) 
S-OPLS

>  <s_lp_Variant>  (1) 
Pocket2Mol_96_num_sample_100-1

>  <s_m_source_file>  (1) 
generated__ligand_Pocket2Mol_2026-05-06_prepared.sdf

>  <GenAI_Model>  (1) 
Pocket2Mol

>  <Protein>  (1) 
generic_title2

$$$$
Pocket2Mol_97_num_sample_100
     RDKit          3D

  0  0  0  0  0  0  0  0  0  0999 V3000
M  V30 BEGIN CTAB
M  V30 COUNTS 24 25 0 0 1
M  V30 BEGIN ATOM
M  V30 1 C 11.424899 8.696168 -7.132405 0
M  V30 2 O 12.134950 8.313192 -8.300465 0
M  V30 3 C 9.991100 8.162910 -7.141719 0
M  V30 4 O 10.036797 6.817114 -7.577633 0
M  V30 5 C 11.426846 8.535208 -9.509579 0
M  V30 6 C 9.834797 6.599498 -8.923697 0
M  V30 7 C 8.972223 5.558874 -9.329309 0
M  V30 8 C 10.477631 7.405441 -9.909645 0
M  V30 9 C 8.279849 4.707327 -8.291667 0
M  V30 10 C 8.743773 5.319490 -10.698146 0
M  V30 11 C 9.369822 6.118327 -11.668657 0
M  V30 12 F 9.142647 5.886110 -12.982829 0
M  V30 13 C 10.232375 7.158626 -11.277954 0
M  V30 14 H 11.434839 9.779741 -7.026834 0
M  V30 15 H 11.952366 8.295915 -6.269246 0
M  V30 16 H 9.327959 8.766007 -7.765894 0
M  V30 17 H 9.572205 8.197905 -6.135847 0
M  V30 18 H 12.180464 8.629051 -10.291671 0
M  V30 19 H 10.896727 9.487267 -9.491667 0
M  V30 20 H 7.899373 5.326906 -7.478847 0
M  V30 21 H 7.434839 4.169302 -8.720073 0
M  V30 22 H 8.991184 3.989909 -7.891667 0
M  V30 23 H 8.080953 4.523520 -11.003614 0
M  V30 24 H 10.707490 7.767333 -12.028776 0
M  V30 END ATOM
M  V30 BEGIN BOND
M  V30 1 1 2 1
M  V30 2 1 3 1
M  V30 3 1 4 3
M  V30 4 1 5 2
M  V30 5 1 6 4
M  V30 6 2 7 6
M  V30 7 1 8 5
M  V30 8 1 8 6
M  V30 9 1 9 7
M  V30 10 1 10 7
M  V30 11 2 11 10
M  V30 12 1 12 11
M  V30 13 2 13 8
M  V30 14 1 13 11
M  V30 15 1 14 1
M  V30 16 1 15 1
M  V30 17 1 16 3
M  V30 18 1 17 3
M  V30 19 1 18 5
M  V30 20 1 19 5
M  V30 21 1 20 9
M  V30 22 1 21 9
M  V30 23 1 22 9
M  V30 24 1 23 10
M  V30 25 1 24 13
M  V30 END BOND
M  V30 END CTAB
M  END
>  <i_epik_Tot_Q>  (1) 
0

>  <i_epik_Tot_abs_Q>  (1) 
0

>  <i_i_glide_confnum>  (1) 
2

>  <i_i_glide_lignum>  (1) 
106

>  <i_i_glide_posenum>  (1) 
216

>  <i_i_glide_rotatable_bonds>  (1) 
0

>  <i_lp_mmshare_version>  (1) 
72125

>  <i_m_source_file_index>  (1) 
98

>  <i_f3d_flags>  (1) 
0

>  <num_sample>  (1) 
100

>  <b_lp_Chiralities_Consistent>  (1) 
1

>  <r_epik_Charging_Adjusted_Penalty>  (1) 
0

>  <r_epik_Ionization_Penalty>  (1) 
1.3261073421285308e-13

>  <r_epik_Ionization_Penalty_Charging>  (1) 
0

>  <r_epik_Ionization_Penalty_Neutral>  (1) 
1.3261073421285308e-13

>  <r_epik_State_Penalty>  (1) 
-0

>  <r_glide_ring_energy>  (1) 
1.7623001670689571

>  <r_i_docking_score>  (1) 
-4.5960853063564802

>  <r_i_glide_ecoul>  (1) 
0.98911212674144644

>  <r_i_glide_eff_state_penalty>  (1) 
-0

>  <r_i_glide_einternal>  (1) 
0

>  <r_i_glide_emodel>  (1) 
-25.79173170345943

>  <r_i_glide_emodel_strain>  (1) 
0.0018587328402119851

>  <r_i_glide_energy>  (1) 
-19.785732207739695

>  <r_i_glide_erotb>  (1) 
0

>  <r_i_glide_esite>  (1) 
0

>  <r_i_glide_evdw>  (1) 
-20.774844334481141

>  <r_i_glide_gscore>  (1) 
-4.5960853063564802

>  <r_i_glide_gscore_strain>  (1) 
0

>  <r_i_glide_hbond>  (1) 
0

>  <r_i_glide_ligand_efficiency>  (1) 
-0.35354502356588308

>  <r_i_glide_ligand_efficiency_ln>  (1) 
-1.2892428041752535

>  <r_i_glide_ligand_efficiency_sa>  (1) 
-0.83130267758151366

>  <r_i_glide_lipo>  (1) 
-0.70337907859758153

>  <r_i_glide_metal>  (1) 
-0

>  <r_i_glide_rewards>  (1) 
-3.0023308300460578

>  <r_lp_Energy>  (1) 
15.481259999999999

>  <r_lp_tautomer_probability>  (1) 
1

>  <s_epik_cmdline>  (1) 
J2VwaWtfcHl0aG9uJywgJy1waHQnLCAnMS4wJywgJy1waCcsICc3LjQnLCAnLXRuJywgJzgnLCAnLW1hJywgJzUwMCcsICctaW1hZScsICc8aW5maWxlLm1hZT4nLCAnLW9tYWUnLCAnPG91dGZpbGUubWFlPic=

>  <s_epik_input>  (1) 
TzFbQ0gyXVtDSDJdT1tDSDJdYyhjMTIpW2NIXWMoRilbY0hdYzJbQ0gzXQ==

>  <s_glide_docking_method>  (1) 
confgen

>  <s_i_glide_gridfile>  (1) 
gpcr_drd2_6luq_protein_autoprepared_prepared

>  <s_lp_Force_Field>  (1) 
S-OPLS

>  <s_lp_Variant>  (1) 
Pocket2Mol_97_num_sample_100-1

>  <s_m_source_file>  (1) 
generated__ligand_Pocket2Mol_2026-05-06_prepared.sdf

>  <GenAI_Model>  (1) 
Pocket2Mol

>  <Protein>  (1) 
generic_title2

$$$$
Pocket2Mol_8_num_sample_100
     RDKit          3D

  0  0  0  0  0  0  0  0  0  0999 V3000
M  V30 BEGIN CTAB
M  V30 COUNTS 13 13 0 0 1
M  V30 BEGIN ATOM
M  V30 1 N 10.997578 8.113489 -5.881635 0
M  V30 2 C 11.434883 8.566903 -7.091509 0
M  V30 3 C 10.974151 7.922340 -8.122311 0
M  V30 4 C 10.234942 7.139413 -6.291696 0
M  V30 5 C 11.312220 8.230588 -9.564706 0
M  V30 6 C 10.056774 6.812577 -7.824393 0
M  V30 7 H 12.116585 9.403778 -7.126612 0
M  V30 8 H 9.679588 6.498462 -5.601885 0
M  V30 9 H 10.404344 8.470056 -10.119168 0
M  V30 10 H 11.992809 9.079934 -9.638684 0
M  V30 11 H 11.786278 7.369304 -10.035012 0
M  V30 12 H 10.448895 5.831456 -8.093109 0
M  V30 13 H 9.035899 6.978639 -8.172364 0
M  V30 END ATOM
M  V30 BEGIN BOND
M  V30 1 1 2 1
M  V30 2 2 3 2
M  V30 3 2 4 1
M  V30 4 1 5 3
M  V30 5 1 6 3
M  V30 6 1 6 4
M  V30 7 1 7 2
M  V30 8 1 8 4
M  V30 9 1 9 5
M  V30 10 1 10 5
M  V30 11 1 11 5
M  V30 12 1 12 6
M  V30 13 1 13 6
M  V30 END BOND
M  V30 END CTAB
M  END
>  <i_epik_Tot_Q>  (1) 
0

>  <i_epik_Tot_abs_Q>  (1) 
0

>  <i_i_glide_confnum>  (1) 
1

>  <i_i_glide_lignum>  (1) 
9

>  <i_i_glide_posenum>  (1) 
364

>  <i_i_glide_rotatable_bonds>  (1) 
0

>  <i_lp_mmshare_version>  (1) 
72125

>  <i_m_source_file_index>  (1) 
9

>  <i_f3d_flags>  (1) 
0

>  <num_sample>  (1) 
100

>  <b_lp_Chiralities_Consistent>  (1) 
1

>  <r_epik_Charging_Adjusted_Penalty>  (1) 
0

>  <r_epik_Ionization_Penalty>  (1) 
0

>  <r_epik_Ionization_Penalty_Charging>  (1) 
0

>  <r_epik_Ionization_Penalty_Neutral>  (1) 
0

>  <r_epik_State_Penalty>  (1) 
-0

>  <r_glide_ring_energy>  (1) 
0

>  <r_i_docking_score>  (1) 
-4.5948523355810584

>  <r_i_glide_ecoul>  (1) 
-1.3468361322049733

>  <r_i_glide_eff_state_penalty>  (1) 
-0

>  <r_i_glide_einternal>  (1) 
0

>  <r_i_glide_emodel>  (1) 
-21.723383097268574

>  <r_i_glide_emodel_strain>  (1) 
0

>  <r_i_glide_energy>  (1) 
-16.668695472149366

>  <r_i_glide_erotb>  (1) 
0

>  <r_i_glide_esite>  (1) 
0

>  <r_i_glide_evdw>  (1) 
-15.321859339944394

>  <r_i_glide_gscore>  (1) 
-4.5948523355810584

>  <r_i_glide_gscore_strain>  (1) 
0

>  <r_i_glide_hbond>  (1) 
0

>  <r_i_glide_ligand_efficiency>  (1) 
-0.76580872259684307

>  <r_i_glide_ligand_efficiency_ln>  (1) 
-1.6458625416077031

>  <r_i_glide_ligand_efficiency_sa>  (1) 
-1.3915668000011991

>  <r_i_glide_lipo>  (1) 
-0.53226831250641371

>  <r_i_glide_metal>  (1) 
-0

>  <r_i_glide_rewards>  (1) 
-3.0944656362466789

>  <r_lp_Energy>  (1) 
-3.9959819999999997

>  <r_lp_tautomer_probability>  (1) 
1

>  <s_epik_Chemistry_Notes>  (1) 
This compound has an imine and may undergo hydrolysis.

>  <s_epik_cmdline>  (1) 
J2VwaWtfcHl0aG9uJywgJy1waHQnLCAnMS4wJywgJy1waCcsICc3LjQnLCAnLXRuJywgJzgnLCAnLW1hJywgJzUwMCcsICctaW1hZScsICc8aW5maWxlLm1hZT4nLCAnLW9tYWUnLCAnPG91dGZpbGUubWFlPic=

>  <s_epik_input>  (1) 
W0NIMl0xW0NIXT1OW0NIXT1DMVtDSDNd

>  <s_glide_docking_method>  (1) 
confgen

>  <s_i_glide_gridfile>  (1) 
gpcr_drd2_6luq_protein_autoprepared_prepared

>  <s_lp_Force_Field>  (1) 
S-OPLS

>  <s_lp_Variant>  (1) 
Pocket2Mol_8_num_sample_100-1

>  <s_m_source_file>  (1) 
generated__ligand_Pocket2Mol_2026-05-06_prepared.sdf

>  <GenAI_Model>  (1) 
Pocket2Mol

>  <Protein>  (1) 
generic_title2

$$$$
Pocket2Mol_10_num_sample_100
     RDKit          3D

  0  0  0  0  0  0  0  0  0  0999 V3000
M  V30 BEGIN CTAB
M  V30 COUNTS 12 12 0 0 1
M  V30 BEGIN ATOM
M  V30 1 O 11.434802 8.087760 -4.987103 0
M  V30 2 C 11.572392 6.967688 -4.219560 0
M  V30 3 C 12.019433 9.092411 -4.285579 0
M  V30 4 C 12.234836 7.239939 -3.049274 0
M  V30 5 C 12.580459 6.275917 -1.946741 0
M  V30 6 C 12.521467 8.633404 -3.103581 0
M  V30 7 H 11.148906 6.068787 -4.645298 0
M  V30 8 H 11.993093 10.061125 -4.762493 0
M  V30 9 H 13.034839 6.802190 -1.108732 0
M  V30 10 H 11.682924 5.769573 -1.591369 0
M  V30 11 H 13.287676 5.523025 -2.291690 0
M  V30 12 H 13.034827 9.229444 -2.362692 0
M  V30 END ATOM
M  V30 BEGIN BOND
M  V30 1 1 2 1
M  V30 2 1 3 1
M  V30 3 2 4 2
M  V30 4 1 5 4
M  V30 5 2 6 3
M  V30 6 1 6 4
M  V30 7 1 7 2
M  V30 8 1 8 3
M  V30 9 1 9 5
M  V30 10 1 10 5
M  V30 11 1 11 5
M  V30 12 1 12 6
M  V30 END BOND
M  V30 END CTAB
M  END
>  <i_epik_Tot_Q>  (1) 
0

>  <i_epik_Tot_abs_Q>  (1) 
0

>  <i_i_glide_confnum>  (1) 
1

>  <i_i_glide_lignum>  (1) 
13

>  <i_i_glide_posenum>  (1) 
21

>  <i_i_glide_rotatable_bonds>  (1) 
0

>  <i_lp_mmshare_version>  (1) 
72125

>  <i_m_source_file_index>  (1) 
11

>  <i_f3d_flags>  (1) 
0

>  <num_sample>  (1) 
100

>  <b_lp_Chiralities_Consistent>  (1) 
1

>  <r_epik_Charging_Adjusted_Penalty>  (1) 
0

>  <r_epik_Ionization_Penalty>  (1) 
0

>  <r_epik_Ionization_Penalty_Charging>  (1) 
0

>  <r_epik_Ionization_Penalty_Neutral>  (1) 
0

>  <r_epik_State_Penalty>  (1) 
-0

>  <r_glide_ring_energy>  (1) 
0

>  <r_i_docking_score>  (1) 
-4.5917295816888997

>  <r_i_glide_ecoul>  (1) 
-0.9936382798366431

>  <r_i_glide_eff_state_penalty>  (1) 
-0

>  <r_i_glide_einternal>  (1) 
0

>  <r_i_glide_emodel>  (1) 
-18.630495387614822

>  <r_i_glide_emodel_strain>  (1) 
7.3823662240179999e-05

>  <r_i_glide_energy>  (1) 
-14.379309607263004

>  <r_i_glide_erotb>  (1) 
0

>  <r_i_glide_esite>  (1) 
0

>  <r_i_glide_evdw>  (1) 
-13.38567132742636

>  <r_i_glide_gscore>  (1) 
-4.5917295816888997

>  <r_i_glide_gscore_strain>  (1) 
0

>  <r_i_glide_hbond>  (1) 
0

>  <r_i_glide_ligand_efficiency>  (1) 
-0.76528826361481661

>  <r_i_glide_ligand_efficiency_ln>  (1) 
-1.6447439803825763

>  <r_i_glide_ligand_efficiency_sa>  (1) 
-1.3906210632672344

>  <r_i_glide_lipo>  (1) 
-1.2823514530446836

>  <r_i_glide_metal>  (1) 
-0

>  <r_i_glide_rewards>  (1) 
-2.4910488202974022

>  <r_lp_Energy>  (1) 
-1.206345

>  <r_lp_tautomer_probability>  (1) 
1

>  <s_epik_cmdline>  (1) 
J2VwaWtfcHl0aG9uJywgJy1waHQnLCAnMS4wJywgJy1waCcsICc3LjQnLCAnLXRuJywgJzgnLCAnLW1hJywgJzUwMCcsICctaW1hZScsICc8aW5maWxlLm1hZT4nLCAnLW9tYWUnLCAnPG91dGZpbGUubWFlPic=

>  <s_epik_input>  (1) 
W2NIXTFbY0hdb1tjSF1jMVtDSDNd

>  <s_glide_docking_method>  (1) 
confgen

>  <s_i_glide_gridfile>  (1) 
gpcr_drd2_6luq_protein_autoprepared_prepared

>  <s_lp_Force_Field>  (1) 
S-OPLS

>  <s_lp_Variant>  (1) 
Pocket2Mol_10_num_sample_100-1

>  <s_m_source_file>  (1) 
generated__ligand_Pocket2Mol_2026-05-06_prepared.sdf

>  <GenAI_Model>  (1) 
Pocket2Mol

>  <Protein>  (1) 
generic_title2

$$$$
Pocket2Mol_79_num_sample_100
     RDKit          3D

  0  0  0  0  0  0  0  0  0  0999 V3000
M  V30 BEGIN CTAB
M  V30 COUNTS 24 25 0 0 1
M  V30 BEGIN ATOM
M  V30 1 C 11.345340 8.688603 -7.041589 0
M  V30 2 O 12.095290 8.324858 -8.192509 0
M  V30 3 C 9.915069 8.155680 -7.103817 0
M  V30 4 O 9.993490 6.810988 -7.534588 0
M  V30 5 C 11.424838 8.537743 -9.426728 0
M  V30 6 C 9.828470 6.593415 -8.884729 0
M  V30 7 C 8.983707 5.548922 -9.312140 0
M  V30 8 C 10.491161 7.403978 -9.852550 0
M  V30 9 C 8.273305 4.692795 -8.291812 0
M  V30 10 C 8.789896 5.309462 -10.686824 0
M  V30 11 C 9.434839 6.113964 -11.640721 0
M  V30 12 C 10.281086 7.158218 -11.226958 0
M  V30 13 H 11.835155 8.268315 -6.165410 0
M  V30 14 H 11.352880 9.769303 -6.913825 0
M  V30 15 H 9.458962 8.187692 -6.114177 0
M  V30 16 H 9.273486 8.755589 -7.753136 0
M  V30 17 H 12.201980 8.627795 -10.186415 0
M  V30 18 H 10.892520 9.488222 -9.434907 0
M  V30 19 H 7.882240 5.304856 -7.478517 0
M  V30 20 H 7.434838 4.169302 -8.744548 0
M  V30 21 H 8.973366 3.964649 -7.891667 0
M  V30 22 H 8.139690 4.509430 -11.009046 0
M  V30 23 H 9.281035 5.929672 -12.693743 0
M  V30 24 H 10.772821 7.769301 -11.964123 0
M  V30 END ATOM
M  V30 BEGIN BOND
M  V30 1 1 2 1
M  V30 2 1 3 1
M  V30 3 1 4 3
M  V30 4 1 5 2
M  V30 5 1 6 4
M  V30 6 2 7 6
M  V30 7 1 8 5
M  V30 8 1 8 6
M  V30 9 1 9 7
M  V30 10 1 10 7
M  V30 11 2 11 10
M  V30 12 2 12 8
M  V30 13 1 12 11
M  V30 14 1 13 1
M  V30 15 1 14 1
M  V30 16 1 15 3
M  V30 17 1 16 3
M  V30 18 1 17 5
M  V30 19 1 18 5
M  V30 20 1 19 9
M  V30 21 1 20 9
M  V30 22 1 21 9
M  V30 23 1 22 10
M  V30 24 1 23 11
M  V30 25 1 24 12
M  V30 END BOND
M  V30 END CTAB
M  END
>  <i_epik_Tot_Q>  (1) 
0

>  <i_epik_Tot_abs_Q>  (1) 
0

>  <i_i_glide_confnum>  (1) 
2

>  <i_i_glide_lignum>  (1) 
86

>  <i_i_glide_posenum>  (1) 
264

>  <i_i_glide_rotatable_bonds>  (1) 
0

>  <i_lp_mmshare_version>  (1) 
72125

>  <i_m_source_file_index>  (1) 
80

>  <i_f3d_flags>  (1) 
0

>  <num_sample>  (1) 
100

>  <b_lp_Chiralities_Consistent>  (1) 
1

>  <r_epik_Charging_Adjusted_Penalty>  (1) 
0

>  <r_epik_Ionization_Penalty>  (1) 
2.8363962595523293e-13

>  <r_epik_Ionization_Penalty_Charging>  (1) 
0

>  <r_epik_Ionization_Penalty_Neutral>  (1) 
2.8363962595523293e-13

>  <r_epik_State_Penalty>  (1) 
-0

>  <r_glide_ring_energy>  (1) 
1.7614129466602644

>  <r_i_docking_score>  (1) 
-4.5841362919327127

>  <r_i_glide_ecoul>  (1) 
0.98125443252368849

>  <r_i_glide_eff_state_penalty>  (1) 
-0

>  <r_i_glide_einternal>  (1) 
0

>  <r_i_glide_emodel>  (1) 
-25.166123977582966

>  <r_i_glide_emodel_strain>  (1) 
0.0034126315681213271

>  <r_i_glide_energy>  (1) 
-19.392281117797804

>  <r_i_glide_erotb>  (1) 
0

>  <r_i_glide_esite>  (1) 
0

>  <r_i_glide_evdw>  (1) 
-20.373535550321492

>  <r_i_glide_gscore>  (1) 
-4.5841362919327127

>  <r_i_glide_gscore_strain>  (1) 
0

>  <r_i_glide_hbond>  (1) 
0

>  <r_i_glide_ligand_efficiency>  (1) 
-0.38201135766105937

>  <r_i_glide_ligand_efficiency_ln>  (1) 
-1.3154258499898648

>  <r_i_glide_ligand_efficiency_sa>  (1) 
-0.87458768386349917

>  <r_i_glide_lipo>  (1) 
-0.71727611739176622

>  <r_i_glide_metal>  (1) 
-0

>  <r_i_glide_rewards>  (1) 
-2.9953715619034256

>  <r_lp_Energy>  (1) 
16.059718999999998

>  <r_lp_tautomer_probability>  (1) 
1

>  <s_epik_cmdline>  (1) 
J2VwaWtfcHl0aG9uJywgJy1waHQnLCAnMS4wJywgJy1waCcsICc3LjQnLCAnLXRuJywgJzgnLCAnLW1hJywgJzUwMCcsICctaW1hZScsICc8aW5maWxlLm1hZT4nLCAnLW9tYWUnLCAnPG91dGZpbGUubWFlPic=

>  <s_epik_input>  (1) 
TzFbQ0gyXVtDSDJdT1tDSDJdYyhjMTIpW2NIXVtjSF1bY0hdYzJbQ0gzXQ==

>  <s_glide_docking_method>  (1) 
confgen

>  <s_i_glide_gridfile>  (1) 
gpcr_drd2_6luq_protein_autoprepared_prepared

>  <s_lp_Force_Field>  (1) 
S-OPLS

>  <s_lp_Variant>  (1) 
Pocket2Mol_79_num_sample_100-1

>  <s_m_source_file>  (1) 
generated__ligand_Pocket2Mol_2026-05-06_prepared.sdf

>  <GenAI_Model>  (1) 
Pocket2Mol

>  <Protein>  (1) 
generic_title2

$$$$
Pocket2Mol_23_num_sample_100
     RDKit          3D

  0  0  0  0  0  0  0  0  0  0999 V3000
M  V30 BEGIN CTAB
M  V30 COUNTS 11 11 0 0 1
M  V30 BEGIN ATOM
M  V30 1 N 11.434839 8.464790 -6.684278 0
M  V30 2 C 11.754744 8.436471 -8.001601 0
M  V30 3 C 10.989625 7.760278 -8.970977 0
M  V30 4 C 10.320132 7.792860 -6.305489 0
M  V30 5 C 9.493908 7.090285 -7.202813 0
M  V30 6 F 11.363290 7.769334 -10.273144 0
M  V30 7 C 9.834839 7.075529 -8.564102 0
M  V30 8 H 12.649165 8.969301 -8.288164 0
M  V30 9 H 10.081743 7.819094 -5.253399 0
M  V30 10 H 8.611462 6.574294 -6.851197 0
M  V30 11 H 9.222609 6.548220 -9.281260 0
M  V30 END ATOM
M  V30 BEGIN BOND
M  V30 1 2 2 1
M  V30 2 1 3 2
M  V30 3 1 4 1
M  V30 4 2 5 4
M  V30 5 1 6 3
M  V30 6 2 7 3
M  V30 7 1 7 5
M  V30 8 1 8 2
M  V30 9 1 9 4
M  V30 10 1 10 5
M  V30 11 1 11 7
M  V30 END BOND
M  V30 END CTAB
M  END
>  <i_epik_Tot_Q>  (1) 
0

>  <i_epik_Tot_abs_Q>  (1) 
0

>  <i_i_glide_confnum>  (1) 
1

>  <i_i_glide_lignum>  (1) 
27

>  <i_i_glide_posenum>  (1) 
34

>  <i_i_glide_rotatable_bonds>  (1) 
0

>  <i_lp_mmshare_version>  (1) 
72125

>  <i_m_source_file_index>  (1) 
24

>  <i_f3d_flags>  (1) 
0

>  <num_sample>  (1) 
100

>  <b_lp_Chiralities_Consistent>  (1) 
1

>  <r_epik_Charging_Adjusted_Penalty>  (1) 
0

>  <r_epik_Ionization_Penalty>  (1) 
7.3223601380878174e-05

>  <r_epik_Ionization_Penalty_Charging>  (1) 
0

>  <r_epik_Ionization_Penalty_Neutral>  (1) 
7.3223601380878174e-05

>  <r_epik_State_Penalty>  (1) 
-0

>  <r_glide_ring_energy>  (1) 
0

>  <r_i_docking_score>  (1) 
-4.5780588438073764

>  <r_i_glide_ecoul>  (1) 
-1.6529960466317291

>  <r_i_glide_eff_state_penalty>  (1) 
-0

>  <r_i_glide_einternal>  (1) 
0

>  <r_i_glide_emodel>  (1) 
-20.367785153118799

>  <r_i_glide_emodel_strain>  (1) 
0

>  <r_i_glide_energy>  (1) 
-15.651792267288819

>  <r_i_glide_erotb>  (1) 
0

>  <r_i_glide_esite>  (1) 
0

>  <r_i_glide_evdw>  (1) 
-13.99879622065709

>  <r_i_glide_gscore>  (1) 
-4.5780588438073764

>  <r_i_glide_gscore_strain>  (1) 
0

>  <r_i_glide_hbond>  (1) 
0

>  <r_i_glide_ligand_efficiency>  (1) 
-0.65400840625819667

>  <r_i_glide_ligand_efficiency_ln>  (1) 
-1.5540388579996087

>  <r_i_glide_ligand_efficiency_sa>  (1) 
-1.2510730741265772

>  <r_i_glide_lipo>  (1) 
-0.57124978153620054

>  <r_i_glide_metal>  (1) 
-0

>  <r_i_glide_rewards>  (1) 
-3.0589198442435621

>  <r_lp_Energy>  (1) 
10.789624

>  <r_lp_tautomer_probability>  (1) 
1

>  <s_epik_cmdline>  (1) 
J2VwaWtfcHl0aG9uJywgJy1waHQnLCAnMS4wJywgJy1waCcsICc3LjQnLCAnLXRuJywgJzgnLCAnLW1hJywgJzUwMCcsICctaW1hZScsICc8aW5maWxlLm1hZT4nLCAnLW9tYWUnLCAnPG91dGZpbGUubWFlPic=

>  <s_epik_input>  (1) 
W2NIXTFbY0hdW2NIXW5bY0hdYzFG

>  <s_glide_docking_method>  (1) 
confgen

>  <s_i_glide_gridfile>  (1) 
gpcr_drd2_6luq_protein_autoprepared_prepared

>  <s_lp_Force_Field>  (1) 
S-OPLS

>  <s_lp_Variant>  (1) 
Pocket2Mol_23_num_sample_100-1

>  <s_m_source_file>  (1) 
generated__ligand_Pocket2Mol_2026-05-06_prepared.sdf

>  <GenAI_Model>  (1) 
Pocket2Mol

>  <Protein>  (1) 
generic_title2

$$$$
Pocket2Mol_92_num_sample_100
     RDKit          3D

  0  0  0  0  0  0  0  0  0  0999 V3000
M  V30 BEGIN CTAB
M  V30 COUNTS 26 27 0 0 1
M  V30 BEGIN ATOM
M  V30 1 C 7.458201 5.894437 -14.016999 0
M  V30 2 O 8.340162 4.790834 -13.839029 0
M  V30 3 C 7.282118 6.827435 -12.804931 0
M  V30 4 O 8.516977 7.118034 -12.164216 0
M  V30 5 C 8.336873 4.163588 -12.567023 0
M  V30 6 C 8.826081 6.226357 -11.091667 0 CFG=2
M  V30 7 C 9.834839 6.840702 -10.125791 0
M  V30 8 C 9.330919 4.882312 -11.644020 0
M  V30 9 C 9.742837 6.587293 -8.740374 0
M  V30 10 N 10.804657 7.612351 -10.679842 0
M  V30 11 C 11.706777 8.169302 -9.837137 0
M  V30 12 C 11.689168 7.978242 -8.441616 0
M  V30 13 C 10.687115 7.169709 -7.884052 0
M  V30 14 H 6.481485 5.514713 -14.318428 0
M  V30 15 H 7.834838 6.468052 -14.863960 0
M  V30 16 H 6.541436 6.431140 -12.108461 0
M  V30 17 H 6.865542 7.769301 -13.158609 0
M  V30 18 H 7.335932 4.095476 -12.138006 0
M  V30 19 H 8.681455 3.139570 -12.714510 0
M  V30 20 H 10.272692 5.026506 -12.173596 0
M  V30 21 H 9.550819 4.225323 -10.801734 0
M  V30 22 H 8.953658 5.963123 -8.345952 0
M  V30 23 H 12.467462 8.786659 -10.291718 0
M  V30 24 H 12.432911 8.444822 -7.813650 0
M  V30 25 H 10.643397 7.000648 -6.818137 0
M  V30 26 H 7.926420 6.044123 -10.502509 0
M  V30 END ATOM
M  V30 BEGIN BOND
M  V30 1 1 2 1
M  V30 2 1 3 1
M  V30 3 1 4 3
M  V30 4 1 5 2
M  V30 5 1 6 4
M  V30 6 1 7 6
M  V30 7 1 8 5
M  V30 8 1 8 6
M  V30 9 1 9 7
M  V30 10 2 10 7
M  V30 11 1 11 10
M  V30 12 2 12 11
M  V30 13 2 13 9
M  V30 14 1 13 12
M  V30 15 1 14 1
M  V30 16 1 15 1
M  V30 17 1 16 3
M  V30 18 1 17 3
M  V30 19 1 18 5
M  V30 20 1 19 5
M  V30 21 1 20 8
M  V30 22 1 21 8
M  V30 23 1 22 9
M  V30 24 1 23 11
M  V30 25 1 24 12
M  V30 26 1 25 13
M  V30 27 1 6 26 CFG=1
M  V30 END BOND
M  V30 END CTAB
M  END
>  <i_epik_Tot_Q>  (1) 
0

>  <i_epik_Tot_abs_Q>  (1) 
0

>  <i_i_glide_confnum>  (1) 
3

>  <i_i_glide_lignum>  (1) 
101

>  <i_i_glide_posenum>  (1) 
330

>  <i_i_glide_rotatable_bonds>  (1) 
1

>  <i_lp_mmshare_version>  (1) 
72125

>  <i_m_source_file_index>  (1) 
93

>  <i_f3d_flags>  (1) 
0

>  <num_sample>  (1) 
100

>  <b_lp_Chiralities_Consistent>  (1) 
1

>  <r_epik_Charging_Adjusted_Penalty>  (1) 
0.0037896276157117258

>  <r_epik_Ionization_Penalty>  (1) 
0.0037896276174286705

>  <r_epik_Ionization_Penalty_Charging>  (1) 
0

>  <r_epik_Ionization_Penalty_Neutral>  (1) 
0.0037896276174286705

>  <r_epik_State_Penalty>  (1) 
0.0037896276157117258

>  <r_glide_ring_energy>  (1) 
0.0012564655157669368

>  <r_i_docking_score>  (1) 
-4.5760239088198249

>  <r_i_glide_ecoul>  (1) 
-1.4326873970055025

>  <r_i_glide_eff_state_penalty>  (1) 
0.0037896276157117258

>  <r_i_glide_einternal>  (1) 
4.5456949573752237e-05

>  <r_i_glide_emodel>  (1) 
-29.453640198552993

>  <r_i_glide_emodel_strain>  (1) 
0

>  <r_i_glide_energy>  (1) 
-22.941250116173993

>  <r_i_glide_erotb>  (1) 
0.4895878840251785

>  <r_i_glide_esite>  (1) 
0

>  <r_i_glide_evdw>  (1) 
-21.508562719168491

>  <r_i_glide_gscore>  (1) 
-4.5798135364355366

>  <r_i_glide_gscore_strain>  (1) 
0

>  <r_i_glide_hbond>  (1) 
0

>  <r_i_glide_ligand_efficiency>  (1) 
-0.35200183913998651

>  <r_i_glide_ligand_efficiency_ln>  (1) 
-1.2836154037481855

>  <r_i_glide_ligand_efficiency_sa>  (1) 
-0.82767413451135263

>  <r_i_glide_lipo>  (1) 
-0.93803811488592581

>  <r_i_glide_metal>  (1) 
-0

>  <r_i_glide_rewards>  (1) 
-2.8410320600655399

>  <r_lp_Energy>  (1) 
20.663057999999999

>  <s_epik_cmdline>  (1) 
J2VwaWtfcHl0aG9uJywgJy1waHQnLCAnMS4wJywgJy1waCcsICc3LjQnLCAnLXRuJywgJzgnLCAnLW1hJywgJzUwMCcsICctaW1hZScsICc8aW5maWxlLm1hZT4nLCAnLW9tYWUnLCAnPG91dGZpbGUubWFlPic=

>  <s_epik_input>  (1) 
W0NIMl0xW0NIMl1PW0NIMl1bQ0gyXU8vQzE9QzJcW0NIXT1bQ0hdW0NIXT1bQ0hdW05IXTI=

>  <s_glide_docking_method>  (1) 
confgen

>  <s_i_glide_gridfile>  (1) 
gpcr_drd2_6luq_protein_autoprepared_prepared

>  <s_lp_Force_Field>  (1) 
S-OPLS

>  <s_lp_Variant>  (1) 
Pocket2Mol_92_num_sample_100-2

>  <s_m_source_file>  (1) 
generated__ligand_Pocket2Mol_2026-05-06_prepared.sdf

>  <GenAI_Model>  (1) 
Pocket2Mol

>  <Protein>  (1) 
generic_title2

$$$$
Pocket2Mol_40_num_sample_100
     RDKit          3D

  0  0  0  0  0  0  0  0  0  0999 V3000
M  V30 BEGIN CTAB
M  V30 COUNTS 14 14 0 0 1
M  V30 BEGIN ATOM
M  V30 1 C 10.373908 7.310075 -8.863297 0
M  V30 2 O 9.434839 7.902343 -7.980664 0
M  V30 3 C 9.955593 8.569335 -6.900238 0
M  V30 4 C 11.581905 8.229379 -9.034343 0
M  V30 5 O 12.154865 8.465033 -7.758375 0
M  V30 6 C 11.275095 8.846510 -6.767095 0
M  V30 7 C 11.859428 9.604630 -5.537782 0
M  V30 8 O 13.097477 9.769324 -5.538287 0 CHG=-1
M  V30 9 O 11.034544 9.973886 -4.674127 0
M  V30 10 H 9.894344 7.127478 -9.823863 0
M  V30 11 H 10.681505 6.341476 -8.466968 0
M  V30 12 H 9.197061 8.837089 -6.179906 0
M  V30 13 H 11.289050 9.176203 -9.491338 0
M  V30 14 H 12.326602 7.769668 -9.684700 0
M  V30 END ATOM
M  V30 BEGIN BOND
M  V30 1 1 2 1
M  V30 2 1 3 2
M  V30 3 1 4 1
M  V30 4 1 5 4
M  V30 5 2 6 3
M  V30 6 1 6 5
M  V30 7 1 7 6
M  V30 8 1 8 7
M  V30 9 2 9 7
M  V30 10 1 10 1
M  V30 11 1 11 1
M  V30 12 1 12 3
M  V30 13 1 13 4
M  V30 14 1 14 4
M  V30 END BOND
M  V30 END CTAB
M  END
>  <i_epik_Tot_Q>  (1) 
-1

>  <i_epik_Tot_abs_Q>  (1) 
1

>  <i_i_glide_confnum>  (1) 
1

>  <i_i_glide_lignum>  (1) 
45

>  <i_i_glide_posenum>  (1) 
342

>  <i_i_glide_rotatable_bonds>  (1) 
1

>  <i_lp_mmshare_version>  (1) 
72125

>  <i_m_source_file_index>  (1) 
41

>  <i_f3d_flags>  (1) 
0

>  <num_sample>  (1) 
100

>  <b_lp_Chiralities_Consistent>  (1) 
1

>  <r_epik_Charging_Adjusted_Penalty>  (1) 
1.9393830553820406e-05

>  <r_epik_Ionization_Penalty>  (1) 
1.9393830553820406e-05

>  <r_epik_Ionization_Penalty_Charging>  (1) 
1.9393830553820406e-05

>  <r_epik_Ionization_Penalty_Neutral>  (1) 
0

>  <r_epik_State_Penalty>  (1) 
-0

>  <r_glide_ring_energy>  (1) 
0

>  <r_i_docking_score>  (1) 
-4.5674564346890536

>  <r_i_glide_ecoul>  (1) 
-0.51265054820532097

>  <r_i_glide_eff_state_penalty>  (1) 
-0

>  <r_i_glide_einternal>  (1) 
0.034613170516817782

>  <r_i_glide_emodel>  (1) 
-23.560094695278707

>  <r_i_glide_emodel_strain>  (1) 
0

>  <r_i_glide_energy>  (1) 
-16.90680744829103

>  <r_i_glide_erotb>  (1) 
0

>  <r_i_glide_esite>  (1) 
0

>  <r_i_glide_evdw>  (1) 
-16.394156900085708

>  <r_i_glide_gscore>  (1) 
-4.5674564346890536

>  <r_i_glide_gscore_strain>  (1) 
0

>  <r_i_glide_hbond>  (1) 
0

>  <r_i_glide_ligand_efficiency>  (1) 
-0.50749515940989487

>  <r_i_glide_ligand_efficiency_ln>  (1) 
-1.4285691618492586

>  <r_i_glide_ligand_efficiency_sa>  (1) 
-1.0556324713656697

>  <r_i_glide_lipo>  (1) 
-0.57918434078730352

>  <r_i_glide_metal>  (1) 
-0

>  <r_i_glide_rewards>  (1) 
-3.0916666666666668

>  <r_lp_Energy>  (1) 
18.695968999999998

>  <r_lp_tautomer_probability>  (1) 
1

>  <s_epik_cmdline>  (1) 
J2VwaWtfcHl0aG9uJywgJy1waHQnLCAnMS4wJywgJy1waCcsICc3LjQnLCAnLXRuJywgJzgnLCAnLW1hJywgJzUwMCcsICctaW1hZScsICc8aW5maWxlLm1hZT4nLCAnLW9tYWUnLCAnPG91dGZpbGUubWFlPic=

>  <s_epik_input>  (1) 
TzFbQ0gyXVtDSDJdT1tDSF09QzFDKD1PKVtPSF0=

>  <s_glide_docking_method>  (1) 
confgen

>  <s_i_glide_gridfile>  (1) 
gpcr_drd2_6luq_protein_autoprepared_prepared

>  <s_lp_Force_Field>  (1) 
S-OPLS

>  <s_lp_Variant>  (1) 
Pocket2Mol_40_num_sample_100-1

>  <s_m_source_file>  (1) 
generated__ligand_Pocket2Mol_2026-05-06_prepared.sdf

>  <GenAI_Model>  (1) 
Pocket2Mol

>  <Protein>  (1) 
generic_title2

$$$$
Pocket2Mol_7_num_sample_100
     RDKit          3D

  0  0  0  0  0  0  0  0  0  0999 V3000
M  V30 BEGIN CTAB
M  V30 COUNTS 11 11 0 0 1
M  V30 BEGIN ATOM
M  V30 1 N 11.897388 9.558300 -4.555080 0
M  V30 2 C 11.141990 9.249830 -5.635501 0
M  V30 3 C 10.692365 7.946064 -5.920922 0
M  V30 4 C 11.043080 6.906143 -5.047554 0
M  V30 5 C 11.834893 7.208679 -3.924700 0
M  V30 6 C 12.234832 8.544825 -3.722673 0
M  V30 7 H 10.888915 10.069680 -6.291667 0
M  V30 8 H 10.089604 7.749446 -6.796599 0
M  V30 9 H 10.714787 5.894928 -5.235042 0
M  V30 10 H 12.131016 6.433037 -3.232163 0
M  V30 11 H 12.850595 8.807674 -2.873230 0
M  V30 END ATOM
M  V30 BEGIN BOND
M  V30 1 2 2 1
M  V30 2 1 3 2
M  V30 3 2 4 3
M  V30 4 1 5 4
M  V30 5 1 6 1
M  V30 6 2 6 5
M  V30 7 1 7 2
M  V30 8 1 8 3
M  V30 9 1 9 4
M  V30 10 1 10 5
M  V30 11 1 11 6
M  V30 END BOND
M  V30 END CTAB
M  END
>  <i_epik_Tot_Q>  (1) 
0

>  <i_epik_Tot_abs_Q>  (1) 
0

>  <i_i_glide_confnum>  (1) 
1

>  <i_i_glide_lignum>  (1) 
8

>  <i_i_glide_posenum>  (1) 
289

>  <i_i_glide_rotatable_bonds>  (1) 
0

>  <i_lp_mmshare_version>  (1) 
72125

>  <i_m_source_file_index>  (1) 
8

>  <i_f3d_flags>  (1) 
0

>  <num_sample>  (1) 
100

>  <b_lp_Chiralities_Consistent>  (1) 
1

>  <r_epik_Charging_Adjusted_Penalty>  (1) 
0

>  <r_epik_Ionization_Penalty>  (1) 
0.0028947865417402485

>  <r_epik_Ionization_Penalty_Charging>  (1) 
0

>  <r_epik_Ionization_Penalty_Neutral>  (1) 
0.0028947865417402485

>  <r_epik_State_Penalty>  (1) 
-0

>  <r_glide_ring_energy>  (1) 
0

>  <r_i_docking_score>  (1) 
-4.5670164581395625

>  <r_i_glide_ecoul>  (1) 
-1.1850230215181687

>  <r_i_glide_eff_state_penalty>  (1) 
-0

>  <r_i_glide_einternal>  (1) 
0

>  <r_i_glide_emodel>  (1) 
-19.164481098599882

>  <r_i_glide_emodel_strain>  (1) 
0

>  <r_i_glide_energy>  (1) 
-14.775264125979614

>  <r_i_glide_erotb>  (1) 
0

>  <r_i_glide_esite>  (1) 
0

>  <r_i_glide_evdw>  (1) 
-13.590241104461445

>  <r_i_glide_gscore>  (1) 
-4.5670164581395625

>  <r_i_glide_gscore_strain>  (1) 
0

>  <r_i_glide_hbond>  (1) 
0

>  <r_i_glide_ligand_efficiency>  (1) 
-0.76116940968992708

>  <r_i_glide_ligand_efficiency_ln>  (1) 
-1.6358918124856869

>  <r_i_glide_ligand_efficiency_sa>  (1) 
-1.3831366089814503

>  <r_i_glide_lipo>  (1) 
-1.3332654760762164

>  <r_i_glide_metal>  (1) 
-0

>  <r_i_glide_rewards>  (1) 
-2.3764854736125485

>  <r_lp_Energy>  (1) 
11.088944

>  <r_lp_tautomer_probability>  (1) 
1

>  <s_epik_cmdline>  (1) 
J2VwaWtfcHl0aG9uJywgJy1waHQnLCAnMS4wJywgJy1waCcsICc3LjQnLCAnLXRuJywgJzgnLCAnLW1hJywgJzUwMCcsICctaW1hZScsICc8aW5maWxlLm1hZT4nLCAnLW9tYWUnLCAnPG91dGZpbGUubWFlPic=

>  <s_epik_input>  (1) 
bjFbY0hdW2NIXVtjSF1bY0hdW2NIXTE=

>  <s_glide_docking_method>  (1) 
confgen

>  <s_i_glide_gridfile>  (1) 
gpcr_drd2_6luq_protein_autoprepared_prepared

>  <s_lp_Force_Field>  (1) 
S-OPLS

>  <s_lp_Variant>  (1) 
Pocket2Mol_7_num_sample_100-1

>  <s_m_source_file>  (1) 
generated__ligand_Pocket2Mol_2026-05-06_prepared.sdf

>  <GenAI_Model>  (1) 
Pocket2Mol

>  <Protein>  (1) 
generic_title2

$$$$
Pocket2Mol_79_num_sample_100
     RDKit          3D

  0  0  0  0  0  0  0  0  0  0999 V3000
M  V30 BEGIN CTAB
M  V30 COUNTS 24 25 0 0 1
M  V30 BEGIN ATOM
M  V30 1 C 11.834180 9.154448 -7.075857 0
M  V30 2 O 10.532472 8.783399 -6.662068 0
M  V30 3 C 12.252531 8.421577 -8.355232 0
M  V30 4 O 11.182040 8.422431 -9.286663 0
M  V30 5 C 10.303013 7.386285 -6.669895 0
M  V30 6 C 10.299493 7.359137 -9.249777 0
M  V30 7 C 9.834864 6.801828 -10.467138 0
M  V30 8 C 9.842714 6.814082 -8.010760 0
M  V30 9 C 10.300597 7.369301 -11.787848 0
M  V30 10 C 8.942431 5.714078 -10.452945 0
M  V30 11 C 8.501378 5.180179 -9.233432 0
M  V30 12 C 8.947787 5.727700 -8.019423 0
M  V30 13 H 11.834839 10.229475 -7.229079 0
M  V30 14 H 12.550198 8.969302 -6.275982 0
M  V30 15 H 13.108955 8.925035 -8.803634 0
M  V30 16 H 12.581538 7.404458 -8.140269 0
M  V30 17 H 9.504700 7.208941 -5.948296 0
M  V30 18 H 11.165493 6.832091 -6.295252 0
M  V30 19 H 11.389599 7.369300 -11.832292 0
M  V30 20 H 9.934886 6.774184 -12.624947 0
M  V30 21 H 9.915452 8.382462 -11.902147 0
M  V30 22 H 8.591303 5.291013 -11.382382 0
M  V30 23 H 7.809553 4.351677 -9.227706 0
M  V30 24 H 8.595048 5.319198 -7.091646 0
M  V30 END ATOM
M  V30 BEGIN BOND
M  V30 1 1 2 1
M  V30 2 1 3 1
M  V30 3 1 4 3
M  V30 4 1 5 2
M  V30 5 1 6 4
M  V30 6 2 7 6
M  V30 7 1 8 5
M  V30 8 1 8 6
M  V30 9 1 9 7
M  V30 10 1 10 7
M  V30 11 2 11 10
M  V30 12 2 12 8
M  V30 13 1 12 11
M  V30 14 1 13 1
M  V30 15 1 14 1
M  V30 16 1 15 3
M  V30 17 1 16 3
M  V30 18 1 17 5
M  V30 19 1 18 5
M  V30 20 1 19 9
M  V30 21 1 20 9
M  V30 22 1 21 9
M  V30 23 1 22 10
M  V30 24 1 23 11
M  V30 25 1 24 12
M  V30 END BOND
M  V30 END CTAB
M  END
>  <i_epik_Tot_Q>  (1) 
0

>  <i_epik_Tot_abs_Q>  (1) 
0

>  <i_i_glide_confnum>  (1) 
2

>  <i_i_glide_lignum>  (1) 
86

>  <i_i_glide_posenum>  (1) 
372

>  <i_i_glide_rotatable_bonds>  (1) 
0

>  <i_lp_mmshare_version>  (1) 
72125

>  <i_m_source_file_index>  (1) 
80

>  <i_f3d_flags>  (1) 
0

>  <num_sample>  (1) 
100

>  <b_lp_Chiralities_Consistent>  (1) 
1

>  <r_epik_Charging_Adjusted_Penalty>  (1) 
0

>  <r_epik_Ionization_Penalty>  (1) 
2.8363962595523293e-13

>  <r_epik_Ionization_Penalty_Charging>  (1) 
0

>  <r_epik_Ionization_Penalty_Neutral>  (1) 
2.8363962595523293e-13

>  <r_epik_State_Penalty>  (1) 
-0

>  <r_glide_ring_energy>  (1) 
1.7614129466602644

>  <r_i_docking_score>  (1) 
-4.5656342267937351

>  <r_i_glide_ecoul>  (1) 
0.586998499523675

>  <r_i_glide_eff_state_penalty>  (1) 
-0

>  <r_i_glide_einternal>  (1) 
0

>  <r_i_glide_emodel>  (1) 
-24.444074224453566

>  <r_i_glide_emodel_strain>  (1) 
0

>  <r_i_glide_energy>  (1) 
-18.69013635513819

>  <r_i_glide_erotb>  (1) 
0

>  <r_i_glide_esite>  (1) 
0

>  <r_i_glide_evdw>  (1) 
-19.277134854661863

>  <r_i_glide_gscore>  (1) 
-4.5656342267937351

>  <r_i_glide_gscore_strain>  (1) 
0

>  <r_i_glide_hbond>  (1) 
0

>  <r_i_glide_ligand_efficiency>  (1) 
-0.38046951889947794

>  <r_i_glide_ligand_efficiency_ln>  (1) 
-1.3101166503474289

>  <r_i_glide_ligand_efficiency_sa>  (1) 
-0.87105775428329302

>  <r_i_glide_lipo>  (1) 
-0.67799574163306398

>  <r_i_glide_metal>  (1) 
-0

>  <r_i_glide_rewards>  (1) 
-3.0118315173561294

>  <r_lp_Energy>  (1) 
16.059718999999998

>  <r_lp_tautomer_probability>  (1) 
1

>  <s_epik_cmdline>  (1) 
J2VwaWtfcHl0aG9uJywgJy1waHQnLCAnMS4wJywgJy1waCcsICc3LjQnLCAnLXRuJywgJzgnLCAnLW1hJywgJzUwMCcsICctaW1hZScsICc8aW5maWxlLm1hZT4nLCAnLW9tYWUnLCAnPG91dGZpbGUubWFlPic=

>  <s_epik_input>  (1) 
TzFbQ0gyXVtDSDJdT1tDSDJdYyhjMTIpW2NIXVtjSF1bY0hdYzJbQ0gzXQ==

>  <s_glide_docking_method>  (1) 
confgen

>  <s_i_glide_gridfile>  (1) 
gpcr_drd2_6luq_protein_autoprepared_prepared

>  <s_lp_Force_Field>  (1) 
S-OPLS

>  <s_lp_Variant>  (1) 
Pocket2Mol_79_num_sample_100-1

>  <s_m_source_file>  (1) 
generated__ligand_Pocket2Mol_2026-05-06_prepared.sdf

>  <GenAI_Model>  (1) 
Pocket2Mol

>  <Protein>  (1) 
generic_title2

$$$$
Pocket2Mol_14_num_sample_100
     RDKit          3D

  0  0  0  0  0  0  0  0  0  0999 V3000
M  V30 BEGIN CTAB
M  V30 COUNTS 17 17 0 0 1
M  V30 BEGIN ATOM
M  V30 1 C 11.055770 8.569271 -7.017634 0
M  V30 2 O 10.602005 7.409635 -6.327970 0
M  V30 3 C 9.436353 6.838544 -6.917949 0
M  V30 4 C 9.768338 6.349508 -8.339357 0 CFG=1
M  V30 5 O 8.634878 5.769279 -8.952738 0
M  V30 6 C 11.441240 8.214382 -8.464973 0
M  V30 7 C 10.276123 7.524060 -9.186940 0
M  V30 8 H 10.280443 9.335607 -6.994445 0
M  V30 9 H 11.917946 8.978462 -6.490385 0
M  V30 10 H 8.634829 7.577050 -6.931028 0
M  V30 11 H 9.095460 6.011512 -6.295990 0
M  V30 12 H 10.541339 5.582442 -8.277251 0
M  V30 13 H 7.977352 6.453789 -9.091667 0
M  V30 14 H 11.743300 9.111417 -9.006967 0
M  V30 15 H 12.305552 7.551135 -8.453198 0
M  V30 16 H 10.589417 7.178985 -10.172745 0
M  V30 17 H 9.469494 8.242131 -9.346301 0
M  V30 END ATOM
M  V30 BEGIN BOND
M  V30 1 1 2 1
M  V30 2 1 3 2
M  V30 3 1 4 3
M  V30 4 1 5 4
M  V30 5 1 6 1
M  V30 6 1 7 4
M  V30 7 1 7 6
M  V30 8 1 8 1
M  V30 9 1 9 1
M  V30 10 1 10 3
M  V30 11 1 11 3
M  V30 12 1 4 12 CFG=1
M  V30 13 1 13 5
M  V30 14 1 14 6
M  V30 15 1 15 6
M  V30 16 1 16 7
M  V30 17 1 17 7
M  V30 END BOND
M  V30 END CTAB
M  END
>  <i_epik_Tot_Q>  (1) 
0

>  <i_epik_Tot_abs_Q>  (1) 
0

>  <i_i_glide_confnum>  (1) 
1

>  <i_i_glide_lignum>  (1) 
17

>  <i_i_glide_posenum>  (1) 
246

>  <i_i_glide_rotatable_bonds>  (1) 
1

>  <i_lp_mmshare_version>  (1) 
72125

>  <i_m_source_file_index>  (1) 
15

>  <i_f3d_flags>  (1) 
0

>  <num_sample>  (1) 
100

>  <b_lp_Chiralities_Consistent>  (1) 
1

>  <r_epik_Charging_Adjusted_Penalty>  (1) 
0

>  <r_epik_Ionization_Penalty>  (1) 
4.2263924331700322e-08

>  <r_epik_Ionization_Penalty_Charging>  (1) 
0

>  <r_epik_Ionization_Penalty_Neutral>  (1) 
4.2263924331700322e-08

>  <r_epik_State_Penalty>  (1) 
-0

>  <r_glide_ring_energy>  (1) 
0

>  <r_i_docking_score>  (1) 
-4.560025697248558

>  <r_i_glide_ecoul>  (1) 
-3.4348997661383782

>  <r_i_glide_eff_state_penalty>  (1) 
-0

>  <r_i_glide_einternal>  (1) 
0.026917370779046323

>  <r_i_glide_emodel>  (1) 
-24.306256123554672

>  <r_i_glide_emodel_strain>  (1) 
0

>  <r_i_glide_energy>  (1) 
-18.277582624865257

>  <r_i_glide_erotb>  (1) 
0

>  <r_i_glide_esite>  (1) 
0

>  <r_i_glide_evdw>  (1) 
-14.842682858726878

>  <r_i_glide_gscore>  (1) 
-4.560025697248558

>  <r_i_glide_gscore_strain>  (1) 
0

>  <r_i_glide_hbond>  (1) 
-0.16

>  <r_i_glide_ligand_efficiency>  (1) 
-0.65143224246407971

>  <r_i_glide_ligand_efficiency_ln>  (1) 
-1.5479174402894993

>  <r_i_glide_ligand_efficiency_sa>  (1) 
-1.2461450500728819

>  <r_i_glide_lipo>  (1) 
-0.45098992272479088

>  <r_i_glide_metal>  (1) 
-0

>  <r_i_glide_rewards>  (1) 
-2.6916666666666669

>  <r_lp_Energy>  (1) 
6.7642049999999996

>  <r_lp_tautomer_probability>  (1) 
1

>  <s_epik_cmdline>  (1) 
J2VwaWtfcHl0aG9uJywgJy1waHQnLCAnMS4wJywgJy1waCcsICc3LjQnLCAnLXRuJywgJzgnLCAnLW1hJywgJzUwMCcsICctaW1hZScsICc8aW5maWxlLm1hZT4nLCAnLW9tYWUnLCAnPG91dGZpbGUubWFlPic=

>  <s_epik_input>  (1) 
W0NIMl0xW0NIMl1bQ0gyXU9bQ0gyXVtDQEhdMVtPSF0=

>  <s_glide_docking_method>  (1) 
confgen

>  <s_i_glide_gridfile>  (1) 
gpcr_drd2_6luq_protein_autoprepared_prepared

>  <s_lp_Force_Field>  (1) 
S-OPLS

>  <s_lp_Variant>  (1) 
Pocket2Mol_14_num_sample_100-1

>  <s_m_source_file>  (1) 
generated__ligand_Pocket2Mol_2026-05-06_prepared.sdf

>  <GenAI_Model>  (1) 
Pocket2Mol

>  <Protein>  (1) 
generic_title2

$$$$
Pocket2Mol_87_num_sample_100
     RDKit          3D

  0  0  0  0  0  0  0  0  0  0999 V3000
M  V30 BEGIN CTAB
M  V30 COUNTS 21 22 0 0 1
M  V30 BEGIN ATOM
M  V30 1 C 9.344020 7.523733 -11.493128 0
M  V30 2 O 10.751159 7.369300 -11.390651 0
M  V30 3 C 8.714165 6.183568 -11.164558 0
M  V30 4 O 9.434839 5.557026 -10.127155 0
M  V30 5 C 11.389452 7.769301 -10.270353 0
M  V30 6 C 9.731063 6.269654 -8.986571 0
M  V30 7 C 9.111119 5.904809 -7.781149 0
M  V30 8 O 12.426020 8.433573 -10.291667 0
M  V30 9 C 10.695399 7.333326 -8.993352 0
M  V30 10 C 11.025311 7.976407 -7.765318 0
M  V30 11 C 9.434835 6.568097 -6.585837 0
M  V30 12 O 11.960665 8.969301 -7.728421 0
M  V30 13 C 10.388895 7.592562 -6.576599 0
M  V30 14 H 8.984151 8.300844 -10.815869 0
M  V30 15 H 9.074145 7.834932 -12.502189 0
M  V30 16 H 7.657733 6.267154 -10.916061 0
M  V30 17 H 8.777242 5.531607 -12.035953 0
M  V30 18 H 8.387600 5.103129 -7.771215 0
M  V30 19 H 8.958426 6.272698 -5.666748 0
M  V30 20 H 12.388547 9.082419 -8.569980 0
M  V30 21 H 10.638278 8.085819 -5.648960 0
M  V30 END ATOM
M  V30 BEGIN BOND
M  V30 1 1 2 1
M  V30 2 1 3 1
M  V30 3 1 4 3
M  V30 4 1 5 2
M  V30 5 1 6 4
M  V30 6 2 7 6
M  V30 7 2 8 5
M  V30 8 1 9 5
M  V30 9 1 9 6
M  V30 10 2 10 9
M  V30 11 1 11 7
M  V30 12 1 12 10
M  V30 13 1 13 10
M  V30 14 2 13 11
M  V30 15 1 14 1
M  V30 16 1 15 1
M  V30 17 1 16 3
M  V30 18 1 17 3
M  V30 19 1 18 7
M  V30 20 1 19 11
M  V30 21 1 20 12
M  V30 22 1 21 13
M  V30 END BOND
M  V30 END CTAB
M  END
>  <i_epik_Tot_Q>  (1) 
0

>  <i_epik_Tot_abs_Q>  (1) 
0

>  <i_i_glide_confnum>  (1) 
4

>  <i_i_glide_lignum>  (1) 
94

>  <i_i_glide_posenum>  (1) 
292

>  <i_i_glide_rotatable_bonds>  (1) 
1

>  <i_lp_mmshare_version>  (1) 
72125

>  <i_m_source_file_index>  (1) 
88

>  <i_f3d_flags>  (1) 
0

>  <num_sample>  (1) 
100

>  <b_lp_Chiralities_Consistent>  (1) 
1

>  <r_epik_Charging_Adjusted_Penalty>  (1) 
0.011568550508496497

>  <r_epik_Ionization_Penalty>  (1) 
0.011568550508503217

>  <r_epik_Ionization_Penalty_Charging>  (1) 
0

>  <r_epik_Ionization_Penalty_Neutral>  (1) 
0.011568550508503217

>  <r_epik_State_Penalty>  (1) 
0.011568550508496497

>  <r_glide_ring_energy>  (1) 
1.8863748849943527

>  <r_i_docking_score>  (1) 
-4.5594523409232721

>  <r_i_glide_ecoul>  (1) 
-1.6543585238133165

>  <r_i_glide_eff_state_penalty>  (1) 
0.011568550508496497

>  <r_i_glide_einternal>  (1) 
0.063769123643403258

>  <r_i_glide_emodel>  (1) 
-28.527271240053437

>  <r_i_glide_emodel_strain>  (1) 
0

>  <r_i_glide_energy>  (1) 
-22.602524169992357

>  <r_i_glide_erotb>  (1) 
0

>  <r_i_glide_esite>  (1) 
0

>  <r_i_glide_evdw>  (1) 
-20.948165646179042

>  <r_i_glide_gscore>  (1) 
-4.5710208914317683

>  <r_i_glide_gscore_strain>  (1) 
0

>  <r_i_glide_hbond>  (1) 
0

>  <r_i_glide_ligand_efficiency>  (1) 
-0.35072710314794403

>  <r_i_glide_ligand_efficiency_ln>  (1) 
-1.2789669315723136

>  <r_i_glide_ligand_efficiency_sa>  (1) 
-0.82467680355557693

>  <r_i_glide_lipo>  (1) 
-0.29637406204254702

>  <r_i_glide_metal>  (1) 
-0

>  <r_i_glide_rewards>  (1) 
-2.9790847685082711

>  <r_lp_Energy>  (1) 
16.036466999999998

>  <s_epik_Chemistry_Notes>  (1) 
This compound has an ester and may undergo hydrolysis at high or low pH.

>  <s_epik_cmdline>  (1) 
J2VwaWtfcHl0aG9uJywgJy1waHQnLCAnMS4wJywgJy1waCcsICc3LjQnLCAnLXRuJywgJzgnLCAnLW1hJywgJzUwMCcsICctaW1hZScsICc8aW5maWxlLm1hZT4nLCAnLW9tYWUnLCAnPG91dGZpbGUubWFlPic=

>  <s_epik_input>  (1) 
TzFbQ0gyXVtDSDJdT0MoPU8pYyhjMTIpYyhbT0hdKVtjSF1bY0hdW2NIXTI=

>  <s_glide_docking_method>  (1) 
confgen

>  <s_i_glide_gridfile>  (1) 
gpcr_drd2_6luq_protein_autoprepared_prepared

>  <s_lp_Force_Field>  (1) 
S-OPLS

>  <s_lp_Variant>  (1) 
Pocket2Mol_87_num_sample_100-1

>  <s_m_source_file>  (1) 
generated__ligand_Pocket2Mol_2026-05-06_prepared.sdf

>  <GenAI_Model>  (1) 
Pocket2Mol

>  <Protein>  (1) 
generic_title2

$$$$
Pocket2Mol_21_num_sample_100
     RDKit          3D

  0  0  0  0  0  0  0  0  0  0999 V3000
M  V30 BEGIN CTAB
M  V30 COUNTS 12 12 0 0 1
M  V30 BEGIN ATOM
M  V30 1 N 10.987758 8.289291 -6.241262 0
M  V30 2 C 11.033386 7.119095 -5.571355 0
M  V30 3 C 11.578682 7.016533 -4.288834 0
M  V30 4 C 12.084661 8.187763 -3.716791 0
M  V30 5 N 12.633318 8.169301 -2.441388 0
M  V30 6 N 12.055126 9.369294 -4.358255 0
M  V30 7 C 11.499668 9.338882 -5.580881 0
M  V30 8 H 10.624635 6.253204 -6.071228 0
M  V30 9 H 11.604499 6.072902 -3.763582 0
M  V30 10 H 12.661575 7.324162 -1.891974 0
M  V30 11 H 12.978876 9.014493 -2.005809 0
M  V30 12 H 11.461896 10.284190 -6.102027 0
M  V30 END ATOM
M  V30 BEGIN BOND
M  V30 1 1 2 1
M  V30 2 2 3 2
M  V30 3 1 4 3
M  V30 4 1 5 4
M  V30 5 2 6 4
M  V30 6 2 7 1
M  V30 7 1 7 6
M  V30 8 1 8 2
M  V30 9 1 9 3
M  V30 10 1 10 5
M  V30 11 1 11 5
M  V30 12 1 12 7
M  V30 END BOND
M  V30 END CTAB
M  END
>  <i_epik_Tot_Q>  (1) 
0

>  <i_epik_Tot_abs_Q>  (1) 
0

>  <i_i_glide_confnum>  (1) 
1

>  <i_i_glide_lignum>  (1) 
25

>  <i_i_glide_posenum>  (1) 
131

>  <i_i_glide_rotatable_bonds>  (1) 
0

>  <i_lp_mmshare_version>  (1) 
72125

>  <i_m_source_file_index>  (1) 
22

>  <i_f3d_flags>  (1) 
0

>  <num_sample>  (1) 
100

>  <b_lp_Chiralities_Consistent>  (1) 
1

>  <r_epik_Charging_Adjusted_Penalty>  (1) 
0.011441366301234922

>  <r_epik_Ionization_Penalty>  (1) 
0.011523414685131987

>  <r_epik_Ionization_Penalty_Charging>  (1) 
0

>  <r_epik_Ionization_Penalty_Neutral>  (1) 
0.011523414685131987

>  <r_epik_State_Penalty>  (1) 
0.011441366301234922

>  <r_glide_ring_energy>  (1) 
0

>  <r_i_docking_score>  (1) 
-4.5514163705385844

>  <r_i_glide_ecoul>  (1) 
-1.4018089157711109

>  <r_i_glide_eff_state_penalty>  (1) 
0.011441366301234922

>  <r_i_glide_einternal>  (1) 
0

>  <r_i_glide_emodel>  (1) 
-23.51591512774376

>  <r_i_glide_emodel_strain>  (1) 
0

>  <r_i_glide_energy>  (1) 
-18.078142843373158

>  <r_i_glide_erotb>  (1) 
0

>  <r_i_glide_esite>  (1) 
0

>  <r_i_glide_evdw>  (1) 
-16.676333927602048

>  <r_i_glide_gscore>  (1) 
-4.5628577368398195

>  <r_i_glide_gscore_strain>  (1) 
0

>  <r_i_glide_hbond>  (1) 
0

>  <r_i_glide_ligand_efficiency>  (1) 
-0.65020233864836918

>  <r_i_glide_ligand_efficiency_ln>  (1) 
-1.5449949727754326

>  <r_i_glide_ligand_efficiency_sa>  (1) 
-1.2437923287119985

>  <r_i_glide_lipo>  (1) 
-0.81876970309405084

>  <r_i_glide_metal>  (1) 
-0

>  <r_i_glide_rewards>  (1) 
-2.7000000000000002

>  <r_lp_Energy>  (1) 
9.3523319999999988

>  <r_lp_tautomer_probability>  (1) 
0.9999995832001739

>  <s_epik_cmdline>  (1) 
J2VwaWtfcHl0aG9uJywgJy1waHQnLCAnMS4wJywgJy1waCcsICc3LjQnLCAnLXRuJywgJzgnLCAnLW1hJywgJzUwMCcsICctaW1hZScsICc8aW5maWxlLm1hZT4nLCAnLW9tYWUnLCAnPG91dGZpbGUubWFlPic=

>  <s_epik_input>  (1) 
bjFbY0hdbltjSF1bY0hdYzFbTkgyXQ==

>  <s_glide_docking_method>  (1) 
confgen

>  <s_i_glide_gridfile>  (1) 
gpcr_drd2_6luq_protein_autoprepared_prepared

>  <s_lp_Force_Field>  (1) 
S-OPLS

>  <s_lp_Variant>  (1) 
Pocket2Mol_21_num_sample_100-1

>  <s_m_source_file>  (1) 
generated__ligand_Pocket2Mol_2026-05-06_prepared.sdf

>  <GenAI_Model>  (1) 
Pocket2Mol

>  <Protein>  (1) 
generic_title2

$$$$
Pocket2Mol_74_num_sample_100
     RDKit          3D

  0  0  0  0  0  0  0  0  0  0999 V3000
M  V30 BEGIN CTAB
M  V30 COUNTS 20 21 0 0 1
M  V30 BEGIN ATOM
M  V30 1 C 11.899770 8.168700 -7.780323 0
M  V30 2 O 10.521237 8.131597 -7.459967 0
M  V30 3 C 12.098740 8.435248 -9.267314 0
M  V30 4 O 10.842479 8.569300 -9.892902 0
M  V30 5 C 9.835678 6.988538 -7.627803 0
M  V30 6 C 10.203428 7.386287 -10.141646 0
M  V30 7 C 10.030512 6.969304 -11.477165 0
M  V30 8 O 9.365654 6.348508 -6.691670 0
M  V30 9 C 9.699803 6.578412 -9.075477 0
M  V30 10 C 9.034851 5.369294 -9.378838 0
M  V30 11 C 8.874113 4.963803 -10.717678 0
M  V30 12 C 9.371060 5.761257 -11.763176 0
M  V30 13 H 12.381072 7.233673 -7.491672 0
M  V30 14 H 12.371431 8.958037 -7.194690 0
M  V30 15 H 12.693283 7.649686 -9.736074 0
M  V30 16 H 12.635549 9.369302 -9.410849 0
M  V30 17 H 10.405520 7.579953 -12.284415 0
M  V30 18 H 8.643956 4.753012 -8.581705 0
M  V30 19 H 8.365139 4.038865 -10.942565 0
M  V30 20 H 9.243627 5.446568 -12.788359 0
M  V30 END ATOM
M  V30 BEGIN BOND
M  V30 1 1 2 1
M  V30 2 1 3 1
M  V30 3 1 4 3
M  V30 4 1 5 2
M  V30 5 1 6 4
M  V30 6 2 7 6
M  V30 7 2 8 5
M  V30 8 1 9 5
M  V30 9 1 9 6
M  V30 10 2 10 9
M  V30 11 1 11 10
M  V30 12 1 12 7
M  V30 13 2 12 11
M  V30 14 1 13 1
M  V30 15 1 14 1
M  V30 16 1 15 3
M  V30 17 1 16 3
M  V30 18 1 17 7
M  V30 19 1 18 10
M  V30 20 1 19 11
M  V30 21 1 20 12
M  V30 END BOND
M  V30 END CTAB
M  END
>  <i_epik_Tot_Q>  (1) 
0

>  <i_epik_Tot_abs_Q>  (1) 
0

>  <i_i_glide_confnum>  (1) 
6

>  <i_i_glide_lignum>  (1) 
81

>  <i_i_glide_posenum>  (1) 
182

>  <i_i_glide_rotatable_bonds>  (1) 
0

>  <i_lp_mmshare_version>  (1) 
72125

>  <i_m_source_file_index>  (1) 
75

>  <i_f3d_flags>  (1) 
0

>  <num_sample>  (1) 
100

>  <b_lp_Chiralities_Consistent>  (1) 
1

>  <r_epik_Charging_Adjusted_Penalty>  (1) 
0

>  <r_epik_Ionization_Penalty>  (1) 
6.5779134034160639e-16

>  <r_epik_Ionization_Penalty_Charging>  (1) 
0

>  <r_epik_Ionization_Penalty_Neutral>  (1) 
6.5779134034160639e-16

>  <r_epik_State_Penalty>  (1) 
-0

>  <r_glide_ring_energy>  (1) 
1.0387810876674941

>  <r_i_docking_score>  (1) 
-4.5502099850039013

>  <r_i_glide_ecoul>  (1) 
0.96335225386384415

>  <r_i_glide_eff_state_penalty>  (1) 
-0

>  <r_i_glide_einternal>  (1) 
0

>  <r_i_glide_emodel>  (1) 
-28.400454745713539

>  <r_i_glide_emodel_strain>  (1) 
0.19592796729285311

>  <r_i_glide_energy>  (1) 
-21.795231739731463

>  <r_i_glide_erotb>  (1) 
0

>  <r_i_glide_esite>  (1) 
-0.038162303927568968

>  <r_i_glide_evdw>  (1) 
-22.758583993595305

>  <r_i_glide_gscore>  (1) 
-4.5502099850039013

>  <r_i_glide_gscore_strain>  (1) 
0

>  <r_i_glide_hbond>  (1) 
0

>  <r_i_glide_ligand_efficiency>  (1) 
-0.37918416541699179

>  <r_i_glide_ligand_efficiency_ln>  (1) 
-1.3056906374466895

>  <r_i_glide_ligand_efficiency_sa>  (1) 
-0.86811502940705809

>  <r_i_glide_lipo>  (1) 
-0.64161789036052375

>  <r_i_glide_metal>  (1) 
-0

>  <r_i_glide_rewards>  (1) 
-2.8770034291156201

>  <r_lp_Energy>  (1) 
17.344456999999998

>  <r_lp_tautomer_probability>  (1) 
1

>  <s_epik_Chemistry_Notes>  (1) 
This compound has an ester and may undergo hydrolysis at high or low pH.

>  <s_epik_cmdline>  (1) 
J2VwaWtfcHl0aG9uJywgJy1waHQnLCAnMS4wJywgJy1waCcsICc3LjQnLCAnLXRuJywgJzgnLCAnLW1hJywgJzUwMCcsICctaW1hZScsICc8aW5maWxlLm1hZT4nLCAnLW9tYWUnLCAnPG91dGZpbGUubWFlPic=

>  <s_epik_input>  (1) 
TzFbQ0gyXVtDSDJdT0MoPU8pYyhjMTIpW2NIXVtjSF1bY0hdW2NIXTI=

>  <s_glide_docking_method>  (1) 
confgen

>  <s_i_glide_gridfile>  (1) 
gpcr_drd2_6luq_protein_autoprepared_prepared

>  <s_lp_Force_Field>  (1) 
S-OPLS

>  <s_lp_Variant>  (1) 
Pocket2Mol_74_num_sample_100-1

>  <s_m_source_file>  (1) 
generated__ligand_Pocket2Mol_2026-05-06_prepared.sdf

>  <GenAI_Model>  (1) 
Pocket2Mol

>  <Protein>  (1) 
generic_title2

$$$$
Pocket2Mol_21_num_sample_100
     RDKit          3D

  0  0  0  0  0  0  0  0  0  0999 V3000
M  V30 BEGIN CTAB
M  V30 COUNTS 12 12 0 0 1
M  V30 BEGIN ATOM
M  V30 1 N 11.834844 8.153150 -4.289680 0
M  V30 2 C 11.303416 7.007455 -4.766004 0
M  V30 3 C 10.619260 6.955038 -5.980951 0
M  V30 4 C 10.506448 8.144065 -6.700780 0
M  V30 5 N 9.834815 8.169308 -7.914665 0
M  V30 6 N 11.034839 9.302768 -6.261238 0
M  V30 7 C 11.662625 9.225978 -5.078209 0
M  V30 8 H 11.425095 6.122435 -4.158835 0
M  V30 9 H 10.192908 6.032332 -6.345766 0
M  V30 10 H 9.307079 7.368564 -8.235767 0
M  V30 11 H 9.662569 9.039556 -8.393601 0
M  V30 12 H 12.084900 10.149594 -4.711426 0
M  V30 END ATOM
M  V30 BEGIN BOND
M  V30 1 1 2 1
M  V30 2 2 3 2
M  V30 3 1 4 3
M  V30 4 1 5 4
M  V30 5 2 6 4
M  V30 6 2 7 1
M  V30 7 1 7 6
M  V30 8 1 8 2
M  V30 9 1 9 3
M  V30 10 1 10 5
M  V30 11 1 11 5
M  V30 12 1 12 7
M  V30 END BOND
M  V30 END CTAB
M  END
>  <i_epik_Tot_Q>  (1) 
0

>  <i_epik_Tot_abs_Q>  (1) 
0

>  <i_i_glide_confnum>  (1) 
1

>  <i_i_glide_lignum>  (1) 
25

>  <i_i_glide_posenum>  (1) 
10

>  <i_i_glide_rotatable_bonds>  (1) 
0

>  <i_lp_mmshare_version>  (1) 
72125

>  <i_m_source_file_index>  (1) 
22

>  <i_f3d_flags>  (1) 
0

>  <num_sample>  (1) 
100

>  <b_lp_Chiralities_Consistent>  (1) 
1

>  <r_epik_Charging_Adjusted_Penalty>  (1) 
0.011441366301234922

>  <r_epik_Ionization_Penalty>  (1) 
0.011523414685131987

>  <r_epik_Ionization_Penalty_Charging>  (1) 
0

>  <r_epik_Ionization_Penalty_Neutral>  (1) 
0.011523414685131987

>  <r_epik_State_Penalty>  (1) 
0.011441366301234922

>  <r_glide_ring_energy>  (1) 
0

>  <r_i_docking_score>  (1) 
-4.5498971145131799

>  <r_i_glide_ecoul>  (1) 
-1.720221887115494

>  <r_i_glide_eff_state_penalty>  (1) 
0.011441366301234922

>  <r_i_glide_einternal>  (1) 
0

>  <r_i_glide_emodel>  (1) 
-22.745624310302574

>  <r_i_glide_emodel_strain>  (1) 
0

>  <r_i_glide_energy>  (1) 
-17.309662594830733

>  <r_i_glide_erotb>  (1) 
0

>  <r_i_glide_esite>  (1) 
-0.067536439331876585

>  <r_i_glide_evdw>  (1) 
-15.589440707715239

>  <r_i_glide_gscore>  (1) 
-4.5613384808144151

>  <r_i_glide_gscore_strain>  (1) 
0

>  <r_i_glide_hbond>  (1) 
0

>  <r_i_glide_ligand_efficiency>  (1) 
-0.6499853020733114

>  <r_i_glide_ligand_efficiency_ln>  (1) 
-1.544479255747915

>  <r_i_glide_ligand_efficiency_sa>  (1) 
-1.2433771526797683

>  <r_i_glide_lipo>  (1) 
-0.75629672302945239

>  <r_i_glide_metal>  (1) 
-0

>  <r_i_glide_rewards>  (1) 
-2.7000000000000002

>  <r_lp_Energy>  (1) 
9.3523319999999988

>  <r_lp_tautomer_probability>  (1) 
0.9999995832001739

>  <s_epik_cmdline>  (1) 
J2VwaWtfcHl0aG9uJywgJy1waHQnLCAnMS4wJywgJy1waCcsICc3LjQnLCAnLXRuJywgJzgnLCAnLW1hJywgJzUwMCcsICctaW1hZScsICc8aW5maWxlLm1hZT4nLCAnLW9tYWUnLCAnPG91dGZpbGUubWFlPic=

>  <s_epik_input>  (1) 
bjFbY0hdbltjSF1bY0hdYzFbTkgyXQ==

>  <s_glide_docking_method>  (1) 
confgen

>  <s_i_glide_gridfile>  (1) 
gpcr_drd2_6luq_protein_autoprepared_prepared

>  <s_lp_Force_Field>  (1) 
S-OPLS

>  <s_lp_Variant>  (1) 
Pocket2Mol_21_num_sample_100-1

>  <s_m_source_file>  (1) 
generated__ligand_Pocket2Mol_2026-05-06_prepared.sdf

>  <GenAI_Model>  (1) 
Pocket2Mol

>  <Protein>  (1) 
generic_title2

$$$$
Pocket2Mol_19_num_sample_100
     RDKit          3D

  0  0  0  0  0  0  0  0  0  0999 V3000
M  V30 BEGIN CTAB
M  V30 COUNTS 14 14 0 0 1
M  V30 BEGIN ATOM
M  V30 1 N 10.765171 8.569015 -6.296157 0 CHG=1
M  V30 2 C 11.414419 9.463415 -5.518883 0
M  V30 3 C 11.969537 9.053058 -4.288841 0
M  V30 4 C 11.834840 7.704133 -3.891708 0
M  V30 5 N 12.367303 7.270228 -2.680378 0
M  V30 6 C 11.151413 6.802336 -4.735573 0
M  V30 7 C 10.617345 7.272124 -5.952879 0
M  V30 8 H 11.467478 10.473583 -5.899310 0
M  V30 9 H 12.488748 9.760986 -3.659049 0
M  V30 10 H 12.139866 6.352684 -2.321716 0
M  V30 11 H 12.717121 7.935261 -2.004927 0
M  V30 12 H 11.034860 5.769302 -4.451907 0
M  V30 13 H 10.076391 6.652585 -6.656012 0
M  V30 14 H 10.367369 8.887098 -7.182432 0
M  V30 END ATOM
M  V30 BEGIN BOND
M  V30 1 1 2 1
M  V30 2 2 3 2
M  V30 3 1 4 3
M  V30 4 1 5 4
M  V30 5 2 6 4
M  V30 6 2 7 1
M  V30 7 1 7 6
M  V30 8 1 8 2
M  V30 9 1 9 3
M  V30 10 1 10 5
M  V30 11 1 11 5
M  V30 12 1 12 6
M  V30 13 1 13 7
M  V30 14 1 14 1
M  V30 END BOND
M  V30 END CTAB
M  END
>  <i_epik_Tot_Q>  (1) 
1

>  <i_epik_Tot_abs_Q>  (1) 
1

>  <i_i_glide_confnum>  (1) 
1

>  <i_i_glide_lignum>  (1) 
22

>  <i_i_glide_posenum>  (1) 
48

>  <i_i_glide_rotatable_bonds>  (1) 
0

>  <i_lp_mmshare_version>  (1) 
72125

>  <i_m_source_file_index>  (1) 
20

>  <i_f3d_flags>  (1) 
0

>  <num_sample>  (1) 
100

>  <b_lp_Chiralities_Consistent>  (1) 
1

>  <r_epik_Charging_Adjusted_Penalty>  (1) 
0.023410508937706027

>  <r_epik_Ionization_Penalty>  (1) 
0.011711918016166721

>  <r_epik_Ionization_Penalty_Charging>  (1) 
0.011705254468853022

>  <r_epik_Ionization_Penalty_Neutral>  (1) 
6.6635473136990569e-06

>  <r_epik_State_Penalty>  (1) 
0.011705254468853005

>  <r_glide_ring_energy>  (1) 
0

>  <r_i_docking_score>  (1) 
-4.5465168070582456

>  <r_i_glide_ecoul>  (1) 
-1.504831394772169

>  <r_i_glide_eff_state_penalty>  (1) 
0.011705254468853005

>  <r_i_glide_einternal>  (1) 
0

>  <r_i_glide_emodel>  (1) 
-24.492375448997901

>  <r_i_glide_emodel_strain>  (1) 
0

>  <r_i_glide_energy>  (1) 
-15.985704422536561

>  <r_i_glide_erotb>  (1) 
0

>  <r_i_glide_esite>  (1) 
0

>  <r_i_glide_evdw>  (1) 
-14.480873027764392

>  <r_i_glide_gscore>  (1) 
-4.5582220615270987

>  <r_i_glide_gscore_strain>  (1) 
0

>  <r_i_glide_hbond>  (1) 
0

>  <r_i_glide_ligand_efficiency>  (1) 
-0.6495024010083208

>  <r_i_glide_ligand_efficiency_ln>  (1) 
-1.5433317979899048

>  <r_i_glide_ligand_efficiency_sa>  (1) 
-1.2424533961743538

>  <r_i_glide_lipo>  (1) 
-1.3584537009230531

>  <r_i_glide_metal>  (1) 
-0

>  <r_i_glide_rewards>  (1) 
-2.25

>  <r_lp_Energy>  (1) 
13.062742999999999

>  <r_lp_tautomer_probability>  (1) 
0.99999999993680011

>  <s_epik_cmdline>  (1) 
J2VwaWtfcHl0aG9uJywgJy1waHQnLCAnMS4wJywgJy1waCcsICc3LjQnLCAnLXRuJywgJzgnLCAnLW1hJywgJzUwMCcsICctaW1hZScsICc8aW5maWxlLm1hZT4nLCAnLW9tYWUnLCAnPG91dGZpbGUubWFlPic=

>  <s_epik_input>  (1) 
W2NIXTFbY0hdbltjSF1bY0hdYzFbTkgyXQ==

>  <s_glide_docking_method>  (1) 
confgen

>  <s_i_glide_gridfile>  (1) 
gpcr_drd2_6luq_protein_autoprepared_prepared

>  <s_lp_Force_Field>  (1) 
S-OPLS

>  <s_lp_Variant>  (1) 
Pocket2Mol_19_num_sample_100-1

>  <s_m_source_file>  (1) 
generated__ligand_Pocket2Mol_2026-05-06_prepared.sdf

>  <GenAI_Model>  (1) 
Pocket2Mol

>  <Protein>  (1) 
generic_title2

$$$$
Pocket2Mol_19_num_sample_100
     RDKit          3D

  0  0  0  0  0  0  0  0  0  0999 V3000
M  V30 BEGIN CTAB
M  V30 COUNTS 14 14 0 0 1
M  V30 BEGIN ATOM
M  V30 1 N 7.184349 5.769302 -11.091666 0 CHG=1
M  V30 2 C 8.440323 5.300323 -11.241549 0
M  V30 3 C 8.676649 4.169522 -12.050244 0
M  V30 4 C 7.584074 3.545767 -12.691670 0
M  V30 5 N 7.784641 2.423342 -13.491666 0
M  V30 6 C 6.285160 4.071281 -12.508931 0
M  V30 7 C 6.114922 5.204355 -11.686150 0
M  V30 8 H 9.213430 5.839692 -10.712762 0
M  V30 9 H 9.679124 3.786068 -12.175796 0
M  V30 10 H 6.994137 1.876764 -13.802682 0
M  V30 11 H 8.669738 1.936274 -13.469526 0
M  V30 12 H 5.434851 3.612052 -12.990114 0
M  V30 13 H 5.161618 5.671907 -11.486831 0
M  V30 14 H 7.034839 6.606755 -10.487895 0
M  V30 END ATOM
M  V30 BEGIN BOND
M  V30 1 1 2 1
M  V30 2 2 3 2
M  V30 3 1 4 3
M  V30 4 1 5 4
M  V30 5 2 6 4
M  V30 6 2 7 1
M  V30 7 1 7 6
M  V30 8 1 8 2
M  V30 9 1 9 3
M  V30 10 1 10 5
M  V30 11 1 11 5
M  V30 12 1 12 6
M  V30 13 1 13 7
M  V30 14 1 14 1
M  V30 END BOND
M  V30 END CTAB
M  END
>  <i_epik_Tot_Q>  (1) 
1

>  <i_epik_Tot_abs_Q>  (1) 
1

>  <i_i_glide_confnum>  (1) 
1

>  <i_i_glide_lignum>  (1) 
22

>  <i_i_glide_posenum>  (1) 
183

>  <i_i_glide_rotatable_bonds>  (1) 
0

>  <i_lp_mmshare_version>  (1) 
72125

>  <i_m_source_file_index>  (1) 
20

>  <i_f3d_flags>  (1) 
0

>  <num_sample>  (1) 
100

>  <b_lp_Chiralities_Consistent>  (1) 
1

>  <r_epik_Charging_Adjusted_Penalty>  (1) 
0.023410508937706027

>  <r_epik_Ionization_Penalty>  (1) 
0.011711918016166721

>  <r_epik_Ionization_Penalty_Charging>  (1) 
0.011705254468853022

>  <r_epik_Ionization_Penalty_Neutral>  (1) 
6.6635473136990569e-06

>  <r_epik_State_Penalty>  (1) 
0.011705254468853005

>  <r_glide_ring_energy>  (1) 
0

>  <r_i_docking_score>  (1) 
-4.5421484397539524

>  <r_i_glide_ecoul>  (1) 
-6.3456661685970417

>  <r_i_glide_eff_state_penalty>  (1) 
0.011705254468853005

>  <r_i_glide_einternal>  (1) 
0

>  <r_i_glide_emodel>  (1) 
-25.64188458939244

>  <r_i_glide_emodel_strain>  (1) 
0

>  <r_i_glide_energy>  (1) 
-17.1433659221358

>  <r_i_glide_erotb>  (1) 
0

>  <r_i_glide_esite>  (1) 
-0.10000000000000001

>  <r_i_glide_evdw>  (1) 
-10.797699753538758

>  <r_i_glide_gscore>  (1) 
-4.5538536942228056

>  <r_i_glide_gscore_strain>  (1) 
0

>  <r_i_glide_hbond>  (1) 
-0.20000000000000001

>  <r_i_glide_ligand_efficiency>  (1) 
-0.6488783485362789

>  <r_i_glide_ligand_efficiency_ln>  (1) 
-1.5418489396937365

>  <r_i_glide_ligand_efficiency_sa>  (1) 
-1.2412596267408986

>  <r_i_glide_lipo>  (1) 
-0.51211878125631116

>  <r_i_glide_metal>  (1) 
-0

>  <r_i_glide_rewards>  (1) 
-2.25

>  <r_lp_Energy>  (1) 
13.062742999999999

>  <r_lp_tautomer_probability>  (1) 
0.99999999993680011

>  <s_epik_cmdline>  (1) 
J2VwaWtfcHl0aG9uJywgJy1waHQnLCAnMS4wJywgJy1waCcsICc3LjQnLCAnLXRuJywgJzgnLCAnLW1hJywgJzUwMCcsICctaW1hZScsICc8aW5maWxlLm1hZT4nLCAnLW9tYWUnLCAnPG91dGZpbGUubWFlPic=

>  <s_epik_input>  (1) 
W2NIXTFbY0hdbltjSF1bY0hdYzFbTkgyXQ==

>  <s_glide_docking_method>  (1) 
confgen

>  <s_i_glide_gridfile>  (1) 
gpcr_drd2_6luq_protein_autoprepared_prepared

>  <s_lp_Force_Field>  (1) 
S-OPLS

>  <s_lp_Variant>  (1) 
Pocket2Mol_19_num_sample_100-1

>  <s_m_source_file>  (1) 
generated__ligand_Pocket2Mol_2026-05-06_prepared.sdf

>  <GenAI_Model>  (1) 
Pocket2Mol

>  <Protein>  (1) 
generic_title2

$$$$
Pocket2Mol_34_num_sample_100
     RDKit          3D

  0  0  0  0  0  0  0  0  0  0999 V3000
M  V30 BEGIN CTAB
M  V30 COUNTS 21 22 0 0 1
M  V30 BEGIN ATOM
M  V30 1 C 12.326735 8.471966 -8.126141 0
M  V30 2 O 11.773470 7.368730 -7.430589 0
M  V30 3 C 10.389441 7.285631 -7.758058 0 CFG=2
M  V30 4 C 9.582809 8.070063 -6.710973 0
M  V30 5 C 9.954482 5.831732 -7.891671 0
M  V30 6 C 11.661711 8.399878 -9.491668 0
M  V30 7 C 9.278513 5.775540 -9.255312 0
M  V30 8 C 10.279592 7.842256 -9.183798 0 CFG=1
M  V30 9 O 9.995843 6.728895 -10.022471 0
M  V30 10 H 13.413898 8.412351 -8.183601 0
M  V30 11 H 12.060017 9.391123 -7.606931 0
M  V30 12 H 8.515600 8.026921 -6.921694 0
M  V30 13 H 9.740765 7.659486 -5.713939 0
M  V30 14 H 9.870603 9.119982 -6.689182 0
M  V30 15 H 9.292070 5.501496 -7.091669 0
M  V30 16 H 10.827368 5.180137 -7.891687 0
M  V30 17 H 12.213618 7.709971 -10.131199 0
M  V30 18 H 11.632265 9.369289 -9.986125 0
M  V30 19 H 8.234895 6.076807 -9.178672 0
M  V30 20 H 9.317329 4.783276 -9.705300 0
M  V30 21 H 9.492487 8.594033 -9.265403 0
M  V30 END ATOM
M  V30 BEGIN BOND
M  V30 1 1 2 1
M  V30 2 1 3 2
M  V30 3 1 3 4 CFG=1
M  V30 4 1 5 3
M  V30 5 1 6 1
M  V30 6 1 7 5
M  V30 7 1 8 3
M  V30 8 1 8 6
M  V30 9 1 9 7
M  V30 10 1 9 8
M  V30 11 1 10 1
M  V30 12 1 11 1
M  V30 13 1 12 4
M  V30 14 1 13 4
M  V30 15 1 14 4
M  V30 16 1 15 5
M  V30 17 1 16 5
M  V30 18 1 17 6
M  V30 19 1 18 6
M  V30 20 1 19 7
M  V30 21 1 20 7
M  V30 22 1 8 21 CFG=1
M  V30 END BOND
M  V30 END CTAB
M  END
>  <i_epik_Tot_Q>  (1) 
0

>  <i_epik_Tot_abs_Q>  (1) 
0

>  <i_i_glide_confnum>  (1) 
4

>  <i_i_glide_lignum>  (1) 
38

>  <i_i_glide_posenum>  (1) 
228

>  <i_i_glide_rotatable_bonds>  (1) 
0

>  <i_lp_mmshare_version>  (1) 
72125

>  <i_m_source_file_index>  (1) 
35

>  <i_f3d_flags>  (1) 
0

>  <num_sample>  (1) 
100

>  <b_lp_Chiralities_Consistent>  (1) 
1

>  <r_epik_Charging_Adjusted_Penalty>  (1) 
0

>  <r_epik_Ionization_Penalty>  (1) 
2.529470820146915e-12

>  <r_epik_Ionization_Penalty_Charging>  (1) 
0

>  <r_epik_Ionization_Penalty_Neutral>  (1) 
2.529470820146915e-12

>  <r_epik_State_Penalty>  (1) 
-0

>  <r_glide_ring_energy>  (1) 
0.71124509259843272

>  <r_i_docking_score>  (1) 
-4.5392860588639543

>  <r_i_glide_ecoul>  (1) 
-0.65891904118267774

>  <r_i_glide_eff_state_penalty>  (1) 
-0

>  <r_i_glide_einternal>  (1) 
0

>  <r_i_glide_emodel>  (1) 
-24.068540115236701

>  <r_i_glide_emodel_strain>  (1) 
0

>  <r_i_glide_energy>  (1) 
-18.877690187723392

>  <r_i_glide_erotb>  (1) 
0

>  <r_i_glide_esite>  (1) 
0

>  <r_i_glide_evdw>  (1) 
-18.218771146540714

>  <r_i_glide_gscore>  (1) 
-4.5392860588639543

>  <r_i_glide_gscore_strain>  (1) 
0

>  <r_i_glide_hbond>  (1) 
0

>  <r_i_glide_ligand_efficiency>  (1) 
-0.50436511765155045

>  <r_i_glide_ligand_efficiency_ln>  (1) 
-1.419758277551425

>  <r_i_glide_ligand_efficiency_sa>  (1) 
-1.0491217221386606

>  <r_i_glide_lipo>  (1) 
-0.62765021624858675

>  <r_i_glide_metal>  (1) 
-0

>  <r_i_glide_rewards>  (1) 
-2.9018594291109303

>  <r_lp_Energy>  (1) 
-0.369228

>  <r_lp_tautomer_probability>  (1) 
1

>  <s_epik_cmdline>  (1) 
J2VwaWtfcHl0aG9uJywgJy1waHQnLCAnMS4wJywgJy1waCcsICc3LjQnLCAnLXRuJywgJzgnLCAnLW1hJywgJzUwMCcsICctaW1hZScsICc8aW5maWxlLm1hZT4nLCAnLW9tYWUnLCAnPG91dGZpbGUubWFlPic=

>  <s_epik_input>  (1) 
TzFbQ0gyXVtDSDJdW0NASF0oW0NAXTEyW0NIM10pT1tDSDJdW0NIMl0y

>  <s_glide_docking_method>  (1) 
confgen

>  <s_i_glide_gridfile>  (1) 
gpcr_drd2_6luq_protein_autoprepared_prepared

>  <s_lp_Force_Field>  (1) 
S-OPLS

>  <s_lp_Variant>  (1) 
Pocket2Mol_34_num_sample_100-1

>  <s_m_source_file>  (1) 
generated__ligand_Pocket2Mol_2026-05-06_prepared.sdf

>  <GenAI_Model>  (1) 
Pocket2Mol

>  <Protein>  (1) 
generic_title2

$$$$
Pocket2Mol_89_num_sample_100
     RDKit          3D

  0  0  0  0  0  0  0  0  0  0999 V3000
M  V30 BEGIN CTAB
M  V30 COUNTS 23 24 0 0 1
M  V30 BEGIN ATOM
M  V30 1 C 10.236392 8.596433 -6.703548 0
M  V30 2 O 11.570797 8.308387 -7.095189 0
M  V30 3 C 9.565002 7.300363 -6.291656 0
M  V30 4 O 10.034014 6.239704 -7.092537 0
M  V30 5 C 11.870120 8.111737 -8.401733 0
M  V30 6 C 9.957040 6.406670 -8.453218 0
M  V30 7 C 9.020080 5.653034 -9.186803 0
M  V30 8 O 12.876923 8.569351 -8.933163 0
M  V30 9 C 10.841799 7.293327 -9.137841 0
M  V30 10 C 8.078306 4.718317 -8.464206 0
M  V30 11 C 10.777665 7.388314 -10.545985 0
M  V30 12 C 9.835075 6.632874 -11.266927 0
M  V30 13 C 8.957282 5.769318 -10.589995 0
M  V30 14 H 9.682597 9.056686 -7.522819 0
M  V30 15 H 10.234835 9.308987 -5.878899 0
M  V30 16 H 8.479511 7.383401 -6.337541 0
M  V30 17 H 9.835346 7.061261 -5.263151 0
M  V30 18 H 7.427124 4.183707 -9.155338 0
M  V30 19 H 8.652946 3.994944 -7.891690 0
M  V30 20 H 7.454387 5.284581 -7.772958 0
M  V30 21 H 11.451195 8.046672 -11.072475 0
M  V30 22 H 9.787006 6.715191 -12.342668 0
M  V30 23 H 8.235261 5.191375 -11.147649 0
M  V30 END ATOM
M  V30 BEGIN BOND
M  V30 1 1 2 1
M  V30 2 1 3 1
M  V30 3 1 4 3
M  V30 4 1 5 2
M  V30 5 1 6 4
M  V30 6 2 7 6
M  V30 7 2 8 5
M  V30 8 1 9 5
M  V30 9 1 9 6
M  V30 10 1 10 7
M  V30 11 2 11 9
M  V30 12 1 12 11
M  V30 13 1 13 7
M  V30 14 2 13 12
M  V30 15 1 14 1
M  V30 16 1 15 1
M  V30 17 1 16 3
M  V30 18 1 17 3
M  V30 19 1 18 10
M  V30 20 1 19 10
M  V30 21 1 20 10
M  V30 22 1 21 11
M  V30 23 1 22 12
M  V30 24 1 23 13
M  V30 END BOND
M  V30 END CTAB
M  END
>  <i_epik_Tot_Q>  (1) 
0

>  <i_epik_Tot_abs_Q>  (1) 
0

>  <i_i_glide_confnum>  (1) 
3

>  <i_i_glide_lignum>  (1) 
96

>  <i_i_glide_posenum>  (1) 
237

>  <i_i_glide_rotatable_bonds>  (1) 
0

>  <i_lp_mmshare_version>  (1) 
72125

>  <i_m_source_file_index>  (1) 
90

>  <i_f3d_flags>  (1) 
0

>  <num_sample>  (1) 
100

>  <b_lp_Chiralities_Consistent>  (1) 
1

>  <r_epik_Charging_Adjusted_Penalty>  (1) 
0

>  <r_epik_Ionization_Penalty>  (1) 
1.0524661445465699e-15

>  <r_epik_Ionization_Penalty_Charging>  (1) 
0

>  <r_epik_Ionization_Penalty_Neutral>  (1) 
1.0524661445465699e-15

>  <r_epik_State_Penalty>  (1) 
-0

>  <r_glide_ring_energy>  (1) 
0.44692708829558941

>  <r_i_docking_score>  (1) 
-4.5382796994177346

>  <r_i_glide_ecoul>  (1) 
0.90143937006520281

>  <r_i_glide_eff_state_penalty>  (1) 
-0

>  <r_i_glide_einternal>  (1) 
0

>  <r_i_glide_emodel>  (1) 
-26.798980830689768

>  <r_i_glide_emodel_strain>  (1) 
0

>  <r_i_glide_energy>  (1) 
-21.061434151905676

>  <r_i_glide_erotb>  (1) 
0

>  <r_i_glide_esite>  (1) 
0

>  <r_i_glide_evdw>  (1) 
-21.962873521970877

>  <r_i_glide_gscore>  (1) 
-4.5382796994177346

>  <r_i_glide_gscore_strain>  (1) 
0

>  <r_i_glide_hbond>  (1) 
0

>  <r_i_glide_ligand_efficiency>  (1) 
-0.34909843841674881

>  <r_i_glide_ligand_efficiency_ln>  (1) 
-1.273027817329015

>  <r_i_glide_ligand_efficiency_sa>  (1) 
-0.82084726767845029

>  <r_i_glide_lipo>  (1) 
-0.33860879886950579

>  <r_i_glide_metal>  (1) 
-0

>  <r_i_glide_rewards>  (1) 
-3.2367431299594656

>  <r_lp_Energy>  (1) 
16.296527999999999

>  <r_lp_tautomer_probability>  (1) 
1

>  <s_epik_Chemistry_Notes>  (1) 
This compound has an ester and may undergo hydrolysis at high or low pH.

>  <s_epik_cmdline>  (1) 
J2VwaWtfcHl0aG9uJywgJy1waHQnLCAnMS4wJywgJy1waCcsICc3LjQnLCAnLXRuJywgJzgnLCAnLW1hJywgJzUwMCcsICctaW1hZScsICc8aW5maWxlLm1hZT4nLCAnLW9tYWUnLCAnPG91dGZpbGUubWFlPic=

>  <s_epik_input>  (1) 
TzFbQ0gyXVtDSDJdT0MoPU8pYyhjMTIpW2NIXVtjSF1bY0hdYzJbQ0gzXQ==

>  <s_glide_docking_method>  (1) 
confgen

>  <s_i_glide_gridfile>  (1) 
gpcr_drd2_6luq_protein_autoprepared_prepared

>  <s_lp_Force_Field>  (1) 
S-OPLS

>  <s_lp_Variant>  (1) 
Pocket2Mol_89_num_sample_100-1

>  <s_m_source_file>  (1) 
generated__ligand_Pocket2Mol_2026-05-06_prepared.sdf

>  <GenAI_Model>  (1) 
Pocket2Mol

>  <Protein>  (1) 
generic_title2

$$$$
Pocket2Mol_21_num_sample_100
     RDKit          3D

  0  0  0  0  0  0  0  0  0  0999 V3000
M  V30 BEGIN CTAB
M  V30 COUNTS 12 12 0 0 1
M  V30 BEGIN ATOM
M  V30 1 N 12.255925 7.744406 -2.536695 0
M  V30 2 C 11.834875 6.771584 -3.368953 0
M  V30 3 C 11.414206 7.036231 -4.674133 0
M  V30 4 C 11.434840 8.367944 -5.091544 0
M  V30 5 N 11.021658 8.710551 -6.370962 0
M  V30 6 N 11.848481 9.365059 -4.288466 0
M  V30 7 C 12.234839 8.979511 -3.059716 0
M  V30 8 H 11.838537 5.766715 -2.981624 0
M  V30 9 H 11.079851 6.243729 -5.327652 0
M  V30 10 H 10.671622 8.017395 -7.016808 0
M  V30 11 H 11.009794 9.670618 -6.678166 0
M  V30 12 H 12.564552 9.769173 -2.403963 0
M  V30 END ATOM
M  V30 BEGIN BOND
M  V30 1 1 2 1
M  V30 2 2 3 2
M  V30 3 1 4 3
M  V30 4 1 5 4
M  V30 5 2 6 4
M  V30 6 2 7 1
M  V30 7 1 7 6
M  V30 8 1 8 2
M  V30 9 1 9 3
M  V30 10 1 10 5
M  V30 11 1 11 5
M  V30 12 1 12 7
M  V30 END BOND
M  V30 END CTAB
M  END
>  <i_epik_Tot_Q>  (1) 
0

>  <i_epik_Tot_abs_Q>  (1) 
0

>  <i_i_glide_confnum>  (1) 
1

>  <i_i_glide_lignum>  (1) 
25

>  <i_i_glide_posenum>  (1) 
331

>  <i_i_glide_rotatable_bonds>  (1) 
0

>  <i_lp_mmshare_version>  (1) 
72125

>  <i_m_source_file_index>  (1) 
22

>  <i_f3d_flags>  (1) 
0

>  <num_sample>  (1) 
100

>  <b_lp_Chiralities_Consistent>  (1) 
1

>  <r_epik_Charging_Adjusted_Penalty>  (1) 
0.011441366301234922

>  <r_epik_Ionization_Penalty>  (1) 
0.011523414685131987

>  <r_epik_Ionization_Penalty_Charging>  (1) 
0

>  <r_epik_Ionization_Penalty_Neutral>  (1) 
0.011523414685131987

>  <r_epik_State_Penalty>  (1) 
0.011441366301234922

>  <r_glide_ring_energy>  (1) 
0

>  <r_i_docking_score>  (1) 
-4.5358546699648903

>  <r_i_glide_ecoul>  (1) 
-1.5965351535645484

>  <r_i_glide_eff_state_penalty>  (1) 
0.011441366301234922

>  <r_i_glide_einternal>  (1) 
0

>  <r_i_glide_emodel>  (1) 
-24.411876512994088

>  <r_i_glide_emodel_strain>  (1) 
0

>  <r_i_glide_energy>  (1) 
-18.992649839501091

>  <r_i_glide_erotb>  (1) 
0

>  <r_i_glide_esite>  (1) 
0

>  <r_i_glide_evdw>  (1) 
-17.396114685936542

>  <r_i_glide_gscore>  (1) 
-4.5472960362661254

>  <r_i_glide_gscore_strain>  (1) 
0

>  <r_i_glide_hbond>  (1) 
0

>  <r_i_glide_ligand_efficiency>  (1) 
-0.64797923856641293

>  <r_i_glide_ligand_efficiency_ln>  (1) 
-1.5397124964654594

>  <r_i_glide_ligand_efficiency_sa>  (1) 
-1.2395396912428003

>  <r_i_glide_lipo>  (1) 
-0.73801002893461576

>  <r_i_glide_metal>  (1) 
-0

>  <r_i_glide_rewards>  (1) 
-2.7000000000000002

>  <r_lp_Energy>  (1) 
9.3523319999999988

>  <r_lp_tautomer_probability>  (1) 
0.9999995832001739

>  <s_epik_cmdline>  (1) 
J2VwaWtfcHl0aG9uJywgJy1waHQnLCAnMS4wJywgJy1waCcsICc3LjQnLCAnLXRuJywgJzgnLCAnLW1hJywgJzUwMCcsICctaW1hZScsICc8aW5maWxlLm1hZT4nLCAnLW9tYWUnLCAnPG91dGZpbGUubWFlPic=

>  <s_epik_input>  (1) 
bjFbY0hdbltjSF1bY0hdYzFbTkgyXQ==

>  <s_glide_docking_method>  (1) 
confgen

>  <s_i_glide_gridfile>  (1) 
gpcr_drd2_6luq_protein_autoprepared_prepared

>  <s_lp_Force_Field>  (1) 
S-OPLS

>  <s_lp_Variant>  (1) 
Pocket2Mol_21_num_sample_100-1

>  <s_m_source_file>  (1) 
generated__ligand_Pocket2Mol_2026-05-06_prepared.sdf

>  <GenAI_Model>  (1) 
Pocket2Mol

>  <Protein>  (1) 
generic_title2

$$$$
Pocket2Mol_20_num_sample_100
     RDKit          3D

  0  0  0  0  0  0  0  0  0  0999 V3000
M  V30 BEGIN CTAB
M  V30 COUNTS 12 12 0 0 1
M  V30 BEGIN ATOM
M  V30 1 N 12.201855 9.370356 -4.056931 0
M  V30 2 C 12.575775 8.452117 -3.133663 0
M  V30 3 C 12.217853 7.091431 -3.207500 0
M  V30 4 C 11.439712 8.939112 -5.091700 0
M  V30 5 O 12.622127 6.211911 -2.244340 0
M  V30 6 C 11.434822 6.656647 -4.290722 0
M  V30 7 C 11.034852 7.599322 -5.251283 0
M  V30 8 H 13.176761 8.815616 -2.312373 0
M  V30 9 H 11.146827 9.686632 -5.814006 0
M  V30 10 H 12.202459 5.363728 -2.298536 0
M  V30 11 H 11.140211 5.624149 -4.380004 0
M  V30 12 H 10.427308 7.303647 -6.095006 0
M  V30 END ATOM
M  V30 BEGIN BOND
M  V30 1 2 2 1
M  V30 2 1 3 2
M  V30 3 1 4 1
M  V30 4 1 5 3
M  V30 5 2 6 3
M  V30 6 2 7 4
M  V30 7 1 7 6
M  V30 8 1 8 2
M  V30 9 1 9 4
M  V30 10 1 10 5
M  V30 11 1 11 6
M  V30 12 1 12 7
M  V30 END BOND
M  V30 END CTAB
M  END
>  <i_epik_Tot_Q>  (1) 
0

>  <i_epik_Tot_abs_Q>  (1) 
0

>  <i_i_glide_confnum>  (1) 
1

>  <i_i_glide_lignum>  (1) 
24

>  <i_i_glide_posenum>  (1) 
157

>  <i_i_glide_rotatable_bonds>  (1) 
1

>  <i_lp_mmshare_version>  (1) 
72125

>  <i_m_source_file_index>  (1) 
21

>  <i_f3d_flags>  (1) 
0

>  <num_sample>  (1) 
100

>  <b_lp_Chiralities_Consistent>  (1) 
1

>  <r_epik_Charging_Adjusted_Penalty>  (1) 
0.49104251329211085

>  <r_epik_Ionization_Penalty>  (1) 
0.049438115990627488

>  <r_epik_Ionization_Penalty_Charging>  (1) 
0

>  <r_epik_Ionization_Penalty_Neutral>  (1) 
0.049438115990627488

>  <r_epik_State_Penalty>  (1) 
0.49104251329211085

>  <r_glide_ring_energy>  (1) 
0

>  <r_i_docking_score>  (1) 
-4.5300730695660496

>  <r_i_glide_ecoul>  (1) 
-2.6913718009609862

>  <r_i_glide_eff_state_penalty>  (1) 
0.49104251329211085

>  <r_i_glide_einternal>  (1) 
0.097421502680826305

>  <r_i_glide_emodel>  (1) 
-25.979891432971058

>  <r_i_glide_emodel_strain>  (1) 
0

>  <r_i_glide_energy>  (1) 
-18.555890987852568

>  <r_i_glide_erotb>  (1) 
0

>  <r_i_glide_esite>  (1) 
0

>  <r_i_glide_evdw>  (1) 
-15.864519186891583

>  <r_i_glide_gscore>  (1) 
-5.0211155828581608

>  <r_i_glide_gscore_strain>  (1) 
0

>  <r_i_glide_hbond>  (1) 
0

>  <r_i_glide_ligand_efficiency>  (1) 
-0.64715329565229285

>  <r_i_glide_ligand_efficiency_ln>  (1) 
-1.53774991101434

>  <r_i_glide_ligand_efficiency_sa>  (1) 
-1.2379597192871901

>  <r_i_glide_lipo>  (1) 
-1.474183853369434

>  <r_i_glide_metal>  (1) 
-0

>  <r_i_glide_rewards>  (1) 
-2.3500000000000001

>  <r_lp_Energy>  (1) 
10.560834

>  <r_lp_tautomer_probability>  (1) 
0.43658000000000002

>  <s_epik_cmdline>  (1) 
J2VwaWtfcHl0aG9uJywgJy1waHQnLCAnMS4wJywgJy1waCcsICc3LjQnLCAnLXRuJywgJzgnLCAnLW1hJywgJzUwMCcsICctaW1hZScsICc8aW5maWxlLm1hZT4nLCAnLW9tYWUnLCAnPG91dGZpbGUubWFlPic=

>  <s_epik_input>  (1) 
W2NIXTFbY0hdW2NIXW5bY0hdYzFbT0hd

>  <s_glide_docking_method>  (1) 
confgen

>  <s_i_glide_gridfile>  (1) 
gpcr_drd2_6luq_protein_autoprepared_prepared

>  <s_lp_Force_Field>  (1) 
S-OPLS

>  <s_lp_Variant>  (1) 
Pocket2Mol_20_num_sample_100-2

>  <s_m_source_file>  (1) 
generated__ligand_Pocket2Mol_2026-05-06_prepared.sdf

>  <GenAI_Model>  (1) 
Pocket2Mol

>  <Protein>  (1) 
generic_title2

$$$$
Pocket2Mol_74_num_sample_100
     RDKit          3D

  0  0  0  0  0  0  0  0  0  0999 V3000
M  V30 BEGIN CTAB
M  V30 COUNTS 20 21 0 0 1
M  V30 BEGIN ATOM
M  V30 1 C 10.310242 8.549672 -6.923380 0
M  V30 2 O 11.522506 8.356687 -7.638641 0
M  V30 3 C 9.834613 7.214787 -6.376980 0
M  V30 4 O 10.288299 6.169242 -7.205811 0
M  V30 5 C 11.475956 8.191719 -8.979178 0
M  V30 6 C 9.890335 6.220947 -8.517029 0
M  V30 7 C 8.942925 5.289875 -8.982471 0
M  V30 8 O 12.188311 8.823894 -9.755942 0
M  V30 9 C 10.451740 7.173985 -9.424093 0
M  V30 10 C 10.057368 7.154607 -10.781563 0
M  V30 11 C 9.109301 6.217075 -11.231810 0
M  V30 12 C 8.551594 5.289450 -10.334186 0
M  V30 13 H 9.546498 8.971101 -7.579571 0
M  V30 14 H 10.459575 9.264296 -6.114056 0
M  V30 15 H 8.747190 7.194514 -6.291656 0
M  V30 16 H 10.245464 7.049081 -5.380891 0
M  V30 17 H 8.518612 4.569301 -8.300114 0
M  V30 18 H 10.479698 7.863707 -11.477226 0
M  V30 19 H 8.808466 6.210686 -12.268733 0
M  V30 20 H 7.823951 4.572357 -10.683629 0
M  V30 END ATOM
M  V30 BEGIN BOND
M  V30 1 1 2 1
M  V30 2 1 3 1
M  V30 3 1 4 3
M  V30 4 1 5 2
M  V30 5 1 6 4
M  V30 6 2 7 6
M  V30 7 2 8 5
M  V30 8 1 9 5
M  V30 9 1 9 6
M  V30 10 2 10 9
M  V30 11 1 11 10
M  V30 12 1 12 7
M  V30 13 2 12 11
M  V30 14 1 13 1
M  V30 15 1 14 1
M  V30 16 1 15 3
M  V30 17 1 16 3
M  V30 18 1 17 7
M  V30 19 1 18 10
M  V30 20 1 19 11
M  V30 21 1 20 12
M  V30 END BOND
M  V30 END CTAB
M  END
>  <i_epik_Tot_Q>  (1) 
0

>  <i_epik_Tot_abs_Q>  (1) 
0

>  <i_i_glide_confnum>  (1) 
3

>  <i_i_glide_lignum>  (1) 
81

>  <i_i_glide_posenum>  (1) 
399

>  <i_i_glide_rotatable_bonds>  (1) 
0

>  <i_lp_mmshare_version>  (1) 
72125

>  <i_m_source_file_index>  (1) 
75

>  <i_f3d_flags>  (1) 
0

>  <num_sample>  (1) 
100

>  <b_lp_Chiralities_Consistent>  (1) 
1

>  <r_epik_Charging_Adjusted_Penalty>  (1) 
0

>  <r_epik_Ionization_Penalty>  (1) 
6.5779134034160639e-16

>  <r_epik_Ionization_Penalty_Charging>  (1) 
0

>  <r_epik_Ionization_Penalty_Neutral>  (1) 
6.5779134034160639e-16

>  <r_epik_State_Penalty>  (1) 
-0

>  <r_glide_ring_energy>  (1) 
0.44146003504328241

>  <r_i_docking_score>  (1) 
-4.5281886931448732

>  <r_i_glide_ecoul>  (1) 
0.89611196000876836

>  <r_i_glide_eff_state_penalty>  (1) 
-0

>  <r_i_glide_einternal>  (1) 
0

>  <r_i_glide_emodel>  (1) 
-29.374415113044822

>  <r_i_glide_emodel_strain>  (1) 
0

>  <r_i_glide_energy>  (1) 
-22.60617913293579

>  <r_i_glide_erotb>  (1) 
0

>  <r_i_glide_esite>  (1) 
0

>  <r_i_glide_evdw>  (1) 
-23.502291092944557

>  <r_i_glide_gscore>  (1) 
-4.5281886931448732

>  <r_i_glide_gscore_strain>  (1) 
0

>  <r_i_glide_hbond>  (1) 
0

>  <r_i_glide_ligand_efficiency>  (1) 
-0.37734905776207278

>  <r_i_glide_ligand_efficiency_ln>  (1) 
-1.2993715896006395

>  <r_i_glide_ligand_efficiency_sa>  (1) 
-0.86391368166864924

>  <r_i_glide_lipo>  (1) 
-0.23774565023539443

>  <r_i_glide_metal>  (1) 
-0

>  <r_i_glide_rewards>  (1) 
-3.2497452822635666

>  <r_lp_Energy>  (1) 
17.344456999999998

>  <r_lp_tautomer_probability>  (1) 
1

>  <s_epik_Chemistry_Notes>  (1) 
This compound has an ester and may undergo hydrolysis at high or low pH.

>  <s_epik_cmdline>  (1) 
J2VwaWtfcHl0aG9uJywgJy1waHQnLCAnMS4wJywgJy1waCcsICc3LjQnLCAnLXRuJywgJzgnLCAnLW1hJywgJzUwMCcsICctaW1hZScsICc8aW5maWxlLm1hZT4nLCAnLW9tYWUnLCAnPG91dGZpbGUubWFlPic=

>  <s_epik_input>  (1) 
TzFbQ0gyXVtDSDJdT0MoPU8pYyhjMTIpW2NIXVtjSF1bY0hdW2NIXTI=

>  <s_glide_docking_method>  (1) 
confgen

>  <s_i_glide_gridfile>  (1) 
gpcr_drd2_6luq_protein_autoprepared_prepared

>  <s_lp_Force_Field>  (1) 
S-OPLS

>  <s_lp_Variant>  (1) 
Pocket2Mol_74_num_sample_100-1

>  <s_m_source_file>  (1) 
generated__ligand_Pocket2Mol_2026-05-06_prepared.sdf

>  <GenAI_Model>  (1) 
Pocket2Mol

>  <Protein>  (1) 
generic_title2

$$$$
Pocket2Mol_66_num_sample_100
     RDKit          3D

  0  0  0  0  0  0  0  0  0  0999 V3000
M  V30 BEGIN CTAB
M  V30 COUNTS 8 8 0 0 1
M  V30 BEGIN ATOM
M  V30 1 N 12.025346 8.670090 -4.009856 0
M  V30 2 C 12.027524 7.299052 -3.552431 0
M  V30 3 C 12.234510 7.226970 -2.291667 0
M  V30 4 C 12.366064 8.477481 -1.898331 0
M  V30 5 C 12.234884 9.292627 -2.921706 0
M  V30 6 H 11.872507 6.483136 -4.244314 0
M  V30 7 H 12.298894 6.334632 -1.686271 0
M  V30 8 H 12.702596 8.764569 -0.914066 0
M  V30 END ATOM
M  V30 BEGIN BOND
M  V30 1 1 2 1
M  V30 2 2 3 2
M  V30 3 1 4 3
M  V30 4 2 5 1
M  V30 5 2 5 4
M  V30 6 1 6 2
M  V30 7 1 7 3
M  V30 8 1 8 4
M  V30 END BOND
M  V30 END CTAB
M  END
>  <i_epik_Tot_Q>  (1) 
0

>  <i_epik_Tot_abs_Q>  (1) 
0

>  <i_i_glide_confnum>  (1) 
1

>  <i_i_glide_lignum>  (1) 
73

>  <i_i_glide_posenum>  (1) 
213

>  <i_i_glide_rotatable_bonds>  (1) 
0

>  <i_lp_mmshare_version>  (1) 
72125

>  <i_m_source_file_index>  (1) 
67

>  <i_f3d_flags>  (1) 
0

>  <num_sample>  (1) 
100

>  <b_lp_Chiralities_Consistent>  (1) 
1

>  <r_epik_Charging_Adjusted_Penalty>  (1) 
0

>  <r_epik_Ionization_Penalty>  (1) 
0

>  <r_epik_Ionization_Penalty_Charging>  (1) 
0

>  <r_epik_Ionization_Penalty_Neutral>  (1) 
0

>  <r_epik_State_Penalty>  (1) 
-0

>  <r_glide_ring_energy>  (1) 
0

>  <r_i_docking_score>  (1) 
-4.5168870380795525

>  <r_i_glide_ecoul>  (1) 
-0.95454365991902823

>  <r_i_glide_eff_state_penalty>  (1) 
-0

>  <r_i_glide_einternal>  (1) 
0

>  <r_i_glide_emodel>  (1) 
-17.851595854624456

>  <r_i_glide_emodel_strain>  (1) 
0

>  <r_i_glide_energy>  (1) 
-13.763244456074155

>  <r_i_glide_erotb>  (1) 
0

>  <r_i_glide_esite>  (1) 
0

>  <r_i_glide_evdw>  (1) 
-12.808700796155126

>  <r_i_glide_gscore>  (1) 
-4.5168870380795525

>  <r_i_glide_gscore_strain>  (1) 
0

>  <r_i_glide_hbond>  (1) 
0

>  <r_i_glide_ligand_efficiency>  (1) 
-0.90337740761591045

>  <r_i_glide_ligand_efficiency_ln>  (1) 
-1.7309808432522433

>  <r_i_glide_ligand_efficiency_sa>  (1) 
-1.5447536377943569

>  <r_i_glide_lipo>  (1) 
-1.2818029270895839

>  <r_i_glide_metal>  (1) 
-0

>  <r_i_glide_rewards>  (1) 
-2.4514675221943576

>  <r_lp_Energy>  (1) 
4.860805

>  <r_lp_tautomer_probability>  (1) 
1

>  <s_epik_Chemistry_Notes>  (1) 
This compound has an imine and may undergo hydrolysis.

>  <s_epik_cmdline>  (1) 
J2VwaWtfcHl0aG9uJywgJy1waHQnLCAnMS4wJywgJy1waCcsICc3LjQnLCAnLXRuJywgJzgnLCAnLW1hJywgJzUwMCcsICctaW1hZScsICc8aW5maWxlLm1hZT4nLCAnLW9tYWUnLCAnPG91dGZpbGUubWFlPic=

>  <s_epik_input>  (1) 
TjE9Qz1bQ0hdW0NIXT1bQ0hdMQ==

>  <s_glide_docking_method>  (1) 
confgen

>  <s_i_glide_gridfile>  (1) 
gpcr_drd2_6luq_protein_autoprepared_prepared

>  <s_lp_Force_Field>  (1) 
S-OPLS

>  <s_lp_Variant>  (1) 
Pocket2Mol_66_num_sample_100-1

>  <s_m_source_file>  (1) 
generated__ligand_Pocket2Mol_2026-05-06_prepared.sdf

>  <GenAI_Model>  (1) 
Pocket2Mol

>  <Protein>  (1) 
generic_title2

$$$$
Pocket2Mol_30_num_sample_100
     RDKit          3D

  0  0  0  0  0  0  0  0  0  0999 V3000
M  V30 BEGIN CTAB
M  V30 COUNTS 14 14 0 0 1
M  V30 BEGIN ATOM
M  V30 1 N 12.234839 7.555515 -3.408820 0
M  V30 2 C 12.340263 8.859732 -3.737437 0
M  V30 3 C 11.748781 9.387337 -4.886009 0
M  V30 4 C 11.034798 8.504156 -5.694752 0
M  V30 5 O 10.409382 8.947074 -6.840266 0
M  V30 6 C 11.513615 6.810317 -4.266913 0
M  V30 7 N 10.911634 7.190033 -5.403617 0
M  V30 8 C 9.492987 8.079477 -7.503976 0
M  V30 9 H 12.906951 9.488362 -3.066641 0
M  V30 10 H 11.835171 10.433573 -5.136049 0
M  V30 11 H 11.411444 5.769318 -4.008885 0
M  V30 12 H 9.034839 8.610496 -8.338168 0
M  V30 13 H 9.992593 7.197350 -7.907449 0
M  V30 14 H 8.690254 7.762932 -6.835477 0
M  V30 END ATOM
M  V30 BEGIN BOND
M  V30 1 1 2 1
M  V30 2 2 3 2
M  V30 3 1 4 3
M  V30 4 1 5 4
M  V30 5 2 6 1
M  V30 6 2 7 4
M  V30 7 1 7 6
M  V30 8 1 8 5
M  V30 9 1 9 2
M  V30 10 1 10 3
M  V30 11 1 11 6
M  V30 12 1 12 8
M  V30 13 1 13 8
M  V30 14 1 14 8
M  V30 END BOND
M  V30 END CTAB
M  END
>  <i_epik_Tot_Q>  (1) 
0

>  <i_epik_Tot_abs_Q>  (1) 
0

>  <i_i_glide_confnum>  (1) 
1

>  <i_i_glide_lignum>  (1) 
34

>  <i_i_glide_posenum>  (1) 
248

>  <i_i_glide_rotatable_bonds>  (1) 
1

>  <i_lp_mmshare_version>  (1) 
72125

>  <i_m_source_file_index>  (1) 
31

>  <i_f3d_flags>  (1) 
0

>  <num_sample>  (1) 
100

>  <b_lp_Chiralities_Consistent>  (1) 
1

>  <r_epik_Charging_Adjusted_Penalty>  (1) 
0

>  <r_epik_Ionization_Penalty>  (1) 
8.6638422661064201e-06

>  <r_epik_Ionization_Penalty_Charging>  (1) 
0

>  <r_epik_Ionization_Penalty_Neutral>  (1) 
8.6638422661064201e-06

>  <r_epik_State_Penalty>  (1) 
-0

>  <r_glide_ring_energy>  (1) 
0

>  <r_i_docking_score>  (1) 
-4.5040389705427382

>  <r_i_glide_ecoul>  (1) 
-0.30165449702056479

>  <r_i_glide_eff_state_penalty>  (1) 
-0

>  <r_i_glide_einternal>  (1) 
0.10001701028090737

>  <r_i_glide_emodel>  (1) 
-24.184581168408467

>  <r_i_glide_emodel_strain>  (1) 
0

>  <r_i_glide_energy>  (1) 
-18.543485303694943

>  <r_i_glide_erotb>  (1) 
0

>  <r_i_glide_esite>  (1) 
0

>  <r_i_glide_evdw>  (1) 
-18.241830806674379

>  <r_i_glide_gscore>  (1) 
-4.5040389705427382

>  <r_i_glide_gscore_strain>  (1) 
0

>  <r_i_glide_hbond>  (1) 
0

>  <r_i_glide_ligand_efficiency>  (1) 
-0.56300487131784227

>  <r_i_glide_ligand_efficiency_ln>  (1) 
-1.4626155130991005

>  <r_i_glide_ligand_efficiency_sa>  (1) 
-1.1260097426356848

>  <r_i_glide_lipo>  (1) 
-0.93809319034342686

>  <r_i_glide_metal>  (1) 
-0

>  <r_i_glide_rewards>  (1) 
-2.6086060653125069

>  <r_lp_Energy>  (1) 
14.393509

>  <r_lp_tautomer_probability>  (1) 
1

>  <s_epik_cmdline>  (1) 
J2VwaWtfcHl0aG9uJywgJy1waHQnLCAnMS4wJywgJy1waCcsICc3LjQnLCAnLXRuJywgJzgnLCAnLW1hJywgJzUwMCcsICctaW1hZScsICc8aW5maWxlLm1hZT4nLCAnLW9tYWUnLCAnPG91dGZpbGUubWFlPic=

>  <s_epik_input>  (1) 
bjFbY0hdbltjSF1bY0hdYzFPW0NIM10=

>  <s_glide_docking_method>  (1) 
confgen

>  <s_i_glide_gridfile>  (1) 
gpcr_drd2_6luq_protein_autoprepared_prepared

>  <s_lp_Force_Field>  (1) 
S-OPLS

>  <s_lp_Variant>  (1) 
Pocket2Mol_30_num_sample_100-1

>  <s_m_source_file>  (1) 
generated__ligand_Pocket2Mol_2026-05-06_prepared.sdf

>  <GenAI_Model>  (1) 
Pocket2Mol

>  <Protein>  (1) 
generic_title2

$$$$
Pocket2Mol_25_num_sample_100
     RDKit          3D

  0  0  0  0  0  0  0  0  0  0999 V3000
M  V30 BEGIN CTAB
M  V30 COUNTS 15 15 0 0 1
M  V30 BEGIN ATOM
M  V30 1 N 11.535821 8.146837 -9.405396 0 CHG=1
M  V30 2 C 11.388213 8.267350 -8.048050 0
M  V30 3 C 10.047584 8.119498 -7.772196 0
M  V30 4 C 10.343414 7.932770 -9.960504 0
M  V30 5 C 9.292972 8.152805 -6.486761 0
M  V30 6 N 10.102147 7.767034 -11.260352 0
M  V30 7 N 9.435827 7.913947 -8.984083 0
M  V30 8 H 12.227277 8.445487 -7.390509 0
M  V30 9 H 9.971846 8.328164 -5.651574 0
M  V30 10 H 8.551490 8.952146 -6.502591 0
M  V30 11 H 8.781370 7.203969 -6.322349 0
M  V30 12 H 10.832421 7.791078 -11.958707 0
M  V30 13 H 9.173879 7.607193 -11.627129 0
M  V30 14 H 8.440737 7.769302 -9.118844 0
M  V30 15 H 12.412127 8.210197 -9.908741 0
M  V30 END ATOM
M  V30 BEGIN BOND
M  V30 1 1 2 1
M  V30 2 2 3 2
M  V30 3 2 4 1
M  V30 4 1 5 3
M  V30 5 1 6 4
M  V30 6 1 7 3
M  V30 7 1 7 4
M  V30 8 1 8 2
M  V30 9 1 9 5
M  V30 10 1 10 5
M  V30 11 1 11 5
M  V30 12 1 12 6
M  V30 13 1 13 6
M  V30 14 1 14 7
M  V30 15 1 15 1
M  V30 END BOND
M  V30 END CTAB
M  END
>  <i_epik_Tot_Q>  (1) 
1

>  <i_epik_Tot_abs_Q>  (1) 
1

>  <i_i_glide_confnum>  (1) 
1

>  <i_i_glide_lignum>  (1) 
29

>  <i_i_glide_posenum>  (1) 
200

>  <i_i_glide_rotatable_bonds>  (1) 
0

>  <i_lp_mmshare_version>  (1) 
72125

>  <i_m_source_file_index>  (1) 
26

>  <i_f3d_flags>  (1) 
0

>  <num_sample>  (1) 
100

>  <b_lp_Chiralities_Consistent>  (1) 
1

>  <r_epik_Charging_Adjusted_Penalty>  (1) 
0.028937443406262361

>  <r_epik_Ionization_Penalty>  (1) 
0.025358402846536118

>  <r_epik_Ionization_Penalty_Charging>  (1) 
0

>  <r_epik_Ionization_Penalty_Neutral>  (1) 
0.025358402846536118

>  <r_epik_State_Penalty>  (1) 
0.028937443406262361

>  <r_glide_ring_energy>  (1) 
0

>  <r_i_docking_score>  (1) 
-4.5001785509410244

>  <r_i_glide_ecoul>  (1) 
-8.1971061704031634

>  <r_i_glide_eff_state_penalty>  (1) 
0.028937443406262361

>  <r_i_glide_einternal>  (1) 
0

>  <r_i_glide_emodel>  (1) 
-26.106155846260847

>  <r_i_glide_emodel_strain>  (1) 
0

>  <r_i_glide_energy>  (1) 
-17.209697956080166

>  <r_i_glide_erotb>  (1) 
0

>  <r_i_glide_esite>  (1) 
-0.19335361999615158

>  <r_i_glide_evdw>  (1) 
-9.012591785677003

>  <r_i_glide_gscore>  (1) 
-4.5291159943472863

>  <r_i_glide_gscore_strain>  (1) 
0

>  <r_i_glide_hbond>  (1) 
-0.19338872828011927

>  <r_i_glide_ligand_efficiency>  (1) 
-0.64288265013443202

>  <r_i_glide_ligand_efficiency_ln>  (1) 
-1.5276021070717754

>  <r_i_glide_ligand_efficiency_sa>  (1) 
-1.2297902683055071

>  <r_i_glide_lipo>  (1) 
-0.21217813122669005

>  <r_i_glide_metal>  (1) 
-0

>  <r_i_glide_rewards>  (1) 
-2.25

>  <r_lp_Energy>  (1) 
-0.73901799999999995

>  <r_lp_tautomer_probability>  (1) 
0.99999998112300037

>  <s_epik_cmdline>  (1) 
J2VwaWtfcHl0aG9uJywgJy1waHQnLCAnMS4wJywgJy1waCcsICc3LjQnLCAnLXRuJywgJzgnLCAnLW1hJywgJzUwMCcsICctaW1hZScsICc8aW5maWxlLm1hZT4nLCAnLW9tYWUnLCAnPG91dGZpbGUubWFlPic=

>  <s_epik_input>  (1) 
W05IMl1jKFtuSF0xKW5bY0hdYzFbQ0gzXQ==

>  <s_glide_docking_method>  (1) 
confgen

>  <s_i_glide_gridfile>  (1) 
gpcr_drd2_6luq_protein_autoprepared_prepared

>  <s_lp_Force_Field>  (1) 
S-OPLS

>  <s_lp_Variant>  (1) 
Pocket2Mol_25_num_sample_100-1

>  <s_m_source_file>  (1) 
generated__ligand_Pocket2Mol_2026-05-06_prepared.sdf

>  <GenAI_Model>  (1) 
Pocket2Mol

>  <Protein>  (1) 
generic_title2

$$$$
Pocket2Mol_17_num_sample_100
     RDKit          3D

  0  0  0  0  0  0  0  0  0  0999 V3000
M  V30 BEGIN CTAB
M  V30 COUNTS 12 12 0 0 1
M  V30 BEGIN ATOM
M  V30 1 N 10.860899 6.569302 -5.252325 0
M  V30 2 C 11.531888 7.307166 -4.294419 0
M  V30 3 C 11.834842 8.615951 -4.439910 0
M  V30 4 C 11.434918 9.313010 -5.694867 0
M  V30 5 O 11.691580 10.498243 -5.891625 0
M  V30 6 C 10.467146 7.189389 -6.424563 0
M  V30 7 C 10.708209 8.488390 -6.697275 0
M  V30 8 H 11.794331 6.746169 -3.409858 0
M  V30 9 H 12.357660 9.167057 -3.672657 0
M  V30 10 H 10.644729 5.592019 -5.091489 0
M  V30 11 H 9.943882 6.540233 -7.112464 0
M  V30 12 H 10.387345 8.942880 -7.622995 0
M  V30 END ATOM
M  V30 BEGIN BOND
M  V30 1 1 2 1
M  V30 2 2 3 2
M  V30 3 1 4 3
M  V30 4 2 5 4
M  V30 5 1 6 1
M  V30 6 1 7 4
M  V30 7 2 7 6
M  V30 8 1 8 2
M  V30 9 1 9 3
M  V30 10 1 10 1
M  V30 11 1 11 6
M  V30 12 1 12 7
M  V30 END BOND
M  V30 END CTAB
M  END
>  <i_epik_Tot_Q>  (1) 
0

>  <i_epik_Tot_abs_Q>  (1) 
0

>  <i_i_glide_confnum>  (1) 
1

>  <i_i_glide_lignum>  (1) 
20

>  <i_i_glide_posenum>  (1) 
357

>  <i_i_glide_rotatable_bonds>  (1) 
0

>  <i_lp_mmshare_version>  (1) 
72125

>  <i_m_source_file_index>  (1) 
18

>  <i_f3d_flags>  (1) 
0

>  <num_sample>  (1) 
100

>  <b_lp_Chiralities_Consistent>  (1) 
1

>  <r_epik_Charging_Adjusted_Penalty>  (1) 
0.00011828912318149299

>  <r_epik_Ionization_Penalty>  (1) 
0.00011828912318149299

>  <r_epik_Ionization_Penalty_Charging>  (1) 
0.00011828912318149299

>  <r_epik_Ionization_Penalty_Neutral>  (1) 
0

>  <r_epik_State_Penalty>  (1) 
-0

>  <r_glide_ring_energy>  (1) 
0

>  <r_i_docking_score>  (1) 
-4.499173712926094

>  <r_i_glide_ecoul>  (1) 
-2.1570215361156597

>  <r_i_glide_eff_state_penalty>  (1) 
-0

>  <r_i_glide_einternal>  (1) 
0

>  <r_i_glide_emodel>  (1) 
-23.02566150339117

>  <r_i_glide_emodel_strain>  (1) 
1.9059420708344987e-11

>  <r_i_glide_energy>  (1) 
-17.367002129474869

>  <r_i_glide_erotb>  (1) 
0

>  <r_i_glide_esite>  (1) 
0

>  <r_i_glide_evdw>  (1) 
-15.209980593359209

>  <r_i_glide_gscore>  (1) 
-4.499173712926094

>  <r_i_glide_gscore_strain>  (1) 
0

>  <r_i_glide_hbond>  (1) 
0

>  <r_i_glide_ligand_efficiency>  (1) 
-0.64273910184658489

>  <r_i_glide_ligand_efficiency_ln>  (1) 
-1.5272610111238039

>  <r_i_glide_ligand_efficiency_sa>  (1) 
-1.2295156703094507

>  <r_i_glide_lipo>  (1) 
-1.1651214528407845

>  <r_i_glide_metal>  (1) 
-0

>  <r_i_glide_rewards>  (1) 
-2.25

>  <r_lp_Energy>  (1) 
8.1847359999999991

>  <r_lp_tautomer_probability>  (1) 
1

>  <s_epik_cmdline>  (1) 
J2VwaWtfcHl0aG9uJywgJy1waHQnLCAnMS4wJywgJy1waCcsICc3LjQnLCAnLXRuJywgJzgnLCAnLW1hJywgJzUwMCcsICctaW1hZScsICc8aW5maWxlLm1hZT4nLCAnLW9tYWUnLCAnPG91dGZpbGUubWFlPic=

>  <s_epik_input>  (1) 
W2NIXTFbY0hdbltjSF1bY0hdYzFbT0hd

>  <s_glide_docking_method>  (1) 
confgen

>  <s_i_glide_gridfile>  (1) 
gpcr_drd2_6luq_protein_autoprepared_prepared

>  <s_lp_Force_Field>  (1) 
S-OPLS

>  <s_lp_Variant>  (1) 
Pocket2Mol_17_num_sample_100-1

>  <s_m_source_file>  (1) 
generated__ligand_Pocket2Mol_2026-05-06_prepared.sdf

>  <GenAI_Model>  (1) 
Pocket2Mol

>  <Protein>  (1) 
generic_title2

$$$$
Pocket2Mol_79_num_sample_100
     RDKit          3D

  0  0  0  0  0  0  0  0  0  0999 V3000
M  V30 BEGIN CTAB
M  V30 COUNTS 24 25 0 0 1
M  V30 BEGIN ATOM
M  V30 1 C 8.119590 5.818501 -11.664424 0
M  V30 2 O 8.808792 7.034749 -11.895557 0
M  V30 3 C 8.709319 4.996023 -10.512425 0
M  V30 4 O 8.781231 5.769353 -9.333949 0
M  V30 5 C 10.197126 6.979211 -11.639151 0
M  V30 6 C 9.834879 6.640627 -9.105357 0
M  V30 7 C 10.194878 6.938461 -7.770752 0
M  V30 8 C 10.561140 7.249534 -10.179928 0
M  V30 9 C 9.421516 6.325547 -6.625067 0
M  V30 10 C 11.270252 7.805879 -7.501385 0
M  V30 11 C 11.992672 8.385099 -8.556696 0
M  V30 12 C 11.639115 8.113590 -9.888897 0
M  V30 13 H 7.073892 6.055370 -11.465272 0
M  V30 14 H 8.139204 5.225029 -12.578849 0
M  V30 15 H 8.032829 4.169410 -10.306892 0
M  V30 16 H 9.671863 4.540067 -10.746623 0
M  V30 17 H 10.634776 7.769290 -12.244465 0
M  V30 18 H 10.653966 6.061627 -12.011508 0
M  V30 19 H 8.988199 5.369311 -6.913910 0
M  V30 20 H 10.063089 6.169223 -5.757954 0
M  V30 21 H 8.610585 6.992762 -6.333746 0
M  V30 22 H 11.542309 8.025286 -6.479432 0
M  V30 23 H 12.820092 9.042937 -8.344418 0
M  V30 24 H 12.196637 8.569339 -10.691657 0
M  V30 END ATOM
M  V30 BEGIN BOND
M  V30 1 1 2 1
M  V30 2 1 3 1
M  V30 3 1 4 3
M  V30 4 1 5 2
M  V30 5 1 6 4
M  V30 6 2 7 6
M  V30 7 1 8 5
M  V30 8 1 8 6
M  V30 9 1 9 7
M  V30 10 1 10 7
M  V30 11 2 11 10
M  V30 12 2 12 8
M  V30 13 1 12 11
M  V30 14 1 13 1
M  V30 15 1 14 1
M  V30 16 1 15 3
M  V30 17 1 16 3
M  V30 18 1 17 5
M  V30 19 1 18 5
M  V30 20 1 19 9
M  V30 21 1 20 9
M  V30 22 1 21 9
M  V30 23 1 22 10
M  V30 24 1 23 11
M  V30 25 1 24 12
M  V30 END BOND
M  V30 END CTAB
M  END
>  <i_epik_Tot_Q>  (1) 
0

>  <i_epik_Tot_abs_Q>  (1) 
0

>  <i_i_glide_confnum>  (1) 
2

>  <i_i_glide_lignum>  (1) 
86

>  <i_i_glide_posenum>  (1) 
390

>  <i_i_glide_rotatable_bonds>  (1) 
0

>  <i_lp_mmshare_version>  (1) 
72125

>  <i_m_source_file_index>  (1) 
80

>  <i_f3d_flags>  (1) 
0

>  <num_sample>  (1) 
100

>  <b_lp_Chiralities_Consistent>  (1) 
1

>  <r_epik_Charging_Adjusted_Penalty>  (1) 
0

>  <r_epik_Ionization_Penalty>  (1) 
2.8363962595523293e-13

>  <r_epik_Ionization_Penalty_Charging>  (1) 
0

>  <r_epik_Ionization_Penalty_Neutral>  (1) 
2.8363962595523293e-13

>  <r_epik_State_Penalty>  (1) 
-0

>  <r_glide_ring_energy>  (1) 
1.7614129466602644

>  <r_i_docking_score>  (1) 
-4.4954795467536757

>  <r_i_glide_ecoul>  (1) 
0.98001827203198566

>  <r_i_glide_eff_state_penalty>  (1) 
-0

>  <r_i_glide_einternal>  (1) 
0

>  <r_i_glide_emodel>  (1) 
-23.551544425880937

>  <r_i_glide_emodel_strain>  (1) 
0.062790133575553853

>  <r_i_glide_energy>  (1) 
-17.948810621292949

>  <r_i_glide_erotb>  (1) 
0

>  <r_i_glide_esite>  (1) 
0

>  <r_i_glide_evdw>  (1) 
-18.928828893324933

>  <r_i_glide_gscore>  (1) 
-4.4954795467536757

>  <r_i_glide_gscore_strain>  (1) 
0

>  <r_i_glide_hbond>  (1) 
0

>  <r_i_glide_ligand_efficiency>  (1) 
-0.37462329556280632

>  <r_i_glide_ligand_efficiency_ln>  (1) 
-1.2899856433821986

>  <r_i_glide_ligand_efficiency_sa>  (1) 
-0.85767324404602163

>  <r_i_glide_lipo>  (1) 
-0.70654035456691566

>  <r_i_glide_metal>  (1) 
-0

>  <r_i_glide_rewards>  (1) 
-2.9895004883253113

>  <r_lp_Energy>  (1) 
16.059718999999998

>  <r_lp_tautomer_probability>  (1) 
1

>  <s_epik_cmdline>  (1) 
J2VwaWtfcHl0aG9uJywgJy1waHQnLCAnMS4wJywgJy1waCcsICc3LjQnLCAnLXRuJywgJzgnLCAnLW1hJywgJzUwMCcsICctaW1hZScsICc8aW5maWxlLm1hZT4nLCAnLW9tYWUnLCAnPG91dGZpbGUubWFlPic=

>  <s_epik_input>  (1) 
TzFbQ0gyXVtDSDJdT1tDSDJdYyhjMTIpW2NIXVtjSF1bY0hdYzJbQ0gzXQ==

>  <s_glide_docking_method>  (1) 
confgen

>  <s_i_glide_gridfile>  (1) 
gpcr_drd2_6luq_protein_autoprepared_prepared

>  <s_lp_Force_Field>  (1) 
S-OPLS

>  <s_lp_Variant>  (1) 
Pocket2Mol_79_num_sample_100-1

>  <s_m_source_file>  (1) 
generated__ligand_Pocket2Mol_2026-05-06_prepared.sdf

>  <GenAI_Model>  (1) 
Pocket2Mol

>  <Protein>  (1) 
generic_title2

$$$$
Pocket2Mol_15_num_sample_100
     RDKit          3D

  0  0  0  0  0  0  0  0  0  0999 V3000
M  V30 BEGIN CTAB
M  V30 COUNTS 17 17 0 0 1
M  V30 BEGIN ATOM
M  V30 1 C 11.616409 8.521485 -8.564400 0
M  V30 2 O 11.404008 8.918006 -7.211780 0
M  V30 3 C 10.367662 8.016578 -9.309347 0
M  V30 4 O 10.234839 6.614954 -9.125654 0
M  V30 5 C 10.474408 8.171811 -6.430119 0
M  V30 6 C 9.648096 6.233007 -7.891667 0
M  V30 7 C 10.487400 6.652707 -6.672528 0
M  V30 8 H 12.014001 9.392046 -9.085654 0
M  V30 9 H 12.404834 7.769301 -8.602258 0
M  V30 10 H 9.462160 8.566592 -9.046637 0
M  V30 11 H 10.518846 8.169329 -10.378071 0
M  V30 12 H 10.711265 8.372347 -5.385145 0
M  V30 13 H 9.470283 8.568960 -6.586909 0
M  V30 14 H 9.549661 5.147351 -7.901341 0
M  V30 15 H 8.634839 6.629829 -7.821289 0
M  V30 16 H 11.507343 6.274078 -6.746295 0
M  V30 17 H 10.051948 6.170506 -5.796540 0
M  V30 END ATOM
M  V30 BEGIN BOND
M  V30 1 1 2 1
M  V30 2 1 3 1
M  V30 3 1 4 3
M  V30 4 1 5 2
M  V30 5 1 6 4
M  V30 6 1 7 5
M  V30 7 1 7 6
M  V30 8 1 8 1
M  V30 9 1 9 1
M  V30 10 1 10 3
M  V30 11 1 11 3
M  V30 12 1 12 5
M  V30 13 1 13 5
M  V30 14 1 14 6
M  V30 15 1 15 6
M  V30 16 1 16 7
M  V30 17 1 17 7
M  V30 END BOND
M  V30 END CTAB
M  END
>  <i_epik_Tot_Q>  (1) 
0

>  <i_epik_Tot_abs_Q>  (1) 
0

>  <i_i_glide_confnum>  (1) 
13

>  <i_i_glide_lignum>  (1) 
18

>  <i_i_glide_posenum>  (1) 
269

>  <i_i_glide_rotatable_bonds>  (1) 
0

>  <i_lp_mmshare_version>  (1) 
72125

>  <i_m_source_file_index>  (1) 
16

>  <i_f3d_flags>  (1) 
0

>  <num_sample>  (1) 
100

>  <b_lp_Chiralities_Consistent>  (1) 
1

>  <r_epik_Charging_Adjusted_Penalty>  (1) 
0

>  <r_epik_Ionization_Penalty>  (1) 
3.933197540425548e-12

>  <r_epik_Ionization_Penalty_Charging>  (1) 
0

>  <r_epik_Ionization_Penalty_Neutral>  (1) 
3.933197540425548e-12

>  <r_epik_State_Penalty>  (1) 
-0

>  <r_glide_ring_energy>  (1) 
0.0013247502693584507

>  <r_i_docking_score>  (1) 
-4.494546268168504

>  <r_i_glide_ecoul>  (1) 
-0.61917939564895874

>  <r_i_glide_eff_state_penalty>  (1) 
-0

>  <r_i_glide_einternal>  (1) 
0

>  <r_i_glide_emodel>  (1) 
-21.814858227285043

>  <r_i_glide_emodel_strain>  (1) 
0

>  <r_i_glide_energy>  (1) 
-16.936775513439006

>  <r_i_glide_erotb>  (1) 
0

>  <r_i_glide_esite>  (1) 
0

>  <r_i_glide_evdw>  (1) 
-16.317596117790046

>  <r_i_glide_gscore>  (1) 
-4.494546268168504

>  <r_i_glide_gscore_strain>  (1) 
0

>  <r_i_glide_hbond>  (1) 
0

>  <r_i_glide_ligand_efficiency>  (1) 
-0.64207803830978627

>  <r_i_glide_ligand_efficiency_ln>  (1) 
-1.5256902080363188

>  <r_i_glide_ligand_efficiency_sa>  (1) 
-1.2282511012561148

>  <r_i_glide_lipo>  (1) 
-0.74412288626499135

>  <r_i_glide_metal>  (1) 
-0

>  <r_i_glide_rewards>  (1) 
-2.8416666666666668

>  <r_lp_Energy>  (1) 
9.641

>  <r_lp_tautomer_probability>  (1) 
1

>  <s_epik_cmdline>  (1) 
J2VwaWtfcHl0aG9uJywgJy1waHQnLCAnMS4wJywgJy1waCcsICc3LjQnLCAnLXRuJywgJzgnLCAnLW1hJywgJzUwMCcsICctaW1hZScsICc8aW5maWxlLm1hZT4nLCAnLW9tYWUnLCAnPG91dGZpbGUubWFlPic=

>  <s_epik_input>  (1) 
W0NIMl0xT1tDSDJdW0NIMl1bQ0gyXU9bQ0gyXTE=

>  <s_glide_docking_method>  (1) 
confgen

>  <s_i_glide_gridfile>  (1) 
gpcr_drd2_6luq_protein_autoprepared_prepared

>  <s_lp_Force_Field>  (1) 
S-OPLS

>  <s_lp_Variant>  (1) 
Pocket2Mol_15_num_sample_100-1

>  <s_m_source_file>  (1) 
generated__ligand_Pocket2Mol_2026-05-06_prepared.sdf

>  <GenAI_Model>  (1) 
Pocket2Mol

>  <Protein>  (1) 
generic_title2

$$$$
Pocket2Mol_77_num_sample_100
     RDKit          3D

  0  0  0  0  0  0  0  0  0  0999 V3000
M  V30 BEGIN CTAB
M  V30 COUNTS 11 11 0 0 1
M  V30 BEGIN ATOM
M  V30 1 C 12.234884 9.108184 -3.317324 0
M  V30 2 O 11.833556 8.082357 -4.305007 0
M  V30 3 C 12.518216 8.467203 -1.877513 0
M  V30 4 C 12.191446 7.109802 -2.315693 0
M  V30 5 C 11.846404 6.969300 -3.553899 0
M  V30 6 H 11.438288 9.849654 -3.243945 0
M  V30 7 H 13.120283 9.629925 -3.682918 0
M  V30 8 H 11.834850 8.823826 -1.105720 0
M  V30 9 H 13.555021 8.569317 -1.559460 0
M  V30 10 H 12.240848 6.284980 -1.618894 0
M  V30 11 H 11.567096 6.064739 -4.075847 0
M  V30 END ATOM
M  V30 BEGIN BOND
M  V30 1 1 2 1
M  V30 2 1 3 1
M  V30 3 1 4 3
M  V30 4 1 5 2
M  V30 5 2 5 4
M  V30 6 1 6 1
M  V30 7 1 7 1
M  V30 8 1 8 3
M  V30 9 1 9 3
M  V30 10 1 10 4
M  V30 11 1 11 5
M  V30 END BOND
M  V30 END CTAB
M  END
>  <i_epik_Tot_Q>  (1) 
0

>  <i_epik_Tot_abs_Q>  (1) 
0

>  <i_i_glide_confnum>  (1) 
1

>  <i_i_glide_lignum>  (1) 
84

>  <i_i_glide_posenum>  (1) 
37

>  <i_i_glide_rotatable_bonds>  (1) 
0

>  <i_lp_mmshare_version>  (1) 
72125

>  <i_m_source_file_index>  (1) 
78

>  <i_f3d_flags>  (1) 
0

>  <num_sample>  (1) 
100

>  <b_lp_Chiralities_Consistent>  (1) 
1

>  <r_epik_Charging_Adjusted_Penalty>  (1) 
0

>  <r_epik_Ionization_Penalty>  (1) 
0

>  <r_epik_Ionization_Penalty_Charging>  (1) 
0

>  <r_epik_Ionization_Penalty_Neutral>  (1) 
0

>  <r_epik_State_Penalty>  (1) 
-0

>  <r_glide_ring_energy>  (1) 
0

>  <r_i_docking_score>  (1) 
-4.4942478098487655

>  <r_i_glide_ecoul>  (1) 
-0.73477432699734124

>  <r_i_glide_eff_state_penalty>  (1) 
-0

>  <r_i_glide_einternal>  (1) 
0

>  <r_i_glide_emodel>  (1) 
-18.410731983199511

>  <r_i_glide_emodel_strain>  (1) 
0

>  <r_i_glide_energy>  (1) 
-14.518353988693363

>  <r_i_glide_erotb>  (1) 
0

>  <r_i_glide_esite>  (1) 
0

>  <r_i_glide_evdw>  (1) 
-13.783579661696022

>  <r_i_glide_gscore>  (1) 
-4.4942478098487655

>  <r_i_glide_gscore_strain>  (1) 
0

>  <r_i_glide_hbond>  (1) 
0

>  <r_i_glide_ligand_efficiency>  (1) 
-0.89884956196975307

>  <r_i_glide_ligand_efficiency_ln>  (1) 
-1.722304941011799

>  <r_i_glide_ligand_efficiency_sa>  (1) 
-1.5370111306491629

>  <r_i_glide_lipo>  (1) 
-1.2237776714396897

>  <r_i_glide_metal>  (1) 
-0

>  <r_i_glide_rewards>  (1) 
-2.4710750062746727

>  <r_lp_Energy>  (1) 
-3.1771669999999999

>  <r_lp_tautomer_probability>  (1) 
1

>  <s_epik_cmdline>  (1) 
J2VwaWtfcHl0aG9uJywgJy1waHQnLCAnMS4wJywgJy1waCcsICc3LjQnLCAnLXRuJywgJzgnLCAnLW1hJywgJzUwMCcsICctaW1hZScsICc8aW5maWxlLm1hZT4nLCAnLW9tYWUnLCAnPG91dGZpbGUubWFlPic=

>  <s_epik_input>  (1) 
W0NIMl0xT1tDSF09W0NIXVtDSDJdMQ==

>  <s_glide_docking_method>  (1) 
confgen

>  <s_i_glide_gridfile>  (1) 
gpcr_drd2_6luq_protein_autoprepared_prepared

>  <s_lp_Force_Field>  (1) 
S-OPLS

>  <s_lp_Variant>  (1) 
Pocket2Mol_77_num_sample_100-1

>  <s_m_source_file>  (1) 
generated__ligand_Pocket2Mol_2026-05-06_prepared.sdf

>  <GenAI_Model>  (1) 
Pocket2Mol

>  <Protein>  (1) 
generic_title2

$$$$
Pocket2Mol_21_num_sample_100
     RDKit          3D

  0  0  0  0  0  0  0  0  0  0999 V3000
M  V30 BEGIN CTAB
M  V30 COUNTS 12 12 0 0 1
M  V30 BEGIN ATOM
M  V30 1 N 12.403429 8.969299 -3.774704 0
M  V30 2 C 12.204330 7.662135 -3.508794 0
M  V30 3 C 11.434990 6.841175 -4.355476 0
M  V30 4 C 10.888091 7.463536 -5.491671 0
M  V30 5 N 10.111746 6.746034 -6.395214 0
M  V30 6 N 11.088603 8.768449 -5.754363 0
M  V30 7 C 11.834825 9.449076 -4.881874 0
M  V30 8 H 12.662006 7.267370 -2.613815 0
M  V30 9 H 11.278675 5.795139 -4.137949 0
M  V30 10 H 9.916182 5.764412 -6.267981 0
M  V30 11 H 9.719466 7.193520 -7.210677 0
M  V30 12 H 11.994728 10.495766 -5.094047 0
M  V30 END ATOM
M  V30 BEGIN BOND
M  V30 1 1 2 1
M  V30 2 2 3 2
M  V30 3 1 4 3
M  V30 4 1 5 4
M  V30 5 2 6 4
M  V30 6 2 7 1
M  V30 7 1 7 6
M  V30 8 1 8 2
M  V30 9 1 9 3
M  V30 10 1 10 5
M  V30 11 1 11 5
M  V30 12 1 12 7
M  V30 END BOND
M  V30 END CTAB
M  END
>  <i_epik_Tot_Q>  (1) 
0

>  <i_epik_Tot_abs_Q>  (1) 
0

>  <i_i_glide_confnum>  (1) 
1

>  <i_i_glide_lignum>  (1) 
25

>  <i_i_glide_posenum>  (1) 
333

>  <i_i_glide_rotatable_bonds>  (1) 
0

>  <i_lp_mmshare_version>  (1) 
72125

>  <i_m_source_file_index>  (1) 
22

>  <i_f3d_flags>  (1) 
0

>  <num_sample>  (1) 
100

>  <b_lp_Chiralities_Consistent>  (1) 
1

>  <r_epik_Charging_Adjusted_Penalty>  (1) 
0.011441366301234922

>  <r_epik_Ionization_Penalty>  (1) 
0.011523414685131987

>  <r_epik_Ionization_Penalty_Charging>  (1) 
0

>  <r_epik_Ionization_Penalty_Neutral>  (1) 
0.011523414685131987

>  <r_epik_State_Penalty>  (1) 
0.011441366301234922

>  <r_glide_ring_energy>  (1) 
0

>  <r_i_docking_score>  (1) 
-4.4940536362750363

>  <r_i_glide_ecoul>  (1) 
-0.86235995382540453

>  <r_i_glide_eff_state_penalty>  (1) 
0.011441366301234922

>  <r_i_glide_einternal>  (1) 
0

>  <r_i_glide_emodel>  (1) 
-22.81964954401672

>  <r_i_glide_emodel_strain>  (1) 
4.5334047626965912e-09

>  <r_i_glide_energy>  (1) 
-17.450239133982208

>  <r_i_glide_erotb>  (1) 
0

>  <r_i_glide_esite>  (1) 
0

>  <r_i_glide_evdw>  (1) 
-16.587879180156804

>  <r_i_glide_gscore>  (1) 
-4.5054950025762714

>  <r_i_glide_gscore_strain>  (1) 
0

>  <r_i_glide_hbond>  (1) 
0

>  <r_i_glide_ligand_efficiency>  (1) 
-0.64200766232500517

>  <r_i_glide_ligand_efficiency_ln>  (1) 
-1.5255229823340597

>  <r_i_glide_ligand_efficiency_sa>  (1) 
-1.2281164768403088

>  <r_i_glide_lipo>  (1) 
-0.84674705049462051

>  <r_i_glide_metal>  (1) 
-0

>  <r_i_glide_rewards>  (1) 
-2.7000000000000002

>  <r_lp_Energy>  (1) 
9.3523319999999988

>  <r_lp_tautomer_probability>  (1) 
0.9999995832001739

>  <s_epik_cmdline>  (1) 
J2VwaWtfcHl0aG9uJywgJy1waHQnLCAnMS4wJywgJy1waCcsICc3LjQnLCAnLXRuJywgJzgnLCAnLW1hJywgJzUwMCcsICctaW1hZScsICc8aW5maWxlLm1hZT4nLCAnLW9tYWUnLCAnPG91dGZpbGUubWFlPic=

>  <s_epik_input>  (1) 
bjFbY0hdbltjSF1bY0hdYzFbTkgyXQ==

>  <s_glide_docking_method>  (1) 
confgen

>  <s_i_glide_gridfile>  (1) 
gpcr_drd2_6luq_protein_autoprepared_prepared

>  <s_lp_Force_Field>  (1) 
S-OPLS

>  <s_lp_Variant>  (1) 
Pocket2Mol_21_num_sample_100-1

>  <s_m_source_file>  (1) 
generated__ligand_Pocket2Mol_2026-05-06_prepared.sdf

>  <GenAI_Model>  (1) 
Pocket2Mol

>  <Protein>  (1) 
generic_title2

$$$$
Pocket2Mol_10_num_sample_100
     RDKit          3D

  0  0  0  0  0  0  0  0  0  0999 V3000
M  V30 BEGIN CTAB
M  V30 COUNTS 12 12 0 0 1
M  V30 BEGIN ATOM
M  V30 1 O 10.974347 8.969301 -6.369276 0
M  V30 2 C 11.530433 9.617138 -5.305851 0
M  V30 3 C 10.924243 7.657964 -6.020727 0
M  V30 4 C 11.834839 8.746700 -4.291642 0
M  V30 5 C 12.452961 9.071743 -2.960749 0
M  V30 6 C 11.434839 7.466826 -4.771122 0
M  V30 7 H 11.637535 10.684745 -5.429402 0
M  V30 8 H 10.500572 7.000093 -6.765896 0
M  V30 9 H 12.570686 8.170471 -2.359288 0
M  V30 10 H 13.434838 9.517554 -3.104341 0
M  V30 11 H 11.830434 9.774700 -2.406579 0
M  V30 12 H 11.509847 6.518272 -4.259303 0
M  V30 END ATOM
M  V30 BEGIN BOND
M  V30 1 1 2 1
M  V30 2 1 3 1
M  V30 3 2 4 2
M  V30 4 1 5 4
M  V30 5 2 6 3
M  V30 6 1 6 4
M  V30 7 1 7 2
M  V30 8 1 8 3
M  V30 9 1 9 5
M  V30 10 1 10 5
M  V30 11 1 11 5
M  V30 12 1 12 6
M  V30 END BOND
M  V30 END CTAB
M  END
>  <i_epik_Tot_Q>  (1) 
0

>  <i_epik_Tot_abs_Q>  (1) 
0

>  <i_i_glide_confnum>  (1) 
1

>  <i_i_glide_lignum>  (1) 
13

>  <i_i_glide_posenum>  (1) 
213

>  <i_i_glide_rotatable_bonds>  (1) 
0

>  <i_lp_mmshare_version>  (1) 
72125

>  <i_m_source_file_index>  (1) 
11

>  <i_f3d_flags>  (1) 
0

>  <num_sample>  (1) 
100

>  <b_lp_Chiralities_Consistent>  (1) 
1

>  <r_epik_Charging_Adjusted_Penalty>  (1) 
0

>  <r_epik_Ionization_Penalty>  (1) 
0

>  <r_epik_Ionization_Penalty_Charging>  (1) 
0

>  <r_epik_Ionization_Penalty_Neutral>  (1) 
0

>  <r_epik_State_Penalty>  (1) 
-0

>  <r_glide_ring_energy>  (1) 
0

>  <r_i_docking_score>  (1) 
-4.4845511366500066

>  <r_i_glide_ecoul>  (1) 
-0.83454637995654934

>  <r_i_glide_eff_state_penalty>  (1) 
-0

>  <r_i_glide_einternal>  (1) 
0

>  <r_i_glide_emodel>  (1) 
-18.282623499390866

>  <r_i_glide_emodel_strain>  (1) 
0

>  <r_i_glide_energy>  (1) 
-14.130595216757737

>  <r_i_glide_erotb>  (1) 
0

>  <r_i_glide_esite>  (1) 
0

>  <r_i_glide_evdw>  (1) 
-13.296048836801187

>  <r_i_glide_gscore>  (1) 
-4.4845511366500066

>  <r_i_glide_gscore_strain>  (1) 
0

>  <r_i_glide_hbond>  (1) 
0

>  <r_i_glide_ligand_efficiency>  (1) 
-0.7474251894416678

>  <r_i_glide_ligand_efficiency_ln>  (1) 
-1.606352977783585

>  <r_i_glide_ligand_efficiency_sa>  (1) 
-1.3581617033359177

>  <r_i_glide_lipo>  (1) 
-1.3430209857386

>  <r_i_glide_metal>  (1) 
-0

>  <r_i_glide_rewards>  (1) 
-2.3515457520778651

>  <r_lp_Energy>  (1) 
-1.206345

>  <r_lp_tautomer_probability>  (1) 
1

>  <s_epik_cmdline>  (1) 
J2VwaWtfcHl0aG9uJywgJy1waHQnLCAnMS4wJywgJy1waCcsICc3LjQnLCAnLXRuJywgJzgnLCAnLW1hJywgJzUwMCcsICctaW1hZScsICc8aW5maWxlLm1hZT4nLCAnLW9tYWUnLCAnPG91dGZpbGUubWFlPic=

>  <s_epik_input>  (1) 
W2NIXTFbY0hdb1tjSF1jMVtDSDNd

>  <s_glide_docking_method>  (1) 
confgen

>  <s_i_glide_gridfile>  (1) 
gpcr_drd2_6luq_protein_autoprepared_prepared

>  <s_lp_Force_Field>  (1) 
S-OPLS

>  <s_lp_Variant>  (1) 
Pocket2Mol_10_num_sample_100-1

>  <s_m_source_file>  (1) 
generated__ligand_Pocket2Mol_2026-05-06_prepared.sdf

>  <GenAI_Model>  (1) 
Pocket2Mol

>  <Protein>  (1) 
generic_title2

$$$$
Pocket2Mol_10_num_sample_100
     RDKit          3D

  0  0  0  0  0  0  0  0  0  0999 V3000
M  V30 BEGIN CTAB
M  V30 COUNTS 12 12 0 0 1
M  V30 BEGIN ATOM
M  V30 1 O 11.834839 7.714062 -4.291667 0
M  V30 2 C 11.034834 7.194306 -5.268565 0
M  V30 3 C 11.889018 9.050134 -4.529049 0
M  V30 4 C 10.581744 8.170385 -6.117826 0
M  V30 5 C 9.675635 8.000081 -7.308196 0
M  V30 6 C 11.151209 9.380002 -5.626562 0
M  V30 7 H 10.887671 6.125814 -5.215072 0
M  V30 8 H 12.490661 9.616327 -3.833346 0
M  V30 9 H 9.479674 8.957876 -7.790694 0
M  V30 10 H 10.124249 7.328620 -8.040439 0
M  V30 11 H 8.720210 7.574867 -6.996942 0
M  V30 12 H 11.030946 10.375223 -6.029056 0
M  V30 END ATOM
M  V30 BEGIN BOND
M  V30 1 1 2 1
M  V30 2 1 3 1
M  V30 3 2 4 2
M  V30 4 1 5 4
M  V30 5 2 6 3
M  V30 6 1 6 4
M  V30 7 1 7 2
M  V30 8 1 8 3
M  V30 9 1 9 5
M  V30 10 1 10 5
M  V30 11 1 11 5
M  V30 12 1 12 6
M  V30 END BOND
M  V30 END CTAB
M  END
>  <i_epik_Tot_Q>  (1) 
0

>  <i_epik_Tot_abs_Q>  (1) 
0

>  <i_i_glide_confnum>  (1) 
1

>  <i_i_glide_lignum>  (1) 
13

>  <i_i_glide_posenum>  (1) 
135

>  <i_i_glide_rotatable_bonds>  (1) 
0

>  <i_lp_mmshare_version>  (1) 
72125

>  <i_m_source_file_index>  (1) 
11

>  <i_f3d_flags>  (1) 
0

>  <num_sample>  (1) 
100

>  <b_lp_Chiralities_Consistent>  (1) 
1

>  <r_epik_Charging_Adjusted_Penalty>  (1) 
0

>  <r_epik_Ionization_Penalty>  (1) 
0

>  <r_epik_Ionization_Penalty_Charging>  (1) 
0

>  <r_epik_Ionization_Penalty_Neutral>  (1) 
0

>  <r_epik_State_Penalty>  (1) 
-0

>  <r_glide_ring_energy>  (1) 
0

>  <r_i_docking_score>  (1) 
-4.4765640906401352

>  <r_i_glide_ecoul>  (1) 
-0.99640777881510645

>  <r_i_glide_eff_state_penalty>  (1) 
-0

>  <r_i_glide_einternal>  (1) 
0

>  <r_i_glide_emodel>  (1) 
-18.571477654856558

>  <r_i_glide_emodel_strain>  (1) 
0

>  <r_i_glide_energy>  (1) 
-14.426844190549092

>  <r_i_glide_erotb>  (1) 
0

>  <r_i_glide_esite>  (1) 
0

>  <r_i_glide_evdw>  (1) 
-13.430436411733986

>  <r_i_glide_gscore>  (1) 
-4.4765640906401352

>  <r_i_glide_gscore_strain>  (1) 
0

>  <r_i_glide_hbond>  (1) 
0

>  <r_i_glide_ligand_efficiency>  (1) 
-0.74609401510668916

>  <r_i_glide_ligand_efficiency_ln>  (1) 
-1.6034920414823355

>  <r_i_glide_ligand_efficiency_sa>  (1) 
-1.3557427990391786

>  <r_i_glide_lipo>  (1) 
-1.187098036891429

>  <r_i_glide_metal>  (1) 
-0

>  <r_i_glide_rewards>  (1) 
-2.4684830663397404

>  <r_lp_Energy>  (1) 
-1.206345

>  <r_lp_tautomer_probability>  (1) 
1

>  <s_epik_cmdline>  (1) 
J2VwaWtfcHl0aG9uJywgJy1waHQnLCAnMS4wJywgJy1waCcsICc3LjQnLCAnLXRuJywgJzgnLCAnLW1hJywgJzUwMCcsICctaW1hZScsICc8aW5maWxlLm1hZT4nLCAnLW9tYWUnLCAnPG91dGZpbGUubWFlPic=

>  <s_epik_input>  (1) 
W2NIXTFbY0hdb1tjSF1jMVtDSDNd

>  <s_glide_docking_method>  (1) 
confgen

>  <s_i_glide_gridfile>  (1) 
gpcr_drd2_6luq_protein_autoprepared_prepared

>  <s_lp_Force_Field>  (1) 
S-OPLS

>  <s_lp_Variant>  (1) 
Pocket2Mol_10_num_sample_100-1

>  <s_m_source_file>  (1) 
generated__ligand_Pocket2Mol_2026-05-06_prepared.sdf

>  <GenAI_Model>  (1) 
Pocket2Mol

>  <Protein>  (1) 
generic_title2

$$$$
Pocket2Mol_44_num_sample_100
     RDKit          3D

  0  0  0  0  0  0  0  0  0  0999 V3000
M  V30 BEGIN CTAB
M  V30 COUNTS 8 8 0 0 1
M  V30 BEGIN ATOM
M  V30 1 N 11.859239 9.266855 -4.296769 0
M  V30 2 C 11.434836 8.140786 -5.016515 0
M  V30 3 C 11.560337 6.969301 -4.291628 0
M  V30 4 C 12.286560 8.963728 -3.076883 0
M  V30 5 S 12.234839 7.264300 -2.697988 0
M  V30 6 H 11.055583 8.260699 -6.021238 0
M  V30 7 H 11.304536 5.963904 -4.596486 0
M  V30 8 H 12.634836 9.736856 -2.407371 0
M  V30 END ATOM
M  V30 BEGIN BOND
M  V30 1 1 2 1
M  V30 2 2 3 2
M  V30 3 2 4 1
M  V30 4 1 5 3
M  V30 5 1 5 4
M  V30 6 1 6 2
M  V30 7 1 7 3
M  V30 8 1 8 4
M  V30 END BOND
M  V30 END CTAB
M  END
>  <i_epik_Tot_Q>  (1) 
0

>  <i_epik_Tot_abs_Q>  (1) 
0

>  <i_i_glide_confnum>  (1) 
1

>  <i_i_glide_lignum>  (1) 
49

>  <i_i_glide_posenum>  (1) 
63

>  <i_i_glide_rotatable_bonds>  (1) 
0

>  <i_lp_mmshare_version>  (1) 
72125

>  <i_m_source_file_index>  (1) 
45

>  <i_f3d_flags>  (1) 
0

>  <num_sample>  (1) 
100

>  <b_lp_Chiralities_Consistent>  (1) 
1

>  <r_epik_Charging_Adjusted_Penalty>  (1) 
0

>  <r_epik_Ionization_Penalty>  (1) 
1.4882382677604034e-05

>  <r_epik_Ionization_Penalty_Charging>  (1) 
0

>  <r_epik_Ionization_Penalty_Neutral>  (1) 
1.4882382677604034e-05

>  <r_epik_State_Penalty>  (1) 
-0

>  <r_glide_ring_energy>  (1) 
0

>  <r_i_docking_score>  (1) 
-4.4761529687905846

>  <r_i_glide_ecoul>  (1) 
-1.9307577822267266

>  <r_i_glide_eff_state_penalty>  (1) 
-0

>  <r_i_glide_einternal>  (1) 
0

>  <r_i_glide_emodel>  (1) 
-21.088065870962179

>  <r_i_glide_emodel_strain>  (1) 
0

>  <r_i_glide_energy>  (1) 
-16.505482427295334

>  <r_i_glide_erotb>  (1) 
0

>  <r_i_glide_esite>  (1) 
0

>  <r_i_glide_evdw>  (1) 
-14.574724645068608

>  <r_i_glide_gscore>  (1) 
-4.4761529687905846

>  <r_i_glide_gscore_strain>  (1) 
0

>  <r_i_glide_hbond>  (1) 
0

>  <r_i_glide_ligand_efficiency>  (1) 
-0.89523059375811687

>  <r_i_glide_ligand_efficiency_ln>  (1) 
-1.7153705583342278

>  <r_i_glide_ligand_efficiency_sa>  (1) 
-1.5308227820554776

>  <r_i_glide_lipo>  (1) 
-1.0698587890291025

>  <r_i_glide_metal>  (1) 
-0

>  <r_i_glide_rewards>  (1) 
-2.3879442801740436

>  <r_lp_Energy>  (1) 
1.6688799999999999

>  <r_lp_tautomer_probability>  (1) 
1

>  <s_epik_cmdline>  (1) 
J2VwaWtfcHl0aG9uJywgJy1waHQnLCAnMS4wJywgJy1waCcsICc3LjQnLCAnLXRuJywgJzgnLCAnLW1hJywgJzUwMCcsICctaW1hZScsICc8aW5maWxlLm1hZT4nLCAnLW9tYWUnLCAnPG91dGZpbGUubWFlPic=

>  <s_epik_input>  (1) 
bjFbY0hdW2NIXXNbY0hdMQ==

>  <s_glide_docking_method>  (1) 
confgen

>  <s_i_glide_gridfile>  (1) 
gpcr_drd2_6luq_protein_autoprepared_prepared

>  <s_lp_Force_Field>  (1) 
S-OPLS

>  <s_lp_Variant>  (1) 
Pocket2Mol_44_num_sample_100-1

>  <s_m_source_file>  (1) 
generated__ligand_Pocket2Mol_2026-05-06_prepared.sdf

>  <GenAI_Model>  (1) 
Pocket2Mol

>  <Protein>  (1) 
generic_title2

$$$$
Pocket2Mol_28_num_sample_100
     RDKit          3D

  0  0  0  0  0  0  0  0  0  0999 V3000
M  V30 BEGIN CTAB
M  V30 COUNTS 13 13 0 0 1
M  V30 BEGIN ATOM
M  V30 1 N 11.018340 7.748498 -9.731123 0
M  V30 2 C 9.960942 7.723138 -8.842360 0
M  V30 3 C 10.067546 8.099990 -7.552237 0
M  V30 4 C 12.258212 8.169301 -9.286965 0
M  V30 5 O 9.034839 8.074697 -6.698993 0
M  V30 6 C 11.382731 8.569236 -7.037190 0
M  V30 7 O 11.538867 8.937435 -5.872055 0
M  V30 8 C 12.499434 8.569291 -8.020310 0
M  V30 9 H 9.034838 7.374783 -9.272236 0
M  V30 10 H 13.026724 8.154095 -10.045581 0
M  V30 11 H 8.271956 7.766174 -7.173495 0
M  V30 12 H 13.478217 8.895862 -7.704814 0
M  V30 13 H 10.885718 7.460413 -10.691402 0
M  V30 END ATOM
M  V30 BEGIN BOND
M  V30 1 1 2 1
M  V30 2 2 3 2
M  V30 3 1 4 1
M  V30 4 1 5 3
M  V30 5 1 6 3
M  V30 6 2 7 6
M  V30 7 2 8 4
M  V30 8 1 8 6
M  V30 9 1 9 2
M  V30 10 1 10 4
M  V30 11 1 11 5
M  V30 12 1 12 8
M  V30 13 1 13 1
M  V30 END BOND
M  V30 END CTAB
M  END
>  <i_epik_Tot_Q>  (1) 
0

>  <i_epik_Tot_abs_Q>  (1) 
0

>  <i_i_glide_confnum>  (1) 
1

>  <i_i_glide_lignum>  (1) 
32

>  <i_i_glide_posenum>  (1) 
338

>  <i_i_glide_rotatable_bonds>  (1) 
1

>  <i_lp_mmshare_version>  (1) 
72125

>  <i_m_source_file_index>  (1) 
29

>  <i_f3d_flags>  (1) 
0

>  <num_sample>  (1) 
100

>  <b_lp_Chiralities_Consistent>  (1) 
1

>  <r_epik_Charging_Adjusted_Penalty>  (1) 
0.000203171374695584

>  <r_epik_Ionization_Penalty>  (1) 
0.014901896624084464

>  <r_epik_Ionization_Penalty_Charging>  (1) 
0.000203171374695584

>  <r_epik_Ionization_Penalty_Neutral>  (1) 
0.01469872524938888

>  <r_epik_State_Penalty>  (1) 
-0

>  <r_glide_ring_energy>  (1) 
0

>  <r_i_docking_score>  (1) 
-4.4721150001048962

>  <r_i_glide_ecoul>  (1) 
-2.6329429327964378

>  <r_i_glide_eff_state_penalty>  (1) 
-0

>  <r_i_glide_einternal>  (1) 
0.0042924105978514593

>  <r_i_glide_emodel>  (1) 
-26.685868730823326

>  <r_i_glide_emodel_strain>  (1) 
0

>  <r_i_glide_energy>  (1) 
-19.996100937701438

>  <r_i_glide_erotb>  (1) 
0

>  <r_i_glide_esite>  (1) 
0

>  <r_i_glide_evdw>  (1) 
-17.363158004904999

>  <r_i_glide_gscore>  (1) 
-4.4721150001048962

>  <r_i_glide_gscore_strain>  (1) 
0

>  <r_i_glide_hbond>  (1) 
-0.13534645153546168

>  <r_i_glide_ligand_efficiency>  (1) 
-0.55901437501311202

>  <r_i_glide_ligand_efficiency_ln>  (1) 
-1.4522487079476614

>  <r_i_glide_ligand_efficiency_sa>  (1) 
-1.1180287500262243

>  <r_i_glide_lipo>  (1) 
-0.82366920840471902

>  <r_i_glide_metal>  (1) 
-0

>  <r_i_glide_rewards>  (1) 
-2.25

>  <r_lp_Energy>  (1) 
11.500328

>  <r_lp_tautomer_probability>  (1) 
1

>  <s_epik_cmdline>  (1) 
J2VwaWtfcHl0aG9uJywgJy1waHQnLCAnMS4wJywgJy1waCcsICc3LjQnLCAnLXRuJywgJzgnLCAnLW1hJywgJzUwMCcsICctaW1hZScsICc8aW5maWxlLm1hZT4nLCAnLW9tYWUnLCAnPG91dGZpbGUubWFlPic=

>  <s_epik_input>  (1) 
W09IXWMxW2NIXW5bY0hdW2NIXWMxW09IXQ==

>  <s_glide_docking_method>  (1) 
confgen

>  <s_i_glide_gridfile>  (1) 
gpcr_drd2_6luq_protein_autoprepared_prepared

>  <s_lp_Force_Field>  (1) 
S-OPLS

>  <s_lp_Variant>  (1) 
Pocket2Mol_28_num_sample_100-1

>  <s_m_source_file>  (1) 
generated__ligand_Pocket2Mol_2026-05-06_prepared.sdf

>  <GenAI_Model>  (1) 
Pocket2Mol

>  <Protein>  (1) 
generic_title2

$$$$
Pocket2Mol_15_num_sample_100
     RDKit          3D

  0  0  0  0  0  0  0  0  0  0999 V3000
M  V30 BEGIN CTAB
M  V30 COUNTS 17 17 0 0 1
M  V30 BEGIN ATOM
M  V30 1 C 11.829340 8.492057 -7.833472 0
M  V30 2 O 10.628929 8.242321 -8.547440 0
M  V30 3 C 11.516644 9.092760 -6.450203 0
M  V30 4 O 11.354663 8.140760 -5.405232 0
M  V30 5 C 9.932312 7.067225 -8.157827 0
M  V30 6 C 10.634889 6.945555 -5.694917 0
M  V30 7 C 9.471276 7.095522 -6.691667 0
M  V30 8 H 12.472349 7.613157 -7.774792 0
M  V30 9 H 12.372590 9.231219 -8.420546 0
M  V30 10 H 12.338325 9.742908 -6.148780 0
M  V30 11 H 10.634927 9.731092 -6.500225 0
M  V30 12 H 9.057611 6.975468 -8.802345 0
M  V30 13 H 10.547501 6.187562 -8.353294 0
M  V30 14 H 10.250253 6.569302 -4.746383 0
M  V30 15 H 11.333794 6.186455 -6.048922 0
M  V30 16 H 8.877979 7.986300 -6.481270 0
M  V30 17 H 8.793586 6.253229 -6.546947 0
M  V30 END ATOM
M  V30 BEGIN BOND
M  V30 1 1 2 1
M  V30 2 1 3 1
M  V30 3 1 4 3
M  V30 4 1 5 2
M  V30 5 1 6 4
M  V30 6 1 7 5
M  V30 7 1 7 6
M  V30 8 1 8 1
M  V30 9 1 9 1
M  V30 10 1 10 3
M  V30 11 1 11 3
M  V30 12 1 12 5
M  V30 13 1 13 5
M  V30 14 1 14 6
M  V30 15 1 15 6
M  V30 16 1 16 7
M  V30 17 1 17 7
M  V30 END BOND
M  V30 END CTAB
M  END
>  <i_epik_Tot_Q>  (1) 
0

>  <i_epik_Tot_abs_Q>  (1) 
0

>  <i_i_glide_confnum>  (1) 
4

>  <i_i_glide_lignum>  (1) 
18

>  <i_i_glide_posenum>  (1) 
368

>  <i_i_glide_rotatable_bonds>  (1) 
0

>  <i_lp_mmshare_version>  (1) 
72125

>  <i_m_source_file_index>  (1) 
16

>  <i_f3d_flags>  (1) 
0

>  <num_sample>  (1) 
100

>  <b_lp_Chiralities_Consistent>  (1) 
1

>  <r_epik_Charging_Adjusted_Penalty>  (1) 
0

>  <r_epik_Ionization_Penalty>  (1) 
3.933197540425548e-12

>  <r_epik_Ionization_Penalty_Charging>  (1) 
0

>  <r_epik_Ionization_Penalty_Neutral>  (1) 
3.933197540425548e-12

>  <r_epik_State_Penalty>  (1) 
-0

>  <r_glide_ring_energy>  (1) 
0.00034554738616163878

>  <r_i_docking_score>  (1) 
-4.469505039989925

>  <r_i_glide_ecoul>  (1) 
-1.0154201587373959

>  <r_i_glide_eff_state_penalty>  (1) 
-0

>  <r_i_glide_einternal>  (1) 
0

>  <r_i_glide_emodel>  (1) 
-21.838791909365327

>  <r_i_glide_emodel_strain>  (1) 
0

>  <r_i_glide_energy>  (1) 
-16.987887285369322

>  <r_i_glide_erotb>  (1) 
0

>  <r_i_glide_esite>  (1) 
0

>  <r_i_glide_evdw>  (1) 
-15.972467126631924

>  <r_i_glide_gscore>  (1) 
-4.469505039989925

>  <r_i_glide_gscore_strain>  (1) 
0

>  <r_i_glide_hbond>  (1) 
0

>  <r_i_glide_ligand_efficiency>  (1) 
-0.63850071999856073

>  <r_i_glide_ligand_efficiency_ln>  (1) 
-1.5171898713282868

>  <r_i_glide_ligand_efficiency_sa>  (1) 
-1.2214079375078688

>  <r_i_glide_lipo>  (1) 
-0.79234183872454489

>  <r_i_glide_metal>  (1) 
-0

>  <r_i_glide_rewards>  (1) 
-2.7262268211231744

>  <r_lp_Energy>  (1) 
9.641

>  <r_lp_tautomer_probability>  (1) 
1

>  <s_epik_cmdline>  (1) 
J2VwaWtfcHl0aG9uJywgJy1waHQnLCAnMS4wJywgJy1waCcsICc3LjQnLCAnLXRuJywgJzgnLCAnLW1hJywgJzUwMCcsICctaW1hZScsICc8aW5maWxlLm1hZT4nLCAnLW9tYWUnLCAnPG91dGZpbGUubWFlPic=

>  <s_epik_input>  (1) 
W0NIMl0xT1tDSDJdW0NIMl1bQ0gyXU9bQ0gyXTE=

>  <s_glide_docking_method>  (1) 
confgen

>  <s_i_glide_gridfile>  (1) 
gpcr_drd2_6luq_protein_autoprepared_prepared

>  <s_lp_Force_Field>  (1) 
S-OPLS

>  <s_lp_Variant>  (1) 
Pocket2Mol_15_num_sample_100-1

>  <s_m_source_file>  (1) 
generated__ligand_Pocket2Mol_2026-05-06_prepared.sdf

>  <GenAI_Model>  (1) 
Pocket2Mol

>  <Protein>  (1) 
generic_title2

$$$$
Pocket2Mol_18_num_sample_100
     RDKit          3D

  0  0  0  0  0  0  0  0  0  0999 V3000
M  V30 BEGIN CTAB
M  V30 COUNTS 15 15 0 0 1
M  V30 BEGIN ATOM
M  V30 1 C 11.539179 8.569302 -8.669603 0
M  V30 2 O 11.920175 8.647248 -7.349140 0
M  V30 3 C 10.898384 8.460574 -6.379754 0
M  V30 4 C 10.726247 6.969309 -6.065185 0
M  V30 5 O 10.634856 6.169301 -7.232441 0
M  V30 6 C 9.834839 6.710897 -8.270534 0
M  V30 7 C 10.591160 7.719007 -9.126383 0
M  V30 8 H 12.072055 9.275227 -9.290539 0
M  V30 9 H 9.960952 8.921325 -6.698508 0
M  V30 10 H 11.188095 8.987591 -5.470561 0
M  V30 11 H 9.834764 6.820691 -5.456560 0
M  V30 12 H 11.569615 6.604984 -5.478528 0
M  V30 13 H 8.897791 7.126341 -7.896486 0
M  V30 14 H 9.562941 5.880290 -8.921938 0
M  V30 15 H 10.337657 7.732025 -10.176183 0
M  V30 END ATOM
M  V30 BEGIN BOND
M  V30 1 1 2 1
M  V30 2 1 3 2
M  V30 3 1 4 3
M  V30 4 1 5 4
M  V30 5 1 6 5
M  V30 6 2 7 1
M  V30 7 1 7 6
M  V30 8 1 8 1
M  V30 9 1 9 3
M  V30 10 1 10 3
M  V30 11 1 11 4
M  V30 12 1 12 4
M  V30 13 1 13 6
M  V30 14 1 14 6
M  V30 15 1 15 7
M  V30 END BOND
M  V30 END CTAB
M  END
>  <i_epik_Tot_Q>  (1) 
0

>  <i_epik_Tot_abs_Q>  (1) 
0

>  <i_i_glide_confnum>  (1) 
4

>  <i_i_glide_lignum>  (1) 
21

>  <i_i_glide_posenum>  (1) 
369

>  <i_i_glide_rotatable_bonds>  (1) 
0

>  <i_lp_mmshare_version>  (1) 
72125

>  <i_m_source_file_index>  (1) 
19

>  <i_f3d_flags>  (1) 
0

>  <num_sample>  (1) 
100

>  <b_lp_Chiralities_Consistent>  (1) 
1

>  <r_epik_Charging_Adjusted_Penalty>  (1) 
0

>  <r_epik_Ionization_Penalty>  (1) 
5.6701613537443791e-14

>  <r_epik_Ionization_Penalty_Charging>  (1) 
0

>  <r_epik_Ionization_Penalty_Neutral>  (1) 
5.6701613537443791e-14

>  <r_epik_State_Penalty>  (1) 
-0

>  <r_glide_ring_energy>  (1) 
0.98544188256928789

>  <r_i_docking_score>  (1) 
-4.4658904130602233

>  <r_i_glide_ecoul>  (1) 
-0.63714366721416327

>  <r_i_glide_eff_state_penalty>  (1) 
-0

>  <r_i_glide_einternal>  (1) 
0

>  <r_i_glide_emodel>  (1) 
-21.163922702875439

>  <r_i_glide_emodel_strain>  (1) 
0

>  <r_i_glide_energy>  (1) 
-16.507182754266903

>  <r_i_glide_erotb>  (1) 
0

>  <r_i_glide_esite>  (1) 
0

>  <r_i_glide_evdw>  (1) 
-15.87003908705274

>  <r_i_glide_gscore>  (1) 
-4.4658904130602233

>  <r_i_glide_gscore_strain>  (1) 
0

>  <r_i_glide_hbond>  (1) 
0

>  <r_i_glide_ligand_efficiency>  (1) 
-0.63798434472288901

>  <r_i_glide_ligand_efficiency_ln>  (1) 
-1.5159628729655359

>  <r_i_glide_ligand_efficiency_sa>  (1) 
-1.2204201471410239

>  <r_i_glide_lipo>  (1) 
-0.831016548013225

>  <r_i_glide_metal>  (1) 
-0

>  <r_i_glide_rewards>  (1) 
-2.745800360612237

>  <r_lp_Energy>  (1) 
7.3473319999999998

>  <r_lp_tautomer_probability>  (1) 
1

>  <s_epik_cmdline>  (1) 
J2VwaWtfcHl0aG9uJywgJy1waHQnLCAnMS4wJywgJy1waCcsICc3LjQnLCAnLXRuJywgJzgnLCAnLW1hJywgJzUwMCcsICctaW1hZScsICc8aW5maWxlLm1hZT4nLCAnLW9tYWUnLCAnPG91dGZpbGUubWFlPic=

>  <s_epik_input>  (1) 
W0NIXTE9W0NIXVtDSDJdT1tDSDJdW0NIMl1PMQ==

>  <s_glide_docking_method>  (1) 
confgen

>  <s_i_glide_gridfile>  (1) 
gpcr_drd2_6luq_protein_autoprepared_prepared

>  <s_lp_Force_Field>  (1) 
S-OPLS

>  <s_lp_Variant>  (1) 
Pocket2Mol_18_num_sample_100-1

>  <s_m_source_file>  (1) 
generated__ligand_Pocket2Mol_2026-05-06_prepared.sdf

>  <GenAI_Model>  (1) 
Pocket2Mol

>  <Protein>  (1) 
generic_title2

$$$$
Pocket2Mol_8_num_sample_100
     RDKit          3D

  0  0  0  0  0  0  0  0  0  0999 V3000
M  V30 BEGIN CTAB
M  V30 COUNTS 13 13 0 0 1
M  V30 BEGIN ATOM
M  V30 1 N 11.319222 7.812231 -8.609044 0
M  V30 2 C 11.834839 8.576408 -7.603346 0
M  V30 3 C 11.037692 8.773798 -6.595056 0
M  V30 4 C 10.140532 7.576503 -8.105059 0
M  V30 5 C 11.377222 9.584093 -5.360938 0
M  V30 6 C 9.711887 8.144944 -6.697008 0
M  V30 7 H 12.840224 8.962261 -7.695533 0
M  V30 8 H 9.387743 6.977310 -8.624975 0
M  V30 9 H 10.638111 10.372354 -5.211137 0
M  V30 10 H 11.380429 8.944058 -4.478495 0
M  V30 11 H 12.360290 10.047251 -5.452733 0
M  V30 12 H 8.885262 8.851889 -6.770752 0
M  V30 13 H 9.537328 7.357299 -5.963619 0
M  V30 END ATOM
M  V30 BEGIN BOND
M  V30 1 1 2 1
M  V30 2 2 3 2
M  V30 3 2 4 1
M  V30 4 1 5 3
M  V30 5 1 6 3
M  V30 6 1 6 4
M  V30 7 1 7 2
M  V30 8 1 8 4
M  V30 9 1 9 5
M  V30 10 1 10 5
M  V30 11 1 11 5
M  V30 12 1 12 6
M  V30 13 1 13 6
M  V30 END BOND
M  V30 END CTAB
M  END
>  <i_epik_Tot_Q>  (1) 
0

>  <i_epik_Tot_abs_Q>  (1) 
0

>  <i_i_glide_confnum>  (1) 
1

>  <i_i_glide_lignum>  (1) 
9

>  <i_i_glide_posenum>  (1) 
214

>  <i_i_glide_rotatable_bonds>  (1) 
0

>  <i_lp_mmshare_version>  (1) 
72125

>  <i_m_source_file_index>  (1) 
9

>  <i_f3d_flags>  (1) 
0

>  <num_sample>  (1) 
100

>  <b_lp_Chiralities_Consistent>  (1) 
1

>  <r_epik_Charging_Adjusted_Penalty>  (1) 
0

>  <r_epik_Ionization_Penalty>  (1) 
0

>  <r_epik_Ionization_Penalty_Charging>  (1) 
0

>  <r_epik_Ionization_Penalty_Neutral>  (1) 
0

>  <r_epik_State_Penalty>  (1) 
-0

>  <r_glide_ring_energy>  (1) 
0

>  <r_i_docking_score>  (1) 
-4.45736171373877

>  <r_i_glide_ecoul>  (1) 
-0.72435159007906691

>  <r_i_glide_eff_state_penalty>  (1) 
-0

>  <r_i_glide_einternal>  (1) 
0

>  <r_i_glide_emodel>  (1) 
-21.819173191621942

>  <r_i_glide_emodel_strain>  (1) 
0

>  <r_i_glide_energy>  (1) 
-16.915735725167142

>  <r_i_glide_erotb>  (1) 
0

>  <r_i_glide_esite>  (1) 
-0.05599638933001444

>  <r_i_glide_evdw>  (1) 
-16.191384135088075

>  <r_i_glide_gscore>  (1) 
-4.45736171373877

>  <r_i_glide_gscore_strain>  (1) 
0

>  <r_i_glide_hbond>  (1) 
0

>  <r_i_glide_ligand_efficiency>  (1) 
-0.74289361895646167

>  <r_i_glide_ligand_efficiency_ln>  (1) 
-1.5966138067658344

>  <r_i_glide_ligand_efficiency_sa>  (1) 
-1.3499272932893795

>  <r_i_glide_lipo>  (1) 
-0.86647671247582447

>  <r_i_glide_metal>  (1) 
-0

>  <r_i_glide_rewards>  (1) 
-2.6166666666666667

>  <r_lp_Energy>  (1) 
-3.9959819999999997

>  <r_lp_tautomer_probability>  (1) 
1

>  <s_epik_Chemistry_Notes>  (1) 
This compound has an imine and may undergo hydrolysis.

>  <s_epik_cmdline>  (1) 
J2VwaWtfcHl0aG9uJywgJy1waHQnLCAnMS4wJywgJy1waCcsICc3LjQnLCAnLXRuJywgJzgnLCAnLW1hJywgJzUwMCcsICctaW1hZScsICc8aW5maWxlLm1hZT4nLCAnLW9tYWUnLCAnPG91dGZpbGUubWFlPic=

>  <s_epik_input>  (1) 
W0NIMl0xW0NIXT1OW0NIXT1DMVtDSDNd

>  <s_glide_docking_method>  (1) 
confgen

>  <s_i_glide_gridfile>  (1) 
gpcr_drd2_6luq_protein_autoprepared_prepared

>  <s_lp_Force_Field>  (1) 
S-OPLS

>  <s_lp_Variant>  (1) 
Pocket2Mol_8_num_sample_100-1

>  <s_m_source_file>  (1) 
generated__ligand_Pocket2Mol_2026-05-06_prepared.sdf

>  <GenAI_Model>  (1) 
Pocket2Mol

>  <Protein>  (1) 
generic_title2

$$$$
Pocket2Mol_15_num_sample_100
     RDKit          3D

  0  0  0  0  0  0  0  0  0  0999 V3000
M  V30 BEGIN CTAB
M  V30 COUNTS 17 17 0 0 1
M  V30 BEGIN ATOM
M  V30 1 C 11.568283 8.473110 -9.222522 0
M  V30 2 O 10.686114 7.369269 -9.380061 0
M  V30 3 C 12.378351 8.445915 -7.918648 0
M  V30 4 O 11.700267 9.152331 -6.891677 0
M  V30 5 C 9.888768 6.970864 -8.265656 0
M  V30 6 C 10.632383 8.435639 -6.291489 0
M  V30 7 C 9.501975 8.085436 -7.274923 0
M  V30 8 H 12.252704 8.444221 -10.070694 0
M  V30 9 H 11.019144 9.409320 -9.315182 0
M  V30 10 H 12.634869 7.430142 -7.616257 0
M  V30 11 H 13.320593 8.969301 -8.083060 0
M  V30 12 H 8.983825 6.520201 -8.673262 0
M  V30 13 H 10.404867 6.168938 -7.736244 0
M  V30 14 H 10.234845 9.066571 -5.496974 0
M  V30 15 H 11.012928 7.537118 -5.803424 0
M  V30 16 H 9.140003 8.969284 -7.800783 0
M  V30 17 H 8.652494 7.727164 -6.691442 0
M  V30 END ATOM
M  V30 BEGIN BOND
M  V30 1 1 2 1
M  V30 2 1 3 1
M  V30 3 1 4 3
M  V30 4 1 5 2
M  V30 5 1 6 4
M  V30 6 1 7 5
M  V30 7 1 7 6
M  V30 8 1 8 1
M  V30 9 1 9 1
M  V30 10 1 10 3
M  V30 11 1 11 3
M  V30 12 1 12 5
M  V30 13 1 13 5
M  V30 14 1 14 6
M  V30 15 1 15 6
M  V30 16 1 16 7
M  V30 17 1 17 7
M  V30 END BOND
M  V30 END CTAB
M  END
>  <i_epik_Tot_Q>  (1) 
0

>  <i_epik_Tot_abs_Q>  (1) 
0

>  <i_i_glide_confnum>  (1) 
13

>  <i_i_glide_lignum>  (1) 
18

>  <i_i_glide_posenum>  (1) 
241

>  <i_i_glide_rotatable_bonds>  (1) 
0

>  <i_lp_mmshare_version>  (1) 
72125

>  <i_m_source_file_index>  (1) 
16

>  <i_f3d_flags>  (1) 
0

>  <num_sample>  (1) 
100

>  <b_lp_Chiralities_Consistent>  (1) 
1

>  <r_epik_Charging_Adjusted_Penalty>  (1) 
0

>  <r_epik_Ionization_Penalty>  (1) 
3.933197540425548e-12

>  <r_epik_Ionization_Penalty_Charging>  (1) 
0

>  <r_epik_Ionization_Penalty_Neutral>  (1) 
3.933197540425548e-12

>  <r_epik_State_Penalty>  (1) 
-0

>  <r_glide_ring_energy>  (1) 
0.0013247502693584507

>  <r_i_docking_score>  (1) 
-4.4544351555172526

>  <r_i_glide_ecoul>  (1) 
-0.62706714062675972

>  <r_i_glide_eff_state_penalty>  (1) 
-0

>  <r_i_glide_einternal>  (1) 
0

>  <r_i_glide_emodel>  (1) 
-21.400631915968869

>  <r_i_glide_emodel_strain>  (1) 
1.3174172863728018e-10

>  <r_i_glide_energy>  (1) 
-16.566083146190795

>  <r_i_glide_erotb>  (1) 
0

>  <r_i_glide_esite>  (1) 
0

>  <r_i_glide_evdw>  (1) 
-15.939016005564037

>  <r_i_glide_gscore>  (1) 
-4.4544351555172526

>  <r_i_glide_gscore_strain>  (1) 
0

>  <r_i_glide_hbond>  (1) 
0

>  <r_i_glide_ligand_efficiency>  (1) 
-0.63634787935960746

>  <r_i_glide_ligand_efficiency_ln>  (1) 
-1.512074343796836

>  <r_i_glide_ligand_efficiency_sa>  (1) 
-1.2172897015180757

>  <r_i_glide_lipo>  (1) 
-0.83118381213802561

>  <r_i_glide_metal>  (1) 
-0

>  <r_i_glide_rewards>  (1) 
-2.7322404720070113

>  <r_lp_Energy>  (1) 
9.641

>  <r_lp_tautomer_probability>  (1) 
1

>  <s_epik_cmdline>  (1) 
J2VwaWtfcHl0aG9uJywgJy1waHQnLCAnMS4wJywgJy1waCcsICc3LjQnLCAnLXRuJywgJzgnLCAnLW1hJywgJzUwMCcsICctaW1hZScsICc8aW5maWxlLm1hZT4nLCAnLW9tYWUnLCAnPG91dGZpbGUubWFlPic=

>  <s_epik_input>  (1) 
W0NIMl0xT1tDSDJdW0NIMl1bQ0gyXU9bQ0gyXTE=

>  <s_glide_docking_method>  (1) 
confgen

>  <s_i_glide_gridfile>  (1) 
gpcr_drd2_6luq_protein_autoprepared_prepared

>  <s_lp_Force_Field>  (1) 
S-OPLS

>  <s_lp_Variant>  (1) 
Pocket2Mol_15_num_sample_100-1

>  <s_m_source_file>  (1) 
generated__ligand_Pocket2Mol_2026-05-06_prepared.sdf

>  <GenAI_Model>  (1) 
Pocket2Mol

>  <Protein>  (1) 
generic_title2

$$$$
Pocket2Mol_2_num_sample_100
     RDKit          3D

  0  0  0  0  0  0  0  0  0  0999 V3000
M  V30 BEGIN CTAB
M  V30 COUNTS 10 10 0 0 1
M  V30 BEGIN ATOM
M  V30 1 N 12.634022 9.033851 -2.692752 0
M  V30 2 C 12.151292 8.969176 -3.975180 0
M  V30 3 C 11.834828 7.658744 -4.215392 0
M  V30 4 C 12.141674 6.916078 -3.029136 0
M  V30 5 C 12.634839 7.797298 -2.106358 0
M  V30 6 H 12.950723 9.883754 -2.237955 0
M  V30 7 H 12.076623 9.851422 -4.593403 0
M  V30 8 H 11.427568 7.272552 -5.139823 0
M  V30 9 H 12.013011 5.853459 -2.873025 0
M  V30 10 H 12.984343 7.659501 -1.094878 0
M  V30 END ATOM
M  V30 BEGIN BOND
M  V30 1 1 2 1
M  V30 2 2 3 2
M  V30 3 1 4 3
M  V30 4 1 5 1
M  V30 5 2 5 4
M  V30 6 1 6 1
M  V30 7 1 7 2
M  V30 8 1 8 3
M  V30 9 1 9 4
M  V30 10 1 10 5
M  V30 END BOND
M  V30 END CTAB
M  END
>  <i_epik_Tot_Q>  (1) 
0

>  <i_epik_Tot_abs_Q>  (1) 
0

>  <i_i_glide_confnum>  (1) 
1

>  <i_i_glide_lignum>  (1) 
3

>  <i_i_glide_posenum>  (1) 
211

>  <i_i_glide_rotatable_bonds>  (1) 
0

>  <i_lp_mmshare_version>  (1) 
72125

>  <i_m_source_file_index>  (1) 
3

>  <i_f3d_flags>  (1) 
0

>  <num_sample>  (1) 
100

>  <b_lp_Chiralities_Consistent>  (1) 
1

>  <r_epik_Charging_Adjusted_Penalty>  (1) 
0

>  <r_epik_Ionization_Penalty>  (1) 
4.7655302421719939e-09

>  <r_epik_Ionization_Penalty_Charging>  (1) 
0

>  <r_epik_Ionization_Penalty_Neutral>  (1) 
4.7655302421719939e-09

>  <r_epik_State_Penalty>  (1) 
-0

>  <r_glide_ring_energy>  (1) 
0

>  <r_i_docking_score>  (1) 
-4.4520914450324369

>  <r_i_glide_ecoul>  (1) 
-2.2312997944297988

>  <r_i_glide_eff_state_penalty>  (1) 
-0

>  <r_i_glide_einternal>  (1) 
0

>  <r_i_glide_emodel>  (1) 
-18.251894797874115

>  <r_i_glide_emodel_strain>  (1) 
0

>  <r_i_glide_energy>  (1) 
-13.190820635265005

>  <r_i_glide_erotb>  (1) 
0

>  <r_i_glide_esite>  (1) 
0

>  <r_i_glide_evdw>  (1) 
-10.959520840835207

>  <r_i_glide_gscore>  (1) 
-4.4520914450324369

>  <r_i_glide_gscore_strain>  (1) 
0

>  <r_i_glide_hbond>  (1) 
-0.32000000000000001

>  <r_i_glide_ligand_efficiency>  (1) 
-0.89041828900648734

>  <r_i_glide_ligand_efficiency_ln>  (1) 
-1.706149597895394

>  <r_i_glide_ligand_efficiency_sa>  (1) 
-1.5225938566821131

>  <r_i_glide_lipo>  (1) 
-0.99942043382620749

>  <r_i_glide_metal>  (1) 
-0

>  <r_i_glide_rewards>  (1) 
-2.25

>  <r_lp_Energy>  (1) 
2.9132020000000001

>  <r_lp_tautomer_probability>  (1) 
1

>  <s_epik_cmdline>  (1) 
J2VwaWtfcHl0aG9uJywgJy1waHQnLCAnMS4wJywgJy1waCcsICc3LjQnLCAnLXRuJywgJzgnLCAnLW1hJywgJzUwMCcsICctaW1hZScsICc8aW5maWxlLm1hZT4nLCAnLW9tYWUnLCAnPG91dGZpbGUubWFlPic=

>  <s_epik_input>  (1) 
W25IXTFbY0hdW2NIXVtjSF1bY0hdMQ==

>  <s_glide_docking_method>  (1) 
confgen

>  <s_i_glide_gridfile>  (1) 
gpcr_drd2_6luq_protein_autoprepared_prepared

>  <s_lp_Force_Field>  (1) 
S-OPLS

>  <s_lp_Variant>  (1) 
Pocket2Mol_2_num_sample_100-1

>  <s_m_source_file>  (1) 
generated__ligand_Pocket2Mol_2026-05-06_prepared.sdf

>  <GenAI_Model>  (1) 
Pocket2Mol

>  <Protein>  (1) 
generic_title2

$$$$
Pocket2Mol_2_num_sample_100
     RDKit          3D

  0  0  0  0  0  0  0  0  0  0999 V3000
M  V30 BEGIN CTAB
M  V30 COUNTS 10 10 0 0 1
M  V30 BEGIN ATOM
M  V30 1 N 9.434867 7.944523 -8.792471 0
M  V30 2 C 9.849915 7.979479 -7.478363 0
M  V30 3 C 11.191947 8.242686 -7.493247 0
M  V30 4 C 11.598001 8.370133 -8.855155 0
M  V30 5 C 10.494807 8.181886 -9.641331 0
M  V30 6 H 8.485793 7.769301 -9.091820 0
M  V30 7 H 9.158422 7.815469 -6.664624 0
M  V30 8 H 11.818096 8.334412 -6.617776 0
M  V30 9 H 12.593673 8.577839 -9.219057 0
M  V30 10 H 10.365722 8.194398 -10.713903 0
M  V30 END ATOM
M  V30 BEGIN BOND
M  V30 1 1 2 1
M  V30 2 2 3 2
M  V30 3 1 4 3
M  V30 4 1 5 1
M  V30 5 2 5 4
M  V30 6 1 6 1
M  V30 7 1 7 2
M  V30 8 1 8 3
M  V30 9 1 9 4
M  V30 10 1 10 5
M  V30 END BOND
M  V30 END CTAB
M  END
>  <i_epik_Tot_Q>  (1) 
0

>  <i_epik_Tot_abs_Q>  (1) 
0

>  <i_i_glide_confnum>  (1) 
1

>  <i_i_glide_lignum>  (1) 
3

>  <i_i_glide_posenum>  (1) 
194

>  <i_i_glide_rotatable_bonds>  (1) 
0

>  <i_lp_mmshare_version>  (1) 
72125

>  <i_m_source_file_index>  (1) 
3

>  <i_f3d_flags>  (1) 
0

>  <num_sample>  (1) 
100

>  <b_lp_Chiralities_Consistent>  (1) 
1

>  <r_epik_Charging_Adjusted_Penalty>  (1) 
0

>  <r_epik_Ionization_Penalty>  (1) 
4.7655302421719939e-09

>  <r_epik_Ionization_Penalty_Charging>  (1) 
0

>  <r_epik_Ionization_Penalty_Neutral>  (1) 
4.7655302421719939e-09

>  <r_epik_State_Penalty>  (1) 
-0

>  <r_glide_ring_energy>  (1) 
0

>  <r_i_docking_score>  (1) 
-4.4373496942455706

>  <r_i_glide_ecoul>  (1) 
-7.1833787118106347

>  <r_i_glide_eff_state_penalty>  (1) 
-0

>  <r_i_glide_einternal>  (1) 
0

>  <r_i_glide_emodel>  (1) 
-19.801693692012332

>  <r_i_glide_emodel_strain>  (1) 
0

>  <r_i_glide_energy>  (1) 
-14.757377741794006

>  <r_i_glide_erotb>  (1) 
0

>  <r_i_glide_esite>  (1) 
-0.10000000000000001

>  <r_i_glide_evdw>  (1) 
-7.573999029983371

>  <r_i_glide_gscore>  (1) 
-4.4373496942455706

>  <r_i_glide_gscore_strain>  (1) 
0

>  <r_i_glide_hbond>  (1) 
-0.16

>  <r_i_glide_ligand_efficiency>  (1) 
-0.88746993884911407

>  <r_i_glide_ligand_efficiency_ln>  (1) 
-1.7005002008675432

>  <r_i_glide_ligand_efficiency_sa>  (1) 
-1.5175522488306243

>  <r_i_glide_lipo>  (1) 
-0.47114293597480705

>  <r_i_glide_metal>  (1) 
-0

>  <r_i_glide_rewards>  (1) 
-2.25

>  <r_lp_Energy>  (1) 
2.9132020000000001

>  <r_lp_tautomer_probability>  (1) 
1

>  <s_epik_cmdline>  (1) 
J2VwaWtfcHl0aG9uJywgJy1waHQnLCAnMS4wJywgJy1waCcsICc3LjQnLCAnLXRuJywgJzgnLCAnLW1hJywgJzUwMCcsICctaW1hZScsICc8aW5maWxlLm1hZT4nLCAnLW9tYWUnLCAnPG91dGZpbGUubWFlPic=

>  <s_epik_input>  (1) 
W25IXTFbY0hdW2NIXVtjSF1bY0hdMQ==

>  <s_glide_docking_method>  (1) 
confgen

>  <s_i_glide_gridfile>  (1) 
gpcr_drd2_6luq_protein_autoprepared_prepared

>  <s_lp_Force_Field>  (1) 
S-OPLS

>  <s_lp_Variant>  (1) 
Pocket2Mol_2_num_sample_100-1

>  <s_m_source_file>  (1) 
generated__ligand_Pocket2Mol_2026-05-06_prepared.sdf

>  <GenAI_Model>  (1) 
Pocket2Mol

>  <Protein>  (1) 
generic_title2

$$$$
Pocket2Mol_12_num_sample_100
     RDKit          3D

  0  0  0  0  0  0  0  0  0  0999 V3000
M  V30 BEGIN CTAB
M  V30 COUNTS 14 14 0 0 1
M  V30 BEGIN ATOM
M  V30 1 O 12.203512 6.914835 -2.617829 0
M  V30 2 C 11.834839 7.137687 -3.891283 0
M  V30 3 C 12.434499 8.294014 -2.133852 0
M  V30 4 C 11.834669 8.371332 -4.291661 0
M  V30 5 C 11.436026 8.835719 -5.677942 0
M  V30 6 C 12.234944 9.368091 -3.301398 0
M  V30 7 H 11.568967 6.250441 -4.448662 0
M  V30 8 H 13.434465 8.376427 -1.711211 0
M  V30 9 H 11.736901 8.497760 -1.320969 0
M  V30 10 H 10.591475 9.521979 -5.619295 0
M  V30 11 H 12.266333 9.355568 -6.156404 0
M  V30 12 H 11.148595 7.993046 -6.308016 0
M  V30 13 H 13.167300 9.849244 -3.592600 0
M  V30 14 H 11.448590 10.095435 -3.094363 0
M  V30 END ATOM
M  V30 BEGIN BOND
M  V30 1 1 2 1
M  V30 2 1 3 1
M  V30 3 2 4 2
M  V30 4 1 5 4
M  V30 5 1 6 3
M  V30 6 1 6 4
M  V30 7 1 7 2
M  V30 8 1 8 3
M  V30 9 1 9 3
M  V30 10 1 10 5
M  V30 11 1 11 5
M  V30 12 1 12 5
M  V30 13 1 13 6
M  V30 14 1 14 6
M  V30 END BOND
M  V30 END CTAB
M  END
>  <i_epik_Tot_Q>  (1) 
0

>  <i_epik_Tot_abs_Q>  (1) 
0

>  <i_i_glide_confnum>  (1) 
1

>  <i_i_glide_lignum>  (1) 
15

>  <i_i_glide_posenum>  (1) 
68

>  <i_i_glide_rotatable_bonds>  (1) 
0

>  <i_lp_mmshare_version>  (1) 
72125

>  <i_m_source_file_index>  (1) 
13

>  <i_f3d_flags>  (1) 
0

>  <num_sample>  (1) 
100

>  <b_lp_Chiralities_Consistent>  (1) 
1

>  <r_epik_Charging_Adjusted_Penalty>  (1) 
0

>  <r_epik_Ionization_Penalty>  (1) 
0

>  <r_epik_Ionization_Penalty_Charging>  (1) 
0

>  <r_epik_Ionization_Penalty_Neutral>  (1) 
0

>  <r_epik_State_Penalty>  (1) 
-0

>  <r_glide_ring_energy>  (1) 
0

>  <r_i_docking_score>  (1) 
-4.430596982490389

>  <r_i_glide_ecoul>  (1) 
-0.13065893679393842

>  <r_i_glide_eff_state_penalty>  (1) 
-0

>  <r_i_glide_einternal>  (1) 
0

>  <r_i_glide_emodel>  (1) 
-19.462750347053039

>  <r_i_glide_emodel_strain>  (1) 
0

>  <r_i_glide_energy>  (1) 
-15.138878555491374

>  <r_i_glide_erotb>  (1) 
0

>  <r_i_glide_esite>  (1) 
0

>  <r_i_glide_evdw>  (1) 
-15.008219618697435

>  <r_i_glide_gscore>  (1) 
-4.430596982490389

>  <r_i_glide_gscore_strain>  (1) 
0

>  <r_i_glide_hbond>  (1) 
0

>  <r_i_glide_ligand_efficiency>  (1) 
-0.7384328304150648

>  <r_i_glide_ligand_efficiency_ln>  (1) 
-1.587026759047937

>  <r_i_glide_ligand_efficiency_sa>  (1) 
-1.3418215025705376

>  <r_i_glide_lipo>  (1) 
-1.287640173053739

>  <r_i_glide_metal>  (1) 
-0

>  <r_i_glide_rewards>  (1) 
-2.3729469879826874

>  <r_lp_Energy>  (1) 
-7.9393969999999996

>  <r_lp_tautomer_probability>  (1) 
1

>  <s_epik_cmdline>  (1) 
J2VwaWtfcHl0aG9uJywgJy1waHQnLCAnMS4wJywgJy1waCcsICc3LjQnLCAnLXRuJywgJzgnLCAnLW1hJywgJzUwMCcsICctaW1hZScsICc8aW5maWxlLm1hZT4nLCAnLW9tYWUnLCAnPG91dGZpbGUubWFlPic=

>  <s_epik_input>  (1) 
W0NIMl0xW0NIMl1PW0NIXT1DMVtDSDNd

>  <s_glide_docking_method>  (1) 
confgen

>  <s_i_glide_gridfile>  (1) 
gpcr_drd2_6luq_protein_autoprepared_prepared

>  <s_lp_Force_Field>  (1) 
S-OPLS

>  <s_lp_Variant>  (1) 
Pocket2Mol_12_num_sample_100-1

>  <s_m_source_file>  (1) 
generated__ligand_Pocket2Mol_2026-05-06_prepared.sdf

>  <GenAI_Model>  (1) 
Pocket2Mol

>  <Protein>  (1) 
generic_title2

$$$$
Pocket2Mol_4_num_sample_100
     RDKit          3D

  0  0  0  0  0  0  0  0  0  0999 V3000
M  V30 BEGIN CTAB
M  V30 COUNTS 9 9 0 0 1
M  V30 BEGIN ATOM
M  V30 1 N 12.634839 8.969301 -2.513109 0
M  V30 2 C 12.199434 8.928637 -3.803098 0
M  V30 3 C 11.834839 7.641889 -4.059418 0
M  V30 4 C 12.102202 6.963916 -2.825624 0
M  V30 5 N 12.591621 7.781428 -1.891667 0
M  V30 6 H 12.976878 9.801994 -2.040378 0
M  V30 7 H 12.180802 9.808477 -4.428780 0
M  V30 8 H 11.438749 7.239967 -4.980694 0
M  V30 9 H 11.957494 5.920547 -2.583659 0
M  V30 END ATOM
M  V30 BEGIN BOND
M  V30 1 1 2 1
M  V30 2 2 3 2
M  V30 3 1 4 3
M  V30 4 1 5 1
M  V30 5 2 5 4
M  V30 6 1 6 1
M  V30 7 1 7 2
M  V30 8 1 8 3
M  V30 9 1 9 4
M  V30 END BOND
M  V30 END CTAB
M  END
>  <i_epik_Tot_Q>  (1) 
0

>  <i_epik_Tot_abs_Q>  (1) 
0

>  <i_i_glide_confnum>  (1) 
1

>  <i_i_glide_lignum>  (1) 
5

>  <i_i_glide_posenum>  (1) 
376

>  <i_i_glide_rotatable_bonds>  (1) 
0

>  <i_lp_mmshare_version>  (1) 
72125

>  <i_m_source_file_index>  (1) 
5

>  <i_f3d_flags>  (1) 
0

>  <num_sample>  (1) 
100

>  <b_lp_Chiralities_Consistent>  (1) 
1

>  <r_epik_Charging_Adjusted_Penalty>  (1) 
0

>  <r_epik_Ionization_Penalty>  (1) 
1.0045315435319e-05

>  <r_epik_Ionization_Penalty_Charging>  (1) 
0

>  <r_epik_Ionization_Penalty_Neutral>  (1) 
1.0045315435319e-05

>  <r_epik_State_Penalty>  (1) 
-0

>  <r_glide_ring_energy>  (1) 
0

>  <r_i_docking_score>  (1) 
-4.4146827521523342

>  <r_i_glide_ecoul>  (1) 
-3.284752397454719

>  <r_i_glide_eff_state_penalty>  (1) 
-0

>  <r_i_glide_einternal>  (1) 
0

>  <r_i_glide_emodel>  (1) 
-20.695003176141977

>  <r_i_glide_emodel_strain>  (1) 
0

>  <r_i_glide_energy>  (1) 
-15.42944362872618

>  <r_i_glide_erotb>  (1) 
0

>  <r_i_glide_esite>  (1) 
0

>  <r_i_glide_evdw>  (1) 
-12.144691231271461

>  <r_i_glide_gscore>  (1) 
-4.4146827521523342

>  <r_i_glide_gscore_strain>  (1) 
0

>  <r_i_glide_hbond>  (1) 
-0.32000000000000001

>  <r_i_glide_ligand_efficiency>  (1) 
-0.88293655043046682

>  <r_i_glide_ligand_efficiency_ln>  (1) 
-1.6918136780017463

>  <r_i_glide_ligand_efficiency_sa>  (1) 
-1.5098002636777947

>  <r_i_glide_lipo>  (1) 
-0.74473533097055344

>  <r_i_glide_metal>  (1) 
-0

>  <r_i_glide_rewards>  (1) 
-2.25

>  <r_lp_Energy>  (1) 
2.3130189999999997

>  <r_lp_tautomer_probability>  (1) 
1

>  <s_epik_cmdline>  (1) 
J2VwaWtfcHl0aG9uJywgJy1waHQnLCAnMS4wJywgJy1waCcsICc3LjQnLCAnLXRuJywgJzgnLCAnLW1hJywgJzUwMCcsICctaW1hZScsICc8aW5maWxlLm1hZT4nLCAnLW9tYWUnLCAnPG91dGZpbGUubWFlPic=

>  <s_epik_input>  (1) 
W25IXTFbY0hdW2NIXVtjSF1uMQ==

>  <s_glide_docking_method>  (1) 
confgen

>  <s_i_glide_gridfile>  (1) 
gpcr_drd2_6luq_protein_autoprepared_prepared

>  <s_lp_Force_Field>  (1) 
S-OPLS

>  <s_lp_Variant>  (1) 
Pocket2Mol_4_num_sample_100-1

>  <s_m_source_file>  (1) 
generated__ligand_Pocket2Mol_2026-05-06_prepared.sdf

>  <GenAI_Model>  (1) 
Pocket2Mol

>  <Protein>  (1) 
generic_title2

$$$$
Pocket2Mol_20_num_sample_100
     RDKit          3D

  0  0  0  0  0  0  0  0  0  0999 V3000
M  V30 BEGIN CTAB
M  V30 COUNTS 12 12 0 0 1
M  V30 BEGIN ATOM
M  V30 1 N 11.222149 8.670921 -6.466333 0
M  V30 2 C 12.142788 8.840216 -7.445213 0
M  V30 3 C 11.974925 8.365318 -8.762542 0
M  V30 4 C 10.088819 8.003796 -6.795371 0
M  V30 5 O 12.942396 8.569234 -9.708051 0
M  V30 6 C 10.795651 7.678430 -9.085627 0
M  V30 7 C 9.834774 7.492592 -8.081926 0
M  V30 8 H 13.042249 9.369301 -7.165923 0
M  V30 9 H 9.363096 7.876160 -6.005919 0
M  V30 10 H 13.565396 9.260100 -9.504768 0
M  V30 11 H 10.630698 7.301277 -10.084444 0
M  V30 12 H 8.911460 6.970035 -8.293253 0
M  V30 END ATOM
M  V30 BEGIN BOND
M  V30 1 2 2 1
M  V30 2 1 3 2
M  V30 3 1 4 1
M  V30 4 1 5 3
M  V30 5 2 6 3
M  V30 6 2 7 4
M  V30 7 1 7 6
M  V30 8 1 8 2
M  V30 9 1 9 4
M  V30 10 1 10 5
M  V30 11 1 11 6
M  V30 12 1 12 7
M  V30 END BOND
M  V30 END CTAB
M  END
>  <i_epik_Tot_Q>  (1) 
0

>  <i_epik_Tot_abs_Q>  (1) 
0

>  <i_i_glide_confnum>  (1) 
1

>  <i_i_glide_lignum>  (1) 
24

>  <i_i_glide_posenum>  (1) 
130

>  <i_i_glide_rotatable_bonds>  (1) 
1

>  <i_lp_mmshare_version>  (1) 
72125

>  <i_m_source_file_index>  (1) 
21

>  <i_f3d_flags>  (1) 
0

>  <num_sample>  (1) 
100

>  <b_lp_Chiralities_Consistent>  (1) 
1

>  <r_epik_Charging_Adjusted_Penalty>  (1) 
0.49104251329211085

>  <r_epik_Ionization_Penalty>  (1) 
0.049438115990627488

>  <r_epik_Ionization_Penalty_Charging>  (1) 
0

>  <r_epik_Ionization_Penalty_Neutral>  (1) 
0.049438115990627488

>  <r_epik_State_Penalty>  (1) 
0.49104251329211085

>  <r_glide_ring_energy>  (1) 
0

>  <r_i_docking_score>  (1) 
-4.4145917969311137

>  <r_i_glide_ecoul>  (1) 
-4.843159910420014

>  <r_i_glide_eff_state_penalty>  (1) 
0.49104251329211085

>  <r_i_glide_einternal>  (1) 
0.35497511270070081

>  <r_i_glide_emodel>  (1) 
-26.00314481033049

>  <r_i_glide_emodel_strain>  (1) 
0.013300052083581981

>  <r_i_glide_energy>  (1) 
-18.893087052669294

>  <r_i_glide_erotb>  (1) 
0

>  <r_i_glide_esite>  (1) 
0

>  <r_i_glide_evdw>  (1) 
-14.049927142249279

>  <r_i_glide_gscore>  (1) 
-4.9056343102232249

>  <r_i_glide_gscore_strain>  (1) 
0

>  <r_i_glide_hbond>  (1) 
-0.32000000000000001

>  <r_i_glide_ligand_efficiency>  (1) 
-0.63065597099015913

>  <r_i_glide_ligand_efficiency_ln>  (1) 
-1.4985493696563601

>  <r_i_glide_ligand_efficiency_sa>  (1) 
-1.2064014725086747

>  <r_i_glide_lipo>  (1) 
-0.64833063321442452

>  <r_i_glide_metal>  (1) 
-0

>  <r_i_glide_rewards>  (1) 
-2.5083333333333333

>  <r_lp_Energy>  (1) 
10.560834

>  <r_lp_tautomer_probability>  (1) 
0.43658000000000002

>  <s_epik_cmdline>  (1) 
J2VwaWtfcHl0aG9uJywgJy1waHQnLCAnMS4wJywgJy1waCcsICc3LjQnLCAnLXRuJywgJzgnLCAnLW1hJywgJzUwMCcsICctaW1hZScsICc8aW5maWxlLm1hZT4nLCAnLW9tYWUnLCAnPG91dGZpbGUubWFlPic=

>  <s_epik_input>  (1) 
W2NIXTFbY0hdW2NIXW5bY0hdYzFbT0hd

>  <s_glide_docking_method>  (1) 
confgen

>  <s_i_glide_gridfile>  (1) 
gpcr_drd2_6luq_protein_autoprepared_prepared

>  <s_lp_Force_Field>  (1) 
S-OPLS

>  <s_lp_Variant>  (1) 
Pocket2Mol_20_num_sample_100-2

>  <s_m_source_file>  (1) 
generated__ligand_Pocket2Mol_2026-05-06_prepared.sdf

>  <GenAI_Model>  (1) 
Pocket2Mol

>  <Protein>  (1) 
generic_title2

$$$$
Pocket2Mol_20_num_sample_100
     RDKit          3D

  0  0  0  0  0  0  0  0  0  0999 V3000
M  V30 BEGIN CTAB
M  V30 COUNTS 12 12 0 0 1
M  V30 BEGIN ATOM
M  V30 1 N 12.091876 7.720291 -3.629023 0 CHG=1
M  V30 2 C 12.234846 8.968653 -4.122171 0
M  V30 3 C 11.690023 9.291311 -5.380548 0
M  V30 4 C 11.434840 6.741837 -4.291672 0
M  V30 5 O 11.834839 10.542632 -5.891666 0 CHG=-1
M  V30 6 C 10.994772 8.299869 -6.106751 0
M  V30 7 C 10.865441 7.006931 -5.554338 0
M  V30 8 H 12.780017 9.665124 -3.502556 0
M  V30 9 H 11.384741 5.784992 -3.795749 0
M  V30 10 H 12.495426 7.507055 -2.717170 0
M  V30 11 H 10.567688 8.527969 -7.073190 0
M  V30 12 H 10.336867 6.232590 -6.091745 0
M  V30 END ATOM
M  V30 BEGIN BOND
M  V30 1 1 2 1
M  V30 2 2 3 2
M  V30 3 2 4 1
M  V30 4 1 5 3
M  V30 5 1 6 3
M  V30 6 1 7 4
M  V30 7 2 7 6
M  V30 8 1 8 2
M  V30 9 1 9 4
M  V30 10 1 10 1
M  V30 11 1 11 6
M  V30 12 1 12 7
M  V30 END BOND
M  V30 END CTAB
M  END
>  <i_epik_Tot_Q>  (1) 
0

>  <i_epik_Tot_abs_Q>  (1) 
2

>  <i_i_glide_confnum>  (1) 
1

>  <i_i_glide_lignum>  (1) 
23

>  <i_i_glide_posenum>  (1) 
67

>  <i_i_glide_rotatable_bonds>  (1) 
0

>  <i_lp_mmshare_version>  (1) 
72125

>  <i_m_source_file_index>  (1) 
21

>  <i_f3d_flags>  (1) 
0

>  <num_sample>  (1) 
100

>  <b_lp_Chiralities_Consistent>  (1) 
1

>  <r_epik_Charging_Adjusted_Penalty>  (1) 
0.36510749842979956

>  <r_epik_Ionization_Penalty>  (1) 
0.025180683492302028

>  <r_epik_Ionization_Penalty_Charging>  (1) 
0.025180683492302028

>  <r_epik_Ionization_Penalty_Neutral>  (1) 
0

>  <r_epik_State_Penalty>  (1) 
0.33992681493749755

>  <r_glide_ring_energy>  (1) 
0

>  <r_i_docking_score>  (1) 
-4.4142038207329346

>  <r_i_glide_ecoul>  (1) 
-2.4224316152244687

>  <r_i_glide_eff_state_penalty>  (1) 
0.33992681493749755

>  <r_i_glide_einternal>  (1) 
0

>  <r_i_glide_emodel>  (1) 
-24.177291751711124

>  <r_i_glide_emodel_strain>  (1) 
0

>  <r_i_glide_energy>  (1) 
-14.909636891397941

>  <r_i_glide_erotb>  (1) 
0

>  <r_i_glide_esite>  (1) 
0

>  <r_i_glide_evdw>  (1) 
-12.487205276173473

>  <r_i_glide_gscore>  (1) 
-4.7541306356704318

>  <r_i_glide_gscore_strain>  (1) 
0

>  <r_i_glide_hbond>  (1) 
0

>  <r_i_glide_ligand_efficiency>  (1) 
-0.63060054581899061

>  <r_i_glide_ligand_efficiency_ln>  (1) 
-1.4984176697135416

>  <r_i_glide_ligand_efficiency_sa>  (1) 
-1.206295447970436

>  <r_i_glide_lipo>  (1) 
-1.5164056295780874

>  <r_i_glide_metal>  (1) 
-0

>  <r_i_glide_rewards>  (1) 
-2.25

>  <r_lp_Energy>  (1) 
9.275188

>  <r_lp_tautomer_probability>  (1) 
0.56342000000000003

>  <s_epik_cmdline>  (1) 
J2VwaWtfcHl0aG9uJywgJy1waHQnLCAnMS4wJywgJy1waCcsICc3LjQnLCAnLXRuJywgJzgnLCAnLW1hJywgJzUwMCcsICctaW1hZScsICc8aW5maWxlLm1hZT4nLCAnLW9tYWUnLCAnPG91dGZpbGUubWFlPic=

>  <s_epik_input>  (1) 
W2NIXTFbY0hdW2NIXW5bY0hdYzFbT0hd

>  <s_glide_docking_method>  (1) 
confgen

>  <s_i_glide_gridfile>  (1) 
gpcr_drd2_6luq_protein_autoprepared_prepared

>  <s_lp_Force_Field>  (1) 
S-OPLS

>  <s_lp_Variant>  (1) 
Pocket2Mol_20_num_sample_100-1

>  <s_m_source_file>  (1) 
generated__ligand_Pocket2Mol_2026-05-06_prepared.sdf

>  <GenAI_Model>  (1) 
Pocket2Mol

>  <Protein>  (1) 
generic_title2

$$$$
Pocket2Mol_44_num_sample_100
     RDKit          3D

  0  0  0  0  0  0  0  0  0  0999 V3000
M  V30 BEGIN CTAB
M  V30 COUNTS 8 8 0 0 1
M  V30 BEGIN ATOM
M  V30 1 N 11.895665 9.369272 -4.679512 0
M  V30 2 C 12.234830 8.492021 -3.639948 0
M  V30 3 C 11.834850 7.191838 -3.891644 0
M  V30 4 C 11.267910 8.760956 -5.679252 0
M  V30 5 S 11.034839 7.050552 -5.446929 0
M  V30 6 H 12.748638 8.870908 -2.768016 0
M  V30 7 H 11.961195 6.320237 -3.265520 0
M  V30 8 H 10.946291 9.317203 -6.547722 0
M  V30 END ATOM
M  V30 BEGIN BOND
M  V30 1 1 2 1
M  V30 2 2 3 2
M  V30 3 2 4 1
M  V30 4 1 5 3
M  V30 5 1 5 4
M  V30 6 1 6 2
M  V30 7 1 7 3
M  V30 8 1 8 4
M  V30 END BOND
M  V30 END CTAB
M  END
>  <i_epik_Tot_Q>  (1) 
0

>  <i_epik_Tot_abs_Q>  (1) 
0

>  <i_i_glide_confnum>  (1) 
1

>  <i_i_glide_lignum>  (1) 
49

>  <i_i_glide_posenum>  (1) 
341

>  <i_i_glide_rotatable_bonds>  (1) 
0

>  <i_lp_mmshare_version>  (1) 
72125

>  <i_m_source_file_index>  (1) 
45

>  <i_f3d_flags>  (1) 
0

>  <num_sample>  (1) 
100

>  <b_lp_Chiralities_Consistent>  (1) 
1

>  <r_epik_Charging_Adjusted_Penalty>  (1) 
0

>  <r_epik_Ionization_Penalty>  (1) 
1.4882382677604034e-05

>  <r_epik_Ionization_Penalty_Charging>  (1) 
0

>  <r_epik_Ionization_Penalty_Neutral>  (1) 
1.4882382677604034e-05

>  <r_epik_State_Penalty>  (1) 
-0

>  <r_glide_ring_energy>  (1) 
0

>  <r_i_docking_score>  (1) 
-4.4105099434826851

>  <r_i_glide_ecoul>  (1) 
-0.90619748431597202

>  <r_i_glide_eff_state_penalty>  (1) 
-0

>  <r_i_glide_einternal>  (1) 
0

>  <r_i_glide_emodel>  (1) 
-19.577406874771789

>  <r_i_glide_emodel_strain>  (1) 
4.5519144009631418e-14

>  <r_i_glide_energy>  (1) 
-15.062027265081527

>  <r_i_glide_erotb>  (1) 
0

>  <r_i_glide_esite>  (1) 
0

>  <r_i_glide_evdw>  (1) 
-14.155829780765554

>  <r_i_glide_gscore>  (1) 
-4.4105099434826851

>  <r_i_glide_gscore_strain>  (1) 
0

>  <r_i_glide_hbond>  (1) 
0

>  <r_i_glide_ligand_efficiency>  (1) 
-0.882101988696537

>  <r_i_glide_ligand_efficiency_ln>  (1) 
-1.6902145563480884

>  <r_i_glide_ligand_efficiency_sa>  (1) 
-1.5083731831867579

>  <r_i_glide_lipo>  (1) 
-1.1334554984636782

>  <r_i_glide_metal>  (1) 
-0

>  <r_i_glide_rewards>  (1) 
-2.4333333333333336

>  <r_lp_Energy>  (1) 
1.6688799999999999

>  <r_lp_tautomer_probability>  (1) 
1

>  <s_epik_cmdline>  (1) 
J2VwaWtfcHl0aG9uJywgJy1waHQnLCAnMS4wJywgJy1waCcsICc3LjQnLCAnLXRuJywgJzgnLCAnLW1hJywgJzUwMCcsICctaW1hZScsICc8aW5maWxlLm1hZT4nLCAnLW9tYWUnLCAnPG91dGZpbGUubWFlPic=

>  <s_epik_input>  (1) 
bjFbY0hdW2NIXXNbY0hdMQ==

>  <s_glide_docking_method>  (1) 
confgen

>  <s_i_glide_gridfile>  (1) 
gpcr_drd2_6luq_protein_autoprepared_prepared

>  <s_lp_Force_Field>  (1) 
S-OPLS

>  <s_lp_Variant>  (1) 
Pocket2Mol_44_num_sample_100-1

>  <s_m_source_file>  (1) 
generated__ligand_Pocket2Mol_2026-05-06_prepared.sdf

>  <GenAI_Model>  (1) 
Pocket2Mol

>  <Protein>  (1) 
generic_title2

$$$$
Pocket2Mol_91_num_sample_100
     RDKit          3D

  0  0  0  0  0  0  0  0  0  0999 V3000
M  V30 BEGIN CTAB
M  V30 COUNTS 21 22 0 0 1
M  V30 BEGIN ATOM
M  V30 1 C 9.333400 6.780585 -10.825735 0
M  V30 2 O 9.543174 5.657672 -10.004264 0
M  V30 3 C 10.629593 7.519880 -11.012923 0
M  V30 4 O 11.506301 7.369301 -9.919821 0
M  V30 5 C 9.303188 5.751342 -8.691667 0
M  V30 6 C 11.054086 7.658161 -8.657471 0
M  V30 7 C 11.660529 8.694059 -7.933775 0
M  V30 8 O 8.570010 4.969309 -8.091259 0
M  V30 9 C 10.014685 6.910123 -8.025679 0
M  V30 10 C 11.222442 8.962210 -6.625032 0
M  V30 11 C 9.657230 7.261080 -6.707933 0
M  V30 12 N 11.815583 9.982360 -5.891667 0
M  V30 13 N 10.239269 8.269653 -6.017027 0
M  V30 14 H 8.906184 6.483346 -11.783414 0
M  V30 15 H 8.634839 7.464417 -10.359226 0
M  V30 16 H 11.141012 7.157404 -11.904827 0
M  V30 17 H 10.407395 8.569301 -11.157496 0
M  V30 18 H 12.457063 9.271832 -8.375978 0
M  V30 19 H 8.881167 6.717279 -6.190286 0
M  V30 20 H 12.560224 10.543816 -6.274070 0
M  V30 21 H 11.518965 10.191377 -4.950401 0
M  V30 END ATOM
M  V30 BEGIN BOND
M  V30 1 1 2 1
M  V30 2 1 3 1
M  V30 3 1 4 3
M  V30 4 1 5 2
M  V30 5 1 6 4
M  V30 6 1 7 6
M  V30 7 2 8 5
M  V30 8 1 9 5
M  V30 9 2 9 6
M  V30 10 2 10 7
M  V30 11 1 11 9
M  V30 12 1 12 10
M  V30 13 1 13 10
M  V30 14 2 13 11
M  V30 15 1 14 1
M  V30 16 1 15 1
M  V30 17 1 16 3
M  V30 18 1 17 3
M  V30 19 1 18 7
M  V30 20 1 19 11
M  V30 21 1 20 12
M  V30 22 1 21 12
M  V30 END BOND
M  V30 END CTAB
M  END
>  <i_epik_Tot_Q>  (1) 
0

>  <i_epik_Tot_abs_Q>  (1) 
0

>  <i_i_glide_confnum>  (1) 
1

>  <i_i_glide_lignum>  (1) 
99

>  <i_i_glide_posenum>  (1) 
327

>  <i_i_glide_rotatable_bonds>  (1) 
0

>  <i_lp_mmshare_version>  (1) 
72125

>  <i_m_source_file_index>  (1) 
92

>  <i_f3d_flags>  (1) 
0

>  <num_sample>  (1) 
100

>  <b_lp_Chiralities_Consistent>  (1) 
1

>  <r_epik_Charging_Adjusted_Penalty>  (1) 
0.47186222519243537

>  <r_epik_Ionization_Penalty>  (1) 
0.4718627144316776

>  <r_epik_Ionization_Penalty_Charging>  (1) 
0

>  <r_epik_Ionization_Penalty_Neutral>  (1) 
0.4718627144316776

>  <r_epik_State_Penalty>  (1) 
0.47186222519243537

>  <r_glide_ring_energy>  (1) 
0

>  <r_i_docking_score>  (1) 
-4.4098718340003504

>  <r_i_glide_ecoul>  (1) 
-1.5610011382523112

>  <r_i_glide_eff_state_penalty>  (1) 
0.47186222519243537

>  <r_i_glide_einternal>  (1) 
0

>  <r_i_glide_emodel>  (1) 
-31.7061493918537

>  <r_i_glide_emodel_strain>  (1) 
0

>  <r_i_glide_energy>  (1) 
-24.058566082223592

>  <r_i_glide_erotb>  (1) 
0

>  <r_i_glide_esite>  (1) 
-0.0618943648410114

>  <r_i_glide_evdw>  (1) 
-22.49756494397128

>  <r_i_glide_gscore>  (1) 
-4.8817340591927856

>  <r_i_glide_gscore_strain>  (1) 
0

>  <r_i_glide_hbond>  (1) 
0

>  <r_i_glide_ligand_efficiency>  (1) 
-0.33922091030771928

>  <r_i_glide_ligand_efficiency_ln>  (1) 
-1.2370082690713033

>  <r_i_glide_ligand_efficiency_sa>  (1) 
-0.79762189320675225

>  <r_i_glide_lipo>  (1) 
-0.63011509459718107

>  <r_i_glide_metal>  (1) 
-0

>  <r_i_glide_rewards>  (1) 
-2.8306961818181819

>  <r_lp_Energy>  (1) 
11.927572999999999

>  <s_epik_Chemistry_Notes>  (1) 
This compound has an ester and may undergo hydrolysis at high or low pH.

>  <s_epik_cmdline>  (1) 
J2VwaWtfcHl0aG9uJywgJy1waHQnLCAnMS4wJywgJy1waCcsICc3LjQnLCAnLXRuJywgJzgnLCAnLW1hJywgJzUwMCcsICctaW1hZScsICc8aW5maWxlLm1hZT4nLCAnLW9tYWUnLCAnPG91dGZpbGUubWFlPic=

>  <s_epik_input>  (1) 
TzFbQ0gyXVtDSDJdT0MoPU8pYyhjMTIpW2NIXW5jKFtjSF0yKVtOSDJd

>  <s_glide_docking_method>  (1) 
confgen

>  <s_i_glide_gridfile>  (1) 
gpcr_drd2_6luq_protein_autoprepared_prepared

>  <s_lp_Force_Field>  (1) 
S-OPLS

>  <s_lp_Variant>  (1) 
Pocket2Mol_91_num_sample_100-2

>  <s_m_source_file>  (1) 
generated__ligand_Pocket2Mol_2026-05-06_prepared.sdf

>  <GenAI_Model>  (1) 
Pocket2Mol

>  <Protein>  (1) 
generic_title2

$$$$
Pocket2Mol_55_num_sample_100
     RDKit          3D

  0  0  0  0  0  0  0  0  0  0999 V3000
M  V30 BEGIN CTAB
M  V30 COUNTS 13 13 0 0 1
M  V30 BEGIN ATOM
M  V30 1 O 11.834839 7.907037 -4.291667 0
M  V30 2 C 11.853245 9.323200 -4.420571 0
M  V30 3 C 11.641072 9.562894 -5.908027 0
M  V30 4 C 11.034839 7.333271 -5.330064 0
M  V30 5 C 10.634838 8.485113 -6.254527 0
M  V30 6 H 11.034839 9.752691 -3.840947 0
M  V30 7 H 12.789128 9.746392 -4.054223 0
M  V30 8 H 11.287886 10.569301 -6.131386 0
M  V30 9 H 12.572298 9.396089 -6.451083 0
M  V30 10 H 11.633167 6.593724 -5.863422 0
M  V30 11 H 10.165639 6.819779 -4.919706 0
M  V30 12 H 10.649256 8.208479 -7.309237 0
M  V30 13 H 9.626766 8.822092 -6.010698 0
M  V30 END ATOM
M  V30 BEGIN BOND
M  V30 1 1 2 1
M  V30 2 1 3 2
M  V30 3 1 4 1
M  V30 4 1 5 3
M  V30 5 1 5 4
M  V30 6 1 6 2
M  V30 7 1 7 2
M  V30 8 1 8 3
M  V30 9 1 9 3
M  V30 10 1 10 4
M  V30 11 1 11 4
M  V30 12 1 12 5
M  V30 13 1 13 5
M  V30 END BOND
M  V30 END CTAB
M  END
>  <i_epik_Tot_Q>  (1) 
0

>  <i_epik_Tot_abs_Q>  (1) 
0

>  <i_i_glide_confnum>  (1) 
3

>  <i_i_glide_lignum>  (1) 
62

>  <i_i_glide_posenum>  (1) 
213

>  <i_i_glide_rotatable_bonds>  (1) 
0

>  <i_lp_mmshare_version>  (1) 
72125

>  <i_m_source_file_index>  (1) 
56

>  <i_f3d_flags>  (1) 
0

>  <num_sample>  (1) 
100

>  <b_lp_Chiralities_Consistent>  (1) 
1

>  <r_epik_Charging_Adjusted_Penalty>  (1) 
0

>  <r_epik_Ionization_Penalty>  (1) 
1.3889264151150229e-11

>  <r_epik_Ionization_Penalty_Charging>  (1) 
0

>  <r_epik_Ionization_Penalty_Neutral>  (1) 
1.3889264151150229e-11

>  <r_epik_State_Penalty>  (1) 
-0

>  <r_glide_ring_energy>  (1) 
0.22161987042107956

>  <r_i_docking_score>  (1) 
-4.4077967722555043

>  <r_i_glide_ecoul>  (1) 
-0.31102813849057409

>  <r_i_glide_eff_state_penalty>  (1) 
-0

>  <r_i_glide_einternal>  (1) 
0

>  <r_i_glide_emodel>  (1) 
-17.12819452541995

>  <r_i_glide_emodel_strain>  (1) 
0.0034879390656659126

>  <r_i_glide_energy>  (1) 
-13.42610652192994

>  <r_i_glide_erotb>  (1) 
0

>  <r_i_glide_esite>  (1) 
0

>  <r_i_glide_evdw>  (1) 
-13.115078383439366

>  <r_i_glide_gscore>  (1) 
-4.4077967722555043

>  <r_i_glide_gscore_strain>  (1) 
0

>  <r_i_glide_hbond>  (1) 
0

>  <r_i_glide_ligand_efficiency>  (1) 
-0.8815593544511009

>  <r_i_glide_ligand_efficiency_ln>  (1) 
-1.689174803221849

>  <r_i_glide_ligand_efficiency_sa>  (1) 
-1.5074452916792191

>  <r_i_glide_lipo>  (1) 
-1.2212586530868546

>  <r_i_glide_metal>  (1) 
-0

>  <r_i_glide_rewards>  (1) 
-2.4841299792230953

>  <r_lp_Energy>  (1) 
3.9173999999999998

>  <r_lp_tautomer_probability>  (1) 
1

>  <s_epik_cmdline>  (1) 
J2VwaWtfcHl0aG9uJywgJy1waHQnLCAnMS4wJywgJy1waCcsICc3LjQnLCAnLXRuJywgJzgnLCAnLW1hJywgJzUwMCcsICctaW1hZScsICc8aW5maWxlLm1hZT4nLCAnLW9tYWUnLCAnPG91dGZpbGUubWFlPic=

>  <s_epik_input>  (1) 
TzFbQ0gyXVtDSDJdW0NIMl1bQ0gyXTE=

>  <s_glide_docking_method>  (1) 
confgen

>  <s_i_glide_gridfile>  (1) 
gpcr_drd2_6luq_protein_autoprepared_prepared

>  <s_lp_Force_Field>  (1) 
S-OPLS

>  <s_lp_Variant>  (1) 
Pocket2Mol_55_num_sample_100-1

>  <s_m_source_file>  (1) 
generated__ligand_Pocket2Mol_2026-05-06_prepared.sdf

>  <GenAI_Model>  (1) 
Pocket2Mol

>  <Protein>  (1) 
generic_title2

$$$$
Pocket2Mol_92_num_sample_100
     RDKit          3D

  0  0  0  0  0  0  0  0  0  0999 V3000
M  V30 BEGIN CTAB
M  V30 COUNTS 26 27 0 0 1
M  V30 BEGIN ATOM
M  V30 1 C 7.936668 5.020141 -12.579000 0
M  V30 2 O 8.166726 6.249601 -13.253394 0
M  V30 3 C 9.034839 4.710660 -11.555300 0
M  V30 4 O 9.116225 5.702811 -10.539176 0
M  V30 5 C 7.834840 7.380944 -12.459939 0
M  V30 6 C 9.870086 6.856694 -10.910034 0 CFG=2
M  V30 7 C 10.570119 7.470705 -9.702484 0
M  V30 8 C 9.026678 7.910912 -11.647840 0
M  V30 9 C 11.870580 8.001839 -9.825221 0
M  V30 10 N 9.871464 7.474285 -8.541193 0
M  V30 11 C 10.469575 8.018494 -7.458212 0
M  V30 12 C 11.766127 8.569299 -7.483580 0
M  V30 13 C 12.479303 8.558545 -8.691663 0
M  V30 14 H 7.931317 4.230453 -13.330496 0
M  V30 15 H 6.949590 4.997978 -12.114246 0
M  V30 16 H 9.995879 4.545188 -12.044499 0
M  V30 17 H 8.790034 3.769302 -11.066002 0
M  V30 18 H 7.506199 8.169301 -13.136401 0
M  V30 19 H 6.980771 7.180880 -11.811339 0
M  V30 20 H 8.631861 8.621905 -10.922053 0
M  V30 21 H 9.682702 8.494884 -12.291667 0
M  V30 22 H 12.388600 7.979224 -10.771478 0
M  V30 23 H 9.896899 8.013455 -6.542360 0
M  V30 24 H 12.201908 8.991055 -6.590639 0
M  V30 25 H 13.475858 8.969301 -8.747448 0
M  V30 26 H 10.667818 6.548685 -11.587259 0
M  V30 END ATOM
M  V30 BEGIN BOND
M  V30 1 1 2 1
M  V30 2 1 3 1
M  V30 3 1 4 3
M  V30 4 1 5 2
M  V30 5 1 6 4
M  V30 6 1 7 6
M  V30 7 1 8 5
M  V30 8 1 8 6
M  V30 9 1 9 7
M  V30 10 2 10 7
M  V30 11 1 11 10
M  V30 12 2 12 11
M  V30 13 2 13 9
M  V30 14 1 13 12
M  V30 15 1 14 1
M  V30 16 1 15 1
M  V30 17 1 16 3
M  V30 18 1 17 3
M  V30 19 1 18 5
M  V30 20 1 19 5
M  V30 21 1 20 8
M  V30 22 1 21 8
M  V30 23 1 22 9
M  V30 24 1 23 11
M  V30 25 1 24 12
M  V30 26 1 25 13
M  V30 27 1 6 26 CFG=3
M  V30 END BOND
M  V30 END CTAB
M  END
>  <i_epik_Tot_Q>  (1) 
0

>  <i_epik_Tot_abs_Q>  (1) 
0

>  <i_i_glide_confnum>  (1) 
11

>  <i_i_glide_lignum>  (1) 
101

>  <i_i_glide_posenum>  (1) 
378

>  <i_i_glide_rotatable_bonds>  (1) 
1

>  <i_lp_mmshare_version>  (1) 
72125

>  <i_m_source_file_index>  (1) 
93

>  <i_f3d_flags>  (1) 
0

>  <num_sample>  (1) 
100

>  <b_lp_Chiralities_Consistent>  (1) 
1

>  <r_epik_Charging_Adjusted_Penalty>  (1) 
0.0037896276157117258

>  <r_epik_Ionization_Penalty>  (1) 
0.0037896276174286705

>  <r_epik_Ionization_Penalty_Charging>  (1) 
0

>  <r_epik_Ionization_Penalty_Neutral>  (1) 
0.0037896276174286705

>  <r_epik_State_Penalty>  (1) 
0.0037896276157117258

>  <r_glide_ring_energy>  (1) 
0.42046542179081409

>  <r_i_docking_score>  (1) 
-4.4049383898435366

>  <r_i_glide_ecoul>  (1) 
1.0193288623440357

>  <r_i_glide_eff_state_penalty>  (1) 
0.0037896276157117258

>  <r_i_glide_einternal>  (1) 
0.0066845501242062677

>  <r_i_glide_emodel>  (1) 
-28.512591009385165

>  <r_i_glide_emodel_strain>  (1) 
0

>  <r_i_glide_energy>  (1) 
-22.246801016931919

>  <r_i_glide_erotb>  (1) 
0.4895878840251785

>  <r_i_glide_esite>  (1) 
0

>  <r_i_glide_evdw>  (1) 
-23.266129879275955

>  <r_i_glide_gscore>  (1) 
-4.4087280174592482

>  <r_i_glide_gscore_strain>  (1) 
0

>  <r_i_glide_hbond>  (1) 
0

>  <r_i_glide_ligand_efficiency>  (1) 
-0.33884141460334899

>  <r_i_glide_ligand_efficiency_ln>  (1) 
-1.2356243941092402

>  <r_i_glide_ligand_efficiency_sa>  (1) 
-0.79672957179322534

>  <r_i_glide_lipo>  (1) 
-1.0674431989934459

>  <r_i_glide_metal>  (1) 
-0

>  <r_i_glide_rewards>  (1) 
-2.8204655378787882

>  <r_lp_Energy>  (1) 
20.663057999999999

>  <s_epik_cmdline>  (1) 
J2VwaWtfcHl0aG9uJywgJy1waHQnLCAnMS4wJywgJy1waCcsICc3LjQnLCAnLXRuJywgJzgnLCAnLW1hJywgJzUwMCcsICctaW1hZScsICc8aW5maWxlLm1hZT4nLCAnLW9tYWUnLCAnPG91dGZpbGUubWFlPic=

>  <s_epik_input>  (1) 
W0NIMl0xW0NIMl1PW0NIMl1bQ0gyXU8vQzE9QzJcW0NIXT1bQ0hdW0NIXT1bQ0hdW05IXTI=

>  <s_glide_docking_method>  (1) 
confgen

>  <s_i_glide_gridfile>  (1) 
gpcr_drd2_6luq_protein_autoprepared_prepared

>  <s_lp_Force_Field>  (1) 
S-OPLS

>  <s_lp_Variant>  (1) 
Pocket2Mol_92_num_sample_100-2

>  <s_m_source_file>  (1) 
generated__ligand_Pocket2Mol_2026-05-06_prepared.sdf

>  <GenAI_Model>  (1) 
Pocket2Mol

>  <Protein>  (1) 
generic_title2

$$$$
Pocket2Mol_4_num_sample_100
     RDKit          3D

  0  0  0  0  0  0  0  0  0  0999 V3000
M  V30 BEGIN CTAB
M  V30 COUNTS 9 9 0 0 1
M  V30 BEGIN ATOM
M  V30 1 N 12.634839 8.969300 -2.498529 0
M  V30 2 C 12.506448 7.629065 -2.291704 0
M  V30 3 C 11.985192 7.098045 -3.429430 0
M  V30 4 C 11.834839 8.233240 -4.291667 0
M  V30 5 N 12.232611 9.369277 -3.715279 0
M  V30 6 H 13.007657 9.628978 -1.822235 0
M  V30 7 H 12.794931 7.164738 -1.363214 0
M  V30 8 H 11.747715 6.062211 -3.624809 0
M  V30 9 H 11.452777 8.266244 -5.301658 0
M  V30 END ATOM
M  V30 BEGIN BOND
M  V30 1 1 2 1
M  V30 2 2 3 2
M  V30 3 1 4 3
M  V30 4 1 5 1
M  V30 5 2 5 4
M  V30 6 1 6 1
M  V30 7 1 7 2
M  V30 8 1 8 3
M  V30 9 1 9 4
M  V30 END BOND
M  V30 END CTAB
M  END
>  <i_epik_Tot_Q>  (1) 
0

>  <i_epik_Tot_abs_Q>  (1) 
0

>  <i_i_glide_confnum>  (1) 
1

>  <i_i_glide_lignum>  (1) 
5

>  <i_i_glide_posenum>  (1) 
393

>  <i_i_glide_rotatable_bonds>  (1) 
0

>  <i_lp_mmshare_version>  (1) 
72125

>  <i_m_source_file_index>  (1) 
5

>  <i_f3d_flags>  (1) 
0

>  <num_sample>  (1) 
100

>  <b_lp_Chiralities_Consistent>  (1) 
1

>  <r_epik_Charging_Adjusted_Penalty>  (1) 
0

>  <r_epik_Ionization_Penalty>  (1) 
1.0045315435319e-05

>  <r_epik_Ionization_Penalty_Charging>  (1) 
0

>  <r_epik_Ionization_Penalty_Neutral>  (1) 
1.0045315435319e-05

>  <r_epik_State_Penalty>  (1) 
-0

>  <r_glide_ring_energy>  (1) 
0

>  <r_i_docking_score>  (1) 
-4.4022609937186949

>  <r_i_glide_ecoul>  (1) 
-3.1745857835471014

>  <r_i_glide_eff_state_penalty>  (1) 
-0

>  <r_i_glide_einternal>  (1) 
0

>  <r_i_glide_emodel>  (1) 
-20.055426580065657

>  <r_i_glide_emodel_strain>  (1) 
0

>  <r_i_glide_energy>  (1) 
-14.804682935034704

>  <r_i_glide_erotb>  (1) 
0

>  <r_i_glide_esite>  (1) 
0

>  <r_i_glide_evdw>  (1) 
-11.630097151487602

>  <r_i_glide_gscore>  (1) 
-4.4022609937186949

>  <r_i_glide_gscore_strain>  (1) 
0

>  <r_i_glide_hbond>  (1) 
-0.32000000000000001

>  <r_i_glide_ligand_efficiency>  (1) 
-0.88045219874373903

>  <r_i_glide_ligand_efficiency_ln>  (1) 
-1.6870533584040088

>  <r_i_glide_ligand_efficiency_sa>  (1) 
-1.5055520820504045

>  <r_i_glide_lipo>  (1) 
-0.77456826861224959

>  <r_i_glide_metal>  (1) 
-0

>  <r_i_glide_rewards>  (1) 
-2.25

>  <r_lp_Energy>  (1) 
2.3130189999999997

>  <r_lp_tautomer_probability>  (1) 
1

>  <s_epik_cmdline>  (1) 
J2VwaWtfcHl0aG9uJywgJy1waHQnLCAnMS4wJywgJy1waCcsICc3LjQnLCAnLXRuJywgJzgnLCAnLW1hJywgJzUwMCcsICctaW1hZScsICc8aW5maWxlLm1hZT4nLCAnLW9tYWUnLCAnPG91dGZpbGUubWFlPic=

>  <s_epik_input>  (1) 
W25IXTFbY0hdW2NIXVtjSF1uMQ==

>  <s_glide_docking_method>  (1) 
confgen

>  <s_i_glide_gridfile>  (1) 
gpcr_drd2_6luq_protein_autoprepared_prepared

>  <s_lp_Force_Field>  (1) 
S-OPLS

>  <s_lp_Variant>  (1) 
Pocket2Mol_4_num_sample_100-1

>  <s_m_source_file>  (1) 
generated__ligand_Pocket2Mol_2026-05-06_prepared.sdf

>  <GenAI_Model>  (1) 
Pocket2Mol

>  <Protein>  (1) 
generic_title2

$$$$
Pocket2Mol_30_num_sample_100
     RDKit          3D

  0  0  0  0  0  0  0  0  0  0999 V3000
M  V30 BEGIN CTAB
M  V30 COUNTS 14 14 0 0 1
M  V30 BEGIN ATOM
M  V30 1 N 11.148418 7.792276 -9.442214 0
M  V30 2 C 10.059488 7.369298 -8.764346 0
M  V30 3 C 9.834852 7.711778 -7.429864 0
M  V30 4 C 10.784724 8.522371 -6.814228 0
M  V30 5 O 10.634848 8.911001 -5.498345 0
M  V30 6 C 11.986780 8.569295 -8.738091 0
M  V30 7 N 11.886679 8.969294 -7.459142 0
M  V30 8 C 11.582779 9.806958 -4.928735 0
M  V30 9 H 9.360604 6.745860 -9.302275 0
M  V30 10 H 8.956942 7.367117 -6.900826 0
M  V30 11 H 12.860450 8.915818 -9.269305 0
M  V30 12 H 11.289272 10.036598 -3.904470 0
M  V30 13 H 12.581752 9.369364 -4.898755 0
M  V30 14 H 11.619444 10.747802 -5.480001 0
M  V30 END ATOM
M  V30 BEGIN BOND
M  V30 1 1 2 1
M  V30 2 2 3 2
M  V30 3 1 4 3
M  V30 4 1 5 4
M  V30 5 2 6 1
M  V30 6 2 7 4
M  V30 7 1 7 6
M  V30 8 1 8 5
M  V30 9 1 9 2
M  V30 10 1 10 3
M  V30 11 1 11 6
M  V30 12 1 12 8
M  V30 13 1 13 8
M  V30 14 1 14 8
M  V30 END BOND
M  V30 END CTAB
M  END
>  <i_epik_Tot_Q>  (1) 
0

>  <i_epik_Tot_abs_Q>  (1) 
0

>  <i_i_glide_confnum>  (1) 
1

>  <i_i_glide_lignum>  (1) 
34

>  <i_i_glide_posenum>  (1) 
241

>  <i_i_glide_rotatable_bonds>  (1) 
1

>  <i_lp_mmshare_version>  (1) 
72125

>  <i_m_source_file_index>  (1) 
31

>  <i_f3d_flags>  (1) 
0

>  <num_sample>  (1) 
100

>  <b_lp_Chiralities_Consistent>  (1) 
1

>  <r_epik_Charging_Adjusted_Penalty>  (1) 
0

>  <r_epik_Ionization_Penalty>  (1) 
8.6638422661064201e-06

>  <r_epik_Ionization_Penalty_Charging>  (1) 
0

>  <r_epik_Ionization_Penalty_Neutral>  (1) 
8.6638422661064201e-06

>  <r_epik_State_Penalty>  (1) 
-0

>  <r_glide_ring_energy>  (1) 
0

>  <r_i_docking_score>  (1) 
-4.3993847299900741

>  <r_i_glide_ecoul>  (1) 
-1.7423325072071856

>  <r_i_glide_eff_state_penalty>  (1) 
-0

>  <r_i_glide_einternal>  (1) 
0.030912527534225243

>  <r_i_glide_emodel>  (1) 
-25.018574290329859

>  <r_i_glide_emodel_strain>  (1) 
0

>  <r_i_glide_energy>  (1) 
-19.475162652361576

>  <r_i_glide_erotb>  (1) 
0

>  <r_i_glide_esite>  (1) 
0

>  <r_i_glide_evdw>  (1) 
-17.732830145154391

>  <r_i_glide_gscore>  (1) 
-4.3993847299900741

>  <r_i_glide_gscore_strain>  (1) 
0

>  <r_i_glide_hbond>  (1) 
0

>  <r_i_glide_ligand_efficiency>  (1) 
-0.54992309124875927

>  <r_i_glide_ligand_efficiency_ln>  (1) 
-1.4286307015233057

>  <r_i_glide_ligand_efficiency_sa>  (1) 
-1.0998461824975188

>  <r_i_glide_lipo>  (1) 
-0.55210392775582262

>  <r_i_glide_metal>  (1) 
-0

>  <r_i_glide_rewards>  (1) 
-2.6992894188954546

>  <r_lp_Energy>  (1) 
14.393509

>  <r_lp_tautomer_probability>  (1) 
1

>  <s_epik_cmdline>  (1) 
J2VwaWtfcHl0aG9uJywgJy1waHQnLCAnMS4wJywgJy1waCcsICc3LjQnLCAnLXRuJywgJzgnLCAnLW1hJywgJzUwMCcsICctaW1hZScsICc8aW5maWxlLm1hZT4nLCAnLW9tYWUnLCAnPG91dGZpbGUubWFlPic=

>  <s_epik_input>  (1) 
bjFbY0hdbltjSF1bY0hdYzFPW0NIM10=

>  <s_glide_docking_method>  (1) 
confgen

>  <s_i_glide_gridfile>  (1) 
gpcr_drd2_6luq_protein_autoprepared_prepared

>  <s_lp_Force_Field>  (1) 
S-OPLS

>  <s_lp_Variant>  (1) 
Pocket2Mol_30_num_sample_100-1

>  <s_m_source_file>  (1) 
generated__ligand_Pocket2Mol_2026-05-06_prepared.sdf

>  <GenAI_Model>  (1) 
Pocket2Mol

>  <Protein>  (1) 
generic_title2

$$$$
Pocket2Mol_12_num_sample_100
     RDKit          3D

  0  0  0  0  0  0  0  0  0  0999 V3000
M  V30 BEGIN CTAB
M  V30 COUNTS 14 14 0 0 1
M  V30 BEGIN ATOM
M  V30 1 O 11.366833 8.289290 -5.506091 0
M  V30 2 C 11.390947 8.770459 -6.760490 0
M  V30 3 C 10.728891 6.969356 -5.710707 0
M  V30 4 C 10.887481 8.015502 -7.686549 0
M  V30 5 C 10.818977 8.372425 -9.155757 0
M  V30 6 C 10.350952 6.725846 -7.246640 0
M  V30 7 H 11.834838 9.749938 -6.861971 0
M  V30 8 H 9.834839 6.903268 -5.091640 0
M  V30 9 H 11.409612 6.190866 -5.363319 0
M  V30 10 H 11.357258 7.633866 -9.749810 0
M  V30 11 H 9.779864 8.389810 -9.488627 0
M  V30 12 H 11.257819 9.352289 -9.347239 0
M  V30 13 H 9.276005 6.653802 -7.420394 0
M  V30 14 H 10.879802 5.883798 -7.693721 0
M  V30 END ATOM
M  V30 BEGIN BOND
M  V30 1 1 2 1
M  V30 2 1 3 1
M  V30 3 2 4 2
M  V30 4 1 5 4
M  V30 5 1 6 3
M  V30 6 1 6 4
M  V30 7 1 7 2
M  V30 8 1 8 3
M  V30 9 1 9 3
M  V30 10 1 10 5
M  V30 11 1 11 5
M  V30 12 1 12 5
M  V30 13 1 13 6
M  V30 14 1 14 6
M  V30 END BOND
M  V30 END CTAB
M  END
>  <i_epik_Tot_Q>  (1) 
0

>  <i_epik_Tot_abs_Q>  (1) 
0

>  <i_i_glide_confnum>  (1) 
1

>  <i_i_glide_lignum>  (1) 
15

>  <i_i_glide_posenum>  (1) 
374

>  <i_i_glide_rotatable_bonds>  (1) 
0

>  <i_lp_mmshare_version>  (1) 
72125

>  <i_m_source_file_index>  (1) 
13

>  <i_f3d_flags>  (1) 
0

>  <num_sample>  (1) 
100

>  <b_lp_Chiralities_Consistent>  (1) 
1

>  <r_epik_Charging_Adjusted_Penalty>  (1) 
0

>  <r_epik_Ionization_Penalty>  (1) 
0

>  <r_epik_Ionization_Penalty_Charging>  (1) 
0

>  <r_epik_Ionization_Penalty_Neutral>  (1) 
0

>  <r_epik_State_Penalty>  (1) 
-0

>  <r_glide_ring_energy>  (1) 
0

>  <r_i_docking_score>  (1) 
-4.3991485951231715

>  <r_i_glide_ecoul>  (1) 
-0.82533682973249922

>  <r_i_glide_eff_state_penalty>  (1) 
-0

>  <r_i_glide_einternal>  (1) 
0

>  <r_i_glide_emodel>  (1) 
-19.112311717249334

>  <r_i_glide_emodel_strain>  (1) 
0

>  <r_i_glide_energy>  (1) 
-14.819130777409143

>  <r_i_glide_erotb>  (1) 
0

>  <r_i_glide_esite>  (1) 
0

>  <r_i_glide_evdw>  (1) 
-13.993793947676643

>  <r_i_glide_gscore>  (1) 
-4.3991485951231715

>  <r_i_glide_gscore_strain>  (1) 
0

>  <r_i_glide_hbond>  (1) 
0

>  <r_i_glide_ligand_efficiency>  (1) 
-0.73319143252052854

>  <r_i_glide_ligand_efficiency_ln>  (1) 
-1.5757620395354379

>  <r_i_glide_ligand_efficiency_sa>  (1) 
-1.3322972505211488

>  <r_i_glide_lipo>  (1) 
-0.86540934534368563

>  <r_i_glide_metal>  (1) 
-0

>  <r_i_glide_rewards>  (1) 
-2.7102490279357787

>  <r_lp_Energy>  (1) 
-7.9393969999999996

>  <r_lp_tautomer_probability>  (1) 
1

>  <s_epik_cmdline>  (1) 
J2VwaWtfcHl0aG9uJywgJy1waHQnLCAnMS4wJywgJy1waCcsICc3LjQnLCAnLXRuJywgJzgnLCAnLW1hJywgJzUwMCcsICctaW1hZScsICc8aW5maWxlLm1hZT4nLCAnLW9tYWUnLCAnPG91dGZpbGUubWFlPic=

>  <s_epik_input>  (1) 
W0NIMl0xW0NIMl1PW0NIXT1DMVtDSDNd

>  <s_glide_docking_method>  (1) 
confgen

>  <s_i_glide_gridfile>  (1) 
gpcr_drd2_6luq_protein_autoprepared_prepared

>  <s_lp_Force_Field>  (1) 
S-OPLS

>  <s_lp_Variant>  (1) 
Pocket2Mol_12_num_sample_100-1

>  <s_m_source_file>  (1) 
generated__ligand_Pocket2Mol_2026-05-06_prepared.sdf

>  <GenAI_Model>  (1) 
Pocket2Mol

>  <Protein>  (1) 
generic_title2

$$$$
Pocket2Mol_4_num_sample_100
     RDKit          3D

  0  0  0  0  0  0  0  0  0  0999 V3000
M  V30 BEGIN CTAB
M  V30 COUNTS 9 9 0 0 1
M  V30 BEGIN ATOM
M  V30 1 N 9.437030 7.892191 -8.673903 0
M  V30 2 C 9.792037 7.412624 -7.436364 0
M  V30 3 C 11.109078 7.727522 -7.259092 0
M  V30 4 C 11.464027 8.405797 -8.462305 0
M  V30 5 N 10.452418 8.502969 -9.313126 0
M  V30 6 H 8.517486 7.812081 -9.091703 0
M  V30 7 H 9.091443 6.896355 -6.795415 0
M  V30 8 H 11.728315 7.508704 -6.402451 0
M  V30 9 H 12.418880 8.826753 -8.739891 0
M  V30 END ATOM
M  V30 BEGIN BOND
M  V30 1 1 2 1
M  V30 2 2 3 2
M  V30 3 1 4 3
M  V30 4 1 5 1
M  V30 5 2 5 4
M  V30 6 1 6 1
M  V30 7 1 7 2
M  V30 8 1 8 3
M  V30 9 1 9 4
M  V30 END BOND
M  V30 END CTAB
M  END
>  <i_epik_Tot_Q>  (1) 
0

>  <i_epik_Tot_abs_Q>  (1) 
0

>  <i_i_glide_confnum>  (1) 
1

>  <i_i_glide_lignum>  (1) 
5

>  <i_i_glide_posenum>  (1) 
284

>  <i_i_glide_rotatable_bonds>  (1) 
0

>  <i_lp_mmshare_version>  (1) 
72125

>  <i_m_source_file_index>  (1) 
5

>  <i_f3d_flags>  (1) 
0

>  <num_sample>  (1) 
100

>  <b_lp_Chiralities_Consistent>  (1) 
1

>  <r_epik_Charging_Adjusted_Penalty>  (1) 
0

>  <r_epik_Ionization_Penalty>  (1) 
1.0045315435319e-05

>  <r_epik_Ionization_Penalty_Charging>  (1) 
0

>  <r_epik_Ionization_Penalty_Neutral>  (1) 
1.0045315435319e-05

>  <r_epik_State_Penalty>  (1) 
-0

>  <r_glide_ring_energy>  (1) 
0

>  <r_i_docking_score>  (1) 
-4.3893205889168136

>  <r_i_glide_ecoul>  (1) 
-7.2038543826243071

>  <r_i_glide_eff_state_penalty>  (1) 
-0

>  <r_i_glide_einternal>  (1) 
0

>  <r_i_glide_emodel>  (1) 
-20.422798534609608

>  <r_i_glide_emodel_strain>  (1) 
0

>  <r_i_glide_energy>  (1) 
-15.187489401156807

>  <r_i_glide_erotb>  (1) 
0

>  <r_i_glide_esite>  (1) 
-0.10000000000000001

>  <r_i_glide_evdw>  (1) 
-7.9836350185324987

>  <r_i_glide_gscore>  (1) 
-4.3893205889168136

>  <r_i_glide_gscore_strain>  (1) 
0

>  <r_i_glide_hbond>  (1) 
-0.16

>  <r_i_glide_ligand_efficiency>  (1) 
-0.87786411778336271

>  <r_i_glide_ligand_efficiency_ln>  (1) 
-1.6820942809183097

>  <r_i_glide_ligand_efficiency_sa>  (1) 
-1.5011265258601092

>  <r_i_glide_lipo>  (1) 
-0.39956068059654248

>  <r_i_glide_metal>  (1) 
-0

>  <r_i_glide_rewards>  (1) 
-2.25

>  <r_lp_Energy>  (1) 
2.3130189999999997

>  <r_lp_tautomer_probability>  (1) 
1

>  <s_epik_cmdline>  (1) 
J2VwaWtfcHl0aG9uJywgJy1waHQnLCAnMS4wJywgJy1waCcsICc3LjQnLCAnLXRuJywgJzgnLCAnLW1hJywgJzUwMCcsICctaW1hZScsICc8aW5maWxlLm1hZT4nLCAnLW9tYWUnLCAnPG91dGZpbGUubWFlPic=

>  <s_epik_input>  (1) 
W25IXTFbY0hdW2NIXVtjSF1uMQ==

>  <s_glide_docking_method>  (1) 
confgen

>  <s_i_glide_gridfile>  (1) 
gpcr_drd2_6luq_protein_autoprepared_prepared

>  <s_lp_Force_Field>  (1) 
S-OPLS

>  <s_lp_Variant>  (1) 
Pocket2Mol_4_num_sample_100-1

>  <s_m_source_file>  (1) 
generated__ligand_Pocket2Mol_2026-05-06_prepared.sdf

>  <GenAI_Model>  (1) 
Pocket2Mol

>  <Protein>  (1) 
generic_title2

$$$$
Pocket2Mol_22_num_sample_100
     RDKit          3D

  0  0  0  0  0  0  0  0  0  0999 V3000
M  V30 BEGIN CTAB
M  V30 COUNTS 9 9 0 0 1
M  V30 BEGIN ATOM
M  V30 1 C 11.028395 7.401315 -5.376790 0
M  V30 2 O 11.834839 7.626747 -4.291969 0
M  V30 3 C 12.068390 8.974426 -4.278406 0
M  V30 4 C 10.760995 8.567239 -6.035765 0
M  V30 5 C 11.436519 9.589839 -5.321705 0
M  V30 6 H 10.742754 6.370380 -5.531905 0
M  V30 7 H 12.695680 9.324218 -3.470332 0
M  V30 8 H 10.150906 8.669948 -6.922381 0
M  V30 9 H 11.457681 10.647205 -5.541838 0
M  V30 END ATOM
M  V30 BEGIN BOND
M  V30 1 1 2 1
M  V30 2 1 3 2
M  V30 3 2 4 1
M  V30 4 2 5 3
M  V30 5 1 5 4
M  V30 6 1 6 1
M  V30 7 1 7 3
M  V30 8 1 8 4
M  V30 9 1 9 5
M  V30 END BOND
M  V30 END CTAB
M  END
>  <i_epik_Tot_Q>  (1) 
0

>  <i_epik_Tot_abs_Q>  (1) 
0

>  <i_i_glide_confnum>  (1) 
1

>  <i_i_glide_lignum>  (1) 
26

>  <i_i_glide_posenum>  (1) 
37

>  <i_i_glide_rotatable_bonds>  (1) 
0

>  <i_lp_mmshare_version>  (1) 
72125

>  <i_m_source_file_index>  (1) 
23

>  <i_f3d_flags>  (1) 
0

>  <num_sample>  (1) 
100

>  <b_lp_Chiralities_Consistent>  (1) 
1

>  <r_epik_Charging_Adjusted_Penalty>  (1) 
0

>  <r_epik_Ionization_Penalty>  (1) 
0

>  <r_epik_Ionization_Penalty_Charging>  (1) 
0

>  <r_epik_Ionization_Penalty_Neutral>  (1) 
0

>  <r_epik_State_Penalty>  (1) 
-0

>  <r_glide_ring_energy>  (1) 
0

>  <r_i_docking_score>  (1) 
-4.3833129620262099

>  <r_i_glide_ecoul>  (1) 
-0.79886872465079661

>  <r_i_glide_eff_state_penalty>  (1) 
-0

>  <r_i_glide_einternal>  (1) 
0

>  <r_i_glide_emodel>  (1) 
-15.849886203810946

>  <r_i_glide_emodel_strain>  (1) 
0

>  <r_i_glide_energy>  (1) 
-12.410772124719411

>  <r_i_glide_erotb>  (1) 
0

>  <r_i_glide_esite>  (1) 
0

>  <r_i_glide_evdw>  (1) 
-11.611903400068615

>  <r_i_glide_gscore>  (1) 
-4.3833129620262099

>  <r_i_glide_gscore_strain>  (1) 
0

>  <r_i_glide_hbond>  (1) 
0

>  <r_i_glide_ligand_efficiency>  (1) 
-0.87666259240524202

>  <r_i_glide_ligand_efficiency_ln>  (1) 
-1.6797920123485242

>  <r_i_glide_ligand_efficiency_sa>  (1) 
-1.499071946364201

>  <r_i_glide_lipo>  (1) 
-1.1912208166584926

>  <r_i_glide_metal>  (1) 
-0

>  <r_i_glide_rewards>  (1) 
-2.4916666666666667

>  <r_lp_Energy>  (1) 
2.5980879999999997

>  <r_lp_tautomer_probability>  (1) 
1

>  <s_epik_cmdline>  (1) 
J2VwaWtfcHl0aG9uJywgJy1waHQnLCAnMS4wJywgJy1waCcsICc3LjQnLCAnLXRuJywgJzgnLCAnLW1hJywgJzUwMCcsICctaW1hZScsICc8aW5maWxlLm1hZT4nLCAnLW9tYWUnLCAnPG91dGZpbGUubWFlPic=

>  <s_epik_input>  (1) 
W2NIXTFvW2NIXVtjSF1bY0hdMQ==

>  <s_glide_docking_method>  (1) 
confgen

>  <s_i_glide_gridfile>  (1) 
gpcr_drd2_6luq_protein_autoprepared_prepared

>  <s_lp_Force_Field>  (1) 
S-OPLS

>  <s_lp_Variant>  (1) 
Pocket2Mol_22_num_sample_100-1

>  <s_m_source_file>  (1) 
generated__ligand_Pocket2Mol_2026-05-06_prepared.sdf

>  <GenAI_Model>  (1) 
Pocket2Mol

>  <Protein>  (1) 
generic_title2

$$$$
Pocket2Mol_12_num_sample_100
     RDKit          3D

  0  0  0  0  0  0  0  0  0  0999 V3000
M  V30 BEGIN CTAB
M  V30 COUNTS 14 14 0 0 1
M  V30 BEGIN ATOM
M  V30 1 O 11.389271 7.688903 -8.704820 0
M  V30 2 C 11.837310 8.504918 -7.736975 0
M  V30 3 C 10.104776 7.227906 -8.132314 0
M  V30 4 C 11.086860 8.636050 -6.688425 0
M  V30 5 C 11.413237 9.504520 -5.491677 0
M  V30 6 C 9.834753 7.874554 -6.692110 0
M  V30 7 H 12.791233 8.969301 -7.941819 0
M  V30 8 H 10.121329 6.139614 -8.062288 0
M  V30 9 H 9.298088 7.488596 -8.817483 0
M  V30 10 H 10.653962 10.274649 -5.357449 0
M  V30 11 H 11.455534 8.897593 -4.587023 0
M  V30 12 H 12.377108 9.999113 -5.615693 0
M  V30 13 H 9.795831 7.135528 -5.891668 0
M  V30 14 H 8.956063 8.520834 -6.673249 0
M  V30 END ATOM
M  V30 BEGIN BOND
M  V30 1 1 2 1
M  V30 2 1 3 1
M  V30 3 2 4 2
M  V30 4 1 5 4
M  V30 5 1 6 3
M  V30 6 1 6 4
M  V30 7 1 7 2
M  V30 8 1 8 3
M  V30 9 1 9 3
M  V30 10 1 10 5
M  V30 11 1 11 5
M  V30 12 1 12 5
M  V30 13 1 13 6
M  V30 14 1 14 6
M  V30 END BOND
M  V30 END CTAB
M  END
>  <i_epik_Tot_Q>  (1) 
0

>  <i_epik_Tot_abs_Q>  (1) 
0

>  <i_i_glide_confnum>  (1) 
1

>  <i_i_glide_lignum>  (1) 
15

>  <i_i_glide_posenum>  (1) 
52

>  <i_i_glide_rotatable_bonds>  (1) 
0

>  <i_lp_mmshare_version>  (1) 
72125

>  <i_m_source_file_index>  (1) 
13

>  <i_f3d_flags>  (1) 
0

>  <num_sample>  (1) 
100

>  <b_lp_Chiralities_Consistent>  (1) 
1

>  <r_epik_Charging_Adjusted_Penalty>  (1) 
0

>  <r_epik_Ionization_Penalty>  (1) 
0

>  <r_epik_Ionization_Penalty_Charging>  (1) 
0

>  <r_epik_Ionization_Penalty_Neutral>  (1) 
0

>  <r_epik_State_Penalty>  (1) 
-0

>  <r_glide_ring_energy>  (1) 
0

>  <r_i_docking_score>  (1) 
-4.3647020142757365

>  <r_i_glide_ecoul>  (1) 
-0.54087811381028961

>  <r_i_glide_eff_state_penalty>  (1) 
-0

>  <r_i_glide_einternal>  (1) 
0

>  <r_i_glide_emodel>  (1) 
-19.736577315411814

>  <r_i_glide_emodel_strain>  (1) 
0

>  <r_i_glide_energy>  (1) 
-15.477013199631807

>  <r_i_glide_erotb>  (1) 
0

>  <r_i_glide_esite>  (1) 
0

>  <r_i_glide_evdw>  (1) 
-14.936135085821517

>  <r_i_glide_gscore>  (1) 
-4.3647020142757365

>  <r_i_glide_gscore_strain>  (1) 
0

>  <r_i_glide_hbond>  (1) 
0

>  <r_i_glide_ligand_efficiency>  (1) 
-0.72745033571262274

>  <r_i_glide_ligand_efficiency_ln>  (1) 
-1.5634233759696401

>  <r_i_glide_ligand_efficiency_sa>  (1) 
-1.3218649852860602

>  <r_i_glide_lipo>  (1) 
-0.84509687624645058

>  <r_i_glide_metal>  (1) 
-0

>  <r_i_glide_rewards>  (1) 
-2.6916666666666664

>  <r_lp_Energy>  (1) 
-7.9393969999999996

>  <r_lp_tautomer_probability>  (1) 
1

>  <s_epik_cmdline>  (1) 
J2VwaWtfcHl0aG9uJywgJy1waHQnLCAnMS4wJywgJy1waCcsICc3LjQnLCAnLXRuJywgJzgnLCAnLW1hJywgJzUwMCcsICctaW1hZScsICc8aW5maWxlLm1hZT4nLCAnLW9tYWUnLCAnPG91dGZpbGUubWFlPic=

>  <s_epik_input>  (1) 
W0NIMl0xW0NIMl1PW0NIXT1DMVtDSDNd

>  <s_glide_docking_method>  (1) 
confgen

>  <s_i_glide_gridfile>  (1) 
gpcr_drd2_6luq_protein_autoprepared_prepared

>  <s_lp_Force_Field>  (1) 
S-OPLS

>  <s_lp_Variant>  (1) 
Pocket2Mol_12_num_sample_100-1

>  <s_m_source_file>  (1) 
generated__ligand_Pocket2Mol_2026-05-06_prepared.sdf

>  <GenAI_Model>  (1) 
Pocket2Mol

>  <Protein>  (1) 
generic_title2

$$$$
Pocket2Mol_77_num_sample_100
     RDKit          3D

  0  0  0  0  0  0  0  0  0  0999 V3000
M  V30 BEGIN CTAB
M  V30 COUNTS 11 11 0 0 1
M  V30 BEGIN ATOM
M  V30 1 C 11.035021 6.988676 -5.113182 0
M  V30 2 O 11.834839 7.742607 -4.116852 0
M  V30 3 C 10.534964 7.936948 -6.307462 0
M  V30 4 C 11.189883 9.126868 -5.762639 0
M  V30 5 C 11.834838 8.976174 -4.651317 0
M  V30 6 H 10.184348 6.523402 -4.615261 0
M  V30 7 H 11.644924 6.175325 -5.509050 0
M  V30 8 H 9.450625 8.050382 -6.345528 0
M  V30 9 H 10.935884 7.656734 -7.281833 0
M  V30 10 H 11.121091 10.070902 -6.283098 0
M  V30 11 H 12.381546 9.716755 -4.085902 0
M  V30 END ATOM
M  V30 BEGIN BOND
M  V30 1 1 2 1
M  V30 2 1 3 1
M  V30 3 1 4 3
M  V30 4 1 5 2
M  V30 5 2 5 4
M  V30 6 1 6 1
M  V30 7 1 7 1
M  V30 8 1 8 3
M  V30 9 1 9 3
M  V30 10 1 10 4
M  V30 11 1 11 5
M  V30 END BOND
M  V30 END CTAB
M  END
>  <i_epik_Tot_Q>  (1) 
0

>  <i_epik_Tot_abs_Q>  (1) 
0

>  <i_i_glide_confnum>  (1) 
1

>  <i_i_glide_lignum>  (1) 
84

>  <i_i_glide_posenum>  (1) 
290

>  <i_i_glide_rotatable_bonds>  (1) 
0

>  <i_lp_mmshare_version>  (1) 
72125

>  <i_m_source_file_index>  (1) 
78

>  <i_f3d_flags>  (1) 
0

>  <num_sample>  (1) 
100

>  <b_lp_Chiralities_Consistent>  (1) 
1

>  <r_epik_Charging_Adjusted_Penalty>  (1) 
0

>  <r_epik_Ionization_Penalty>  (1) 
0

>  <r_epik_Ionization_Penalty_Charging>  (1) 
0

>  <r_epik_Ionization_Penalty_Neutral>  (1) 
0

>  <r_epik_State_Penalty>  (1) 
-0

>  <r_glide_ring_energy>  (1) 
0

>  <r_i_docking_score>  (1) 
-4.3571978047360931

>  <r_i_glide_ecoul>  (1) 
-0.55551373748380206

>  <r_i_glide_eff_state_penalty>  (1) 
-0

>  <r_i_glide_einternal>  (1) 
0

>  <r_i_glide_emodel>  (1) 
-16.591380271081533

>  <r_i_glide_emodel_strain>  (1) 
7.1196382123162039e-12

>  <r_i_glide_energy>  (1) 
-12.817698540477547

>  <r_i_glide_erotb>  (1) 
0

>  <r_i_glide_esite>  (1) 
0

>  <r_i_glide_evdw>  (1) 
-12.262184802993746

>  <r_i_glide_gscore>  (1) 
-4.3571978047360931

>  <r_i_glide_gscore_strain>  (1) 
0

>  <r_i_glide_hbond>  (1) 
0

>  <r_i_glide_ligand_efficiency>  (1) 
-0.87143956094721864

>  <r_i_glide_ligand_efficiency_ln>  (1) 
-1.669784049650628

>  <r_i_glide_ligand_efficiency_sa>  (1) 
-1.4901406882022454

>  <r_i_glide_lipo>  (1) 
-1.174867590085424

>  <r_i_glide_metal>  (1) 
-0

>  <r_i_glide_rewards>  (1) 
-2.4858939138784106

>  <r_lp_Energy>  (1) 
-3.1771669999999999

>  <r_lp_tautomer_probability>  (1) 
1

>  <s_epik_cmdline>  (1) 
J2VwaWtfcHl0aG9uJywgJy1waHQnLCAnMS4wJywgJy1waCcsICc3LjQnLCAnLXRuJywgJzgnLCAnLW1hJywgJzUwMCcsICctaW1hZScsICc8aW5maWxlLm1hZT4nLCAnLW9tYWUnLCAnPG91dGZpbGUubWFlPic=

>  <s_epik_input>  (1) 
W0NIMl0xT1tDSF09W0NIXVtDSDJdMQ==

>  <s_glide_docking_method>  (1) 
confgen

>  <s_i_glide_gridfile>  (1) 
gpcr_drd2_6luq_protein_autoprepared_prepared

>  <s_lp_Force_Field>  (1) 
S-OPLS

>  <s_lp_Variant>  (1) 
Pocket2Mol_77_num_sample_100-1

>  <s_m_source_file>  (1) 
generated__ligand_Pocket2Mol_2026-05-06_prepared.sdf

>  <GenAI_Model>  (1) 
Pocket2Mol

>  <Protein>  (1) 
generic_title2

$$$$
Pocket2Mol_14_num_sample_100
     RDKit          3D

  0  0  0  0  0  0  0  0  0  0999 V3000
M  V30 BEGIN CTAB
M  V30 COUNTS 17 17 0 0 1
M  V30 BEGIN ATOM
M  V30 1 C 11.787844 8.335779 -9.019385 0
M  V30 2 O 11.810854 8.638699 -7.628728 0
M  V30 3 C 11.389874 7.565008 -6.786457 0
M  V30 4 C 9.970446 7.083729 -7.132980 0 CFG=1
M  V30 5 O 9.034839 8.045645 -6.691807 0
M  V30 6 C 10.359249 7.980539 -9.456173 0
M  V30 7 C 9.834839 6.798820 -8.633520 0
M  V30 8 H 12.144020 9.205023 -9.573186 0
M  V30 9 H 12.475137 7.517572 -9.236586 0
M  V30 10 H 11.443539 7.878952 -5.743491 0
M  V30 11 H 12.089345 6.735986 -6.902903 0
M  V30 12 H 9.757496 6.169303 -6.577833 0
M  V30 13 H 8.162342 7.768962 -6.961598 0
M  V30 14 H 9.704937 8.842791 -9.318854 0
M  V30 15 H 10.336672 7.738321 -10.518808 0
M  V30 16 H 10.412435 5.907703 -8.879191 0
M  V30 17 H 8.800570 6.569330 -8.892507 0
M  V30 END ATOM
M  V30 BEGIN BOND
M  V30 1 1 2 1
M  V30 2 1 3 2
M  V30 3 1 4 3
M  V30 4 1 5 4
M  V30 5 1 6 1
M  V30 6 1 7 4
M  V30 7 1 7 6
M  V30 8 1 8 1
M  V30 9 1 9 1
M  V30 10 1 10 3
M  V30 11 1 11 3
M  V30 12 1 4 12 CFG=1
M  V30 13 1 13 5
M  V30 14 1 14 6
M  V30 15 1 15 6
M  V30 16 1 16 7
M  V30 17 1 17 7
M  V30 END BOND
M  V30 END CTAB
M  END
>  <i_epik_Tot_Q>  (1) 
0

>  <i_epik_Tot_abs_Q>  (1) 
0

>  <i_i_glide_confnum>  (1) 
2

>  <i_i_glide_lignum>  (1) 
17

>  <i_i_glide_posenum>  (1) 
110

>  <i_i_glide_rotatable_bonds>  (1) 
1

>  <i_lp_mmshare_version>  (1) 
72125

>  <i_m_source_file_index>  (1) 
15

>  <i_f3d_flags>  (1) 
0

>  <num_sample>  (1) 
100

>  <b_lp_Chiralities_Consistent>  (1) 
1

>  <r_epik_Charging_Adjusted_Penalty>  (1) 
0

>  <r_epik_Ionization_Penalty>  (1) 
4.2263924331700322e-08

>  <r_epik_Ionization_Penalty_Charging>  (1) 
0

>  <r_epik_Ionization_Penalty_Neutral>  (1) 
4.2263924331700322e-08

>  <r_epik_State_Penalty>  (1) 
-0

>  <r_glide_ring_energy>  (1) 
0.68055942654544588

>  <r_i_docking_score>  (1) 
-4.3568439066521716

>  <r_i_glide_ecoul>  (1) 
-2.6942795821248642

>  <r_i_glide_eff_state_penalty>  (1) 
-0

>  <r_i_glide_einternal>  (1) 
0.34896583525063368

>  <r_i_glide_emodel>  (1) 
-23.583069771938156

>  <r_i_glide_emodel_strain>  (1) 
0

>  <r_i_glide_energy>  (1) 
-17.984640750651565

>  <r_i_glide_erotb>  (1) 
0

>  <r_i_glide_esite>  (1) 
0

>  <r_i_glide_evdw>  (1) 
-15.290361168526699

>  <r_i_glide_gscore>  (1) 
-4.3568439066521716

>  <r_i_glide_gscore_strain>  (1) 
0

>  <r_i_glide_hbond>  (1) 
-0.16

>  <r_i_glide_ligand_efficiency>  (1) 
-0.62240627237888169

>  <r_i_glide_ligand_efficiency_ln>  (1) 
-1.4789466365935542

>  <r_i_glide_ligand_efficiency_sa>  (1) 
-1.1906203667866879

>  <r_i_glide_lipo>  (1) 
-0.4870230115343489

>  <r_i_glide_metal>  (1) 
-0

>  <r_i_glide_rewards>  (1) 
-2.5411608993727577

>  <r_lp_Energy>  (1) 
6.7642049999999996

>  <r_lp_tautomer_probability>  (1) 
1

>  <s_epik_cmdline>  (1) 
J2VwaWtfcHl0aG9uJywgJy1waHQnLCAnMS4wJywgJy1waCcsICc3LjQnLCAnLXRuJywgJzgnLCAnLW1hJywgJzUwMCcsICctaW1hZScsICc8aW5maWxlLm1hZT4nLCAnLW9tYWUnLCAnPG91dGZpbGUubWFlPic=

>  <s_epik_input>  (1) 
W0NIMl0xW0NIMl1bQ0gyXU9bQ0gyXVtDQEhdMVtPSF0=

>  <s_glide_docking_method>  (1) 
confgen

>  <s_i_glide_gridfile>  (1) 
gpcr_drd2_6luq_protein_autoprepared_prepared

>  <s_lp_Force_Field>  (1) 
S-OPLS

>  <s_lp_Variant>  (1) 
Pocket2Mol_14_num_sample_100-1

>  <s_m_source_file>  (1) 
generated__ligand_Pocket2Mol_2026-05-06_prepared.sdf

>  <GenAI_Model>  (1) 
Pocket2Mol

>  <Protein>  (1) 
generic_title2

$$$$
Pocket2Mol_25_num_sample_100
     RDKit          3D

  0  0  0  0  0  0  0  0  0  0999 V3000
M  V30 BEGIN CTAB
M  V30 COUNTS 15 15 0 0 1
M  V30 BEGIN ATOM
M  V30 1 N 7.869207 6.169241 -11.091667 0 CHG=1
M  V30 2 C 7.303662 4.973777 -11.456167 0
M  V30 3 C 8.225037 4.329424 -12.270911 0
M  V30 4 C 9.068160 6.276904 -11.637486 0
M  V30 5 C 8.188316 3.010559 -12.965758 0
M  V30 6 N 9.898675 7.307199 -11.491676 0
M  V30 7 N 9.304790 5.183151 -12.350970 0
M  V30 8 H 6.320722 4.673809 -11.120303 0
M  V30 9 H 7.269348 2.477574 -12.720248 0
M  V30 10 H 8.229689 3.150179 -14.046152 0
M  V30 11 H 9.034863 2.395320 -12.658550 0
M  V30 12 H 9.663518 8.114807 -10.930265 0
M  V30 13 H 10.806028 7.338291 -11.933176 0
M  V30 14 H 10.155522 5.002687 -12.872972 0
M  V30 15 H 7.434843 6.872755 -10.470063 0
M  V30 END ATOM
M  V30 BEGIN BOND
M  V30 1 1 2 1
M  V30 2 2 3 2
M  V30 3 2 4 1
M  V30 4 1 5 3
M  V30 5 1 6 4
M  V30 6 1 7 3
M  V30 7 1 7 4
M  V30 8 1 8 2
M  V30 9 1 9 5
M  V30 10 1 10 5
M  V30 11 1 11 5
M  V30 12 1 12 6
M  V30 13 1 13 6
M  V30 14 1 14 7
M  V30 15 1 15 1
M  V30 END BOND
M  V30 END CTAB
M  END
>  <i_epik_Tot_Q>  (1) 
1

>  <i_epik_Tot_abs_Q>  (1) 
1

>  <i_i_glide_confnum>  (1) 
1

>  <i_i_glide_lignum>  (1) 
29

>  <i_i_glide_posenum>  (1) 
367

>  <i_i_glide_rotatable_bonds>  (1) 
0

>  <i_lp_mmshare_version>  (1) 
72125

>  <i_m_source_file_index>  (1) 
26

>  <i_f3d_flags>  (1) 
0

>  <num_sample>  (1) 
100

>  <b_lp_Chiralities_Consistent>  (1) 
1

>  <r_epik_Charging_Adjusted_Penalty>  (1) 
0.028937443406262361

>  <r_epik_Ionization_Penalty>  (1) 
0.025358402846536118

>  <r_epik_Ionization_Penalty_Charging>  (1) 
0

>  <r_epik_Ionization_Penalty_Neutral>  (1) 
0.025358402846536118

>  <r_epik_State_Penalty>  (1) 
0.028937443406262361

>  <r_glide_ring_energy>  (1) 
0

>  <r_i_docking_score>  (1) 
-4.3513025604334201

>  <r_i_glide_ecoul>  (1) 
-7.6043617683379638

>  <r_i_glide_eff_state_penalty>  (1) 
0.028937443406262361

>  <r_i_glide_einternal>  (1) 
0

>  <r_i_glide_emodel>  (1) 
-23.147194782612292

>  <r_i_glide_emodel_strain>  (1) 
0

>  <r_i_glide_energy>  (1) 
-14.543171217819367

>  <r_i_glide_erotb>  (1) 
0

>  <r_i_glide_esite>  (1) 
-0.16435311337991459

>  <r_i_glide_evdw>  (1) 
-6.9388094494814023

>  <r_i_glide_gscore>  (1) 
-4.380240003839682

>  <r_i_glide_gscore_strain>  (1) 
0

>  <r_i_glide_hbond>  (1) 
-0.19378311276314325

>  <r_i_glide_ligand_efficiency>  (1) 
-0.62161465149048856

>  <r_i_glide_ligand_efficiency_ln>  (1) 
-1.4770656063046539

>  <r_i_glide_ligand_efficiency_sa>  (1) 
-1.1891060505043469

>  <r_i_glide_lipo>  (1) 
-0.2845090399718595

>  <r_i_glide_metal>  (1) 
-0

>  <r_i_glide_rewards>  (1) 
-2.25

>  <r_lp_Energy>  (1) 
-0.73901799999999995

>  <r_lp_tautomer_probability>  (1) 
0.99999998112300037

>  <s_epik_cmdline>  (1) 
J2VwaWtfcHl0aG9uJywgJy1waHQnLCAnMS4wJywgJy1waCcsICc3LjQnLCAnLXRuJywgJzgnLCAnLW1hJywgJzUwMCcsICctaW1hZScsICc8aW5maWxlLm1hZT4nLCAnLW9tYWUnLCAnPG91dGZpbGUubWFlPic=

>  <s_epik_input>  (1) 
W05IMl1jKFtuSF0xKW5bY0hdYzFbQ0gzXQ==

>  <s_glide_docking_method>  (1) 
confgen

>  <s_i_glide_gridfile>  (1) 
gpcr_drd2_6luq_protein_autoprepared_prepared

>  <s_lp_Force_Field>  (1) 
S-OPLS

>  <s_lp_Variant>  (1) 
Pocket2Mol_25_num_sample_100-1

>  <s_m_source_file>  (1) 
generated__ligand_Pocket2Mol_2026-05-06_prepared.sdf

>  <GenAI_Model>  (1) 
Pocket2Mol

>  <Protein>  (1) 
generic_title2

$$$$
Pocket2Mol_25_num_sample_100
     RDKit          3D

  0  0  0  0  0  0  0  0  0  0999 V3000
M  V30 BEGIN CTAB
M  V30 COUNTS 15 15 0 0 1
M  V30 BEGIN ATOM
M  V30 1 N 11.479946 8.002415 -8.443190 0 CHG=1
M  V30 2 C 11.512722 7.991909 -9.814154 0
M  V30 3 C 10.203980 7.927617 -10.247632 0
M  V30 4 C 10.216927 7.947713 -8.032558 0
M  V30 5 C 9.617395 7.888754 -11.616051 0
M  V30 6 N 9.805348 7.940229 -6.761790 0
M  V30 7 N 9.446044 7.902512 -9.107934 0
M  V30 8 H 12.436067 8.029613 -10.371523 0
M  V30 9 H 10.405068 7.917768 -12.369059 0
M  V30 10 H 9.040984 6.973888 -11.755737 0
M  V30 11 H 8.959464 8.744336 -11.771270 0
M  V30 12 H 10.445371 7.976206 -5.981761 0
M  V30 13 H 8.828146 7.897091 -6.506733 0
M  V30 14 H 8.418157 7.854939 -9.091679 0
M  V30 15 H 12.292704 8.045072 -7.839769 0
M  V30 END ATOM
M  V30 BEGIN BOND
M  V30 1 1 2 1
M  V30 2 2 3 2
M  V30 3 2 4 1
M  V30 4 1 5 3
M  V30 5 1 6 4
M  V30 6 1 7 3
M  V30 7 1 7 4
M  V30 8 1 8 2
M  V30 9 1 9 5
M  V30 10 1 10 5
M  V30 11 1 11 5
M  V30 12 1 12 6
M  V30 13 1 13 6
M  V30 14 1 14 7
M  V30 15 1 15 1
M  V30 END BOND
M  V30 END CTAB
M  END
>  <i_epik_Tot_Q>  (1) 
1

>  <i_epik_Tot_abs_Q>  (1) 
1

>  <i_i_glide_confnum>  (1) 
1

>  <i_i_glide_lignum>  (1) 
29

>  <i_i_glide_posenum>  (1) 
374

>  <i_i_glide_rotatable_bonds>  (1) 
0

>  <i_lp_mmshare_version>  (1) 
72125

>  <i_m_source_file_index>  (1) 
26

>  <i_f3d_flags>  (1) 
0

>  <num_sample>  (1) 
100

>  <b_lp_Chiralities_Consistent>  (1) 
1

>  <r_epik_Charging_Adjusted_Penalty>  (1) 
0.028937443406262361

>  <r_epik_Ionization_Penalty>  (1) 
0.025358402846536118

>  <r_epik_Ionization_Penalty_Charging>  (1) 
0

>  <r_epik_Ionization_Penalty_Neutral>  (1) 
0.025358402846536118

>  <r_epik_State_Penalty>  (1) 
0.028937443406262361

>  <r_glide_ring_energy>  (1) 
0

>  <r_i_docking_score>  (1) 
-4.3510619933395738

>  <r_i_glide_ecoul>  (1) 
-8.1137776906556454

>  <r_i_glide_eff_state_penalty>  (1) 
0.028937443406262361

>  <r_i_glide_einternal>  (1) 
0

>  <r_i_glide_emodel>  (1) 
-23.803825255154699

>  <r_i_glide_emodel_strain>  (1) 
0

>  <r_i_glide_energy>  (1) 
-15.200274231807574

>  <r_i_glide_erotb>  (1) 
0

>  <r_i_glide_esite>  (1) 
-0.16571950384196074

>  <r_i_glide_evdw>  (1) 
-7.086496541151929

>  <r_i_glide_gscore>  (1) 
-4.3799994367458357

>  <r_i_glide_gscore_strain>  (1) 
0

>  <r_i_glide_hbond>  (1) 
-0.18264058155028745

>  <r_i_glide_ligand_efficiency>  (1) 
-0.62158028476279625

>  <r_i_glide_ligand_efficiency_ln>  (1) 
-1.4769839449227129

>  <r_i_glide_ligand_efficiency_sa>  (1) 
-1.1890403093192943

>  <r_i_glide_lipo>  (1) 
-0.21024787069764414

>  <r_i_glide_metal>  (1) 
-0

>  <r_i_glide_rewards>  (1) 
-2.25

>  <r_lp_Energy>  (1) 
-0.73901799999999995

>  <r_lp_tautomer_probability>  (1) 
0.99999998112300037

>  <s_epik_cmdline>  (1) 
J2VwaWtfcHl0aG9uJywgJy1waHQnLCAnMS4wJywgJy1waCcsICc3LjQnLCAnLXRuJywgJzgnLCAnLW1hJywgJzUwMCcsICctaW1hZScsICc8aW5maWxlLm1hZT4nLCAnLW9tYWUnLCAnPG91dGZpbGUubWFlPic=

>  <s_epik_input>  (1) 
W05IMl1jKFtuSF0xKW5bY0hdYzFbQ0gzXQ==

>  <s_glide_docking_method>  (1) 
confgen

>  <s_i_glide_gridfile>  (1) 
gpcr_drd2_6luq_protein_autoprepared_prepared

>  <s_lp_Force_Field>  (1) 
S-OPLS

>  <s_lp_Variant>  (1) 
Pocket2Mol_25_num_sample_100-1

>  <s_m_source_file>  (1) 
generated__ligand_Pocket2Mol_2026-05-06_prepared.sdf

>  <GenAI_Model>  (1) 
Pocket2Mol

>  <Protein>  (1) 
generic_title2

$$$$
Pocket2Mol_33_num_sample_100
     RDKit          3D

  0  0  0  0  0  0  0  0  0  0999 V3000
M  V30 BEGIN CTAB
M  V30 COUNTS 12 12 0 0 1
M  V30 BEGIN ATOM
M  V30 1 N 11.434789 7.975503 -5.018581 0
M  V30 2 C 11.898591 8.969000 -4.291594 0
M  V30 3 C 12.302314 8.599733 -3.129069 0
M  V30 4 C 12.144159 7.115352 -2.850308 0
M  V30 5 C 11.434845 6.691285 -4.291670 0
M  V30 6 H 11.889299 9.962600 -4.716505 0
M  V30 7 H 13.108514 6.633968 -2.691695 0
M  V30 8 H 11.490870 6.935208 -1.996048 0
M  V30 9 H 12.009149 5.938767 -4.831508 0
M  V30 10 H 10.417586 6.322498 -4.155221 0
M  V30 11 H 12.711777 9.269603 -2.386131 0
M  V30 12 H 10.879002 8.108462 -5.853411 0
M  V30 END ATOM
M  V30 BEGIN BOND
M  V30 1 1 2 1
M  V30 2 2 3 2
M  V30 3 1 4 3
M  V30 4 1 5 1
M  V30 5 1 5 4
M  V30 6 1 6 2
M  V30 7 1 7 4
M  V30 8 1 8 4
M  V30 9 1 9 5
M  V30 10 1 10 5
M  V30 11 1 11 3
M  V30 12 1 12 1
M  V30 END BOND
M  V30 END CTAB
M  END
>  <i_epik_Tot_Q>  (1) 
0

>  <i_epik_Tot_abs_Q>  (1) 
0

>  <i_i_glide_confnum>  (1) 
1

>  <i_i_glide_lignum>  (1) 
37

>  <i_i_glide_posenum>  (1) 
49

>  <i_i_glide_rotatable_bonds>  (1) 
0

>  <i_lp_mmshare_version>  (1) 
72125

>  <i_m_source_file_index>  (1) 
34

>  <i_f3d_flags>  (1) 
0

>  <num_sample>  (1) 
100

>  <b_lp_Chiralities_Consistent>  (1) 
1

>  <r_epik_Charging_Adjusted_Penalty>  (1) 
1.6042444336516156e-06

>  <r_epik_Ionization_Penalty>  (1) 
0.0023556498582944039

>  <r_epik_Ionization_Penalty_Charging>  (1) 
1.6042444336516156e-06

>  <r_epik_Ionization_Penalty_Neutral>  (1) 
0.0023540456138607521

>  <r_epik_State_Penalty>  (1) 
-0

>  <r_glide_ring_energy>  (1) 
0

>  <r_i_docking_score>  (1) 
-4.3492726410395743

>  <r_i_glide_ecoul>  (1) 
-1.3332355808756662

>  <r_i_glide_eff_state_penalty>  (1) 
-0

>  <r_i_glide_einternal>  (1) 
0

>  <r_i_glide_emodel>  (1) 
-18.171635488345082

>  <r_i_glide_emodel_strain>  (1) 
0

>  <r_i_glide_energy>  (1) 
-13.823598719322538

>  <r_i_glide_erotb>  (1) 
0

>  <r_i_glide_esite>  (1) 
0

>  <r_i_glide_evdw>  (1) 
-12.490363138446872

>  <r_i_glide_gscore>  (1) 
-4.3492726410395743

>  <r_i_glide_gscore_strain>  (1) 
0

>  <r_i_glide_hbond>  (1) 
0

>  <r_i_glide_ligand_efficiency>  (1) 
-0.86985452820791487

>  <r_i_glide_ligand_efficiency_ln>  (1) 
-1.6667469343934476

>  <r_i_glide_ligand_efficiency_sa>  (1) 
-1.4874303203433408

>  <r_i_glide_lipo>  (1) 
-1.2747691469858802

>  <r_i_glide_metal>  (1) 
-0

>  <r_i_glide_rewards>  (1) 
-2.25

>  <r_lp_Energy>  (1) 
2.9163329999999998

>  <r_lp_tautomer_probability>  (1) 
1

>  <s_epik_Chemistry_Notes>  (1) 
This compound has an imine and may undergo hydrolysis.

>  <s_epik_cmdline>  (1) 
J2VwaWtfcHl0aG9uJywgJy1waHQnLCAnMS4wJywgJy1waCcsICc3LjQnLCAnLXRuJywgJzgnLCAnLW1hJywgJzUwMCcsICctaW1hZScsICc8aW5maWxlLm1hZT4nLCAnLW9tYWUnLCAnPG91dGZpbGUubWFlPic=

>  <s_epik_input>  (1) 
W05IXTFbQ0hdPVtDSF1bQ0gyXVtDSDJdMQ==

>  <s_glide_docking_method>  (1) 
confgen

>  <s_i_glide_gridfile>  (1) 
gpcr_drd2_6luq_protein_autoprepared_prepared

>  <s_lp_Force_Field>  (1) 
S-OPLS

>  <s_lp_Variant>  (1) 
Pocket2Mol_33_num_sample_100-1

>  <s_m_source_file>  (1) 
generated__ligand_Pocket2Mol_2026-05-06_prepared.sdf

>  <GenAI_Model>  (1) 
Pocket2Mol

>  <Protein>  (1) 
generic_title2

$$$$
Pocket2Mol_29_num_sample_100
     RDKit          3D

  0  0  0  0  0  0  0  0  0  0999 V3000
M  V30 BEGIN CTAB
M  V30 COUNTS 18 18 0 0 1
M  V30 BEGIN ATOM
M  V30 1 C 10.660973 7.837200 -6.461687 0
M  V30 2 O 11.135437 8.423337 -7.668076 0
M  V30 3 C 10.185148 8.561497 -8.710066 0
M  V30 4 C 10.153466 7.283069 -9.560414 0
M  V30 5 O 9.434613 7.592817 -10.731855 0
M  V30 6 C 9.638681 6.699685 -6.624463 0
M  V30 7 C 9.490150 6.060193 -8.895309 0
M  V30 8 O 10.041082 5.769773 -7.618834 0
M  V30 9 H 11.532427 7.467323 -5.923544 0
M  V30 10 H 10.225320 8.619542 -5.839782 0
M  V30 11 H 10.544410 9.369663 -9.343892 0
M  V30 12 H 9.197840 8.856408 -8.348044 0
M  V30 13 H 11.173721 7.028218 -9.847825 0
M  V30 14 H 8.530000 7.764526 -10.467144 0
M  V30 15 H 9.572648 6.170544 -5.674365 0
M  V30 16 H 8.634682 7.088219 -6.805302 0
M  V30 17 H 8.407675 6.169302 -8.818483 0
M  V30 18 H 9.650945 5.187063 -9.527977 0
M  V30 END ATOM
M  V30 BEGIN BOND
M  V30 1 1 2 1
M  V30 2 1 3 2
M  V30 3 1 4 3
M  V30 4 1 5 4
M  V30 5 1 6 1
M  V30 6 1 7 4
M  V30 7 1 8 6
M  V30 8 1 8 7
M  V30 9 1 9 1
M  V30 10 1 10 1
M  V30 11 1 11 3
M  V30 12 1 12 3
M  V30 13 1 13 4
M  V30 14 1 14 5
M  V30 15 1 15 6
M  V30 16 1 16 6
M  V30 17 1 17 7
M  V30 18 1 18 7
M  V30 END BOND
M  V30 END CTAB
M  END
>  <i_epik_Tot_Q>  (1) 
0

>  <i_epik_Tot_abs_Q>  (1) 
0

>  <i_i_glide_confnum>  (1) 
1

>  <i_i_glide_lignum>  (1) 
33

>  <i_i_glide_posenum>  (1) 
208

>  <i_i_glide_rotatable_bonds>  (1) 
1

>  <i_lp_mmshare_version>  (1) 
72125

>  <i_m_source_file_index>  (1) 
30

>  <i_f3d_flags>  (1) 
0

>  <num_sample>  (1) 
100

>  <b_lp_Chiralities_Consistent>  (1) 
1

>  <r_epik_Charging_Adjusted_Penalty>  (1) 
0

>  <r_epik_Ionization_Penalty>  (1) 
1.4561355789117501e-07

>  <r_epik_Ionization_Penalty_Charging>  (1) 
0

>  <r_epik_Ionization_Penalty_Neutral>  (1) 
1.4561355789117501e-07

>  <r_epik_State_Penalty>  (1) 
-0

>  <r_glide_ring_energy>  (1) 
0

>  <r_i_docking_score>  (1) 
-4.3477566659619802

>  <r_i_glide_ecoul>  (1) 
-4.1381363350263092

>  <r_i_glide_eff_state_penalty>  (1) 
-0

>  <r_i_glide_einternal>  (1) 
0.89552910074276393

>  <r_i_glide_emodel>  (1) 
-25.37568854478063

>  <r_i_glide_emodel_strain>  (1) 
0

>  <r_i_glide_energy>  (1) 
-19.578988398601464

>  <r_i_glide_erotb>  (1) 
0

>  <r_i_glide_esite>  (1) 
0

>  <r_i_glide_evdw>  (1) 
-15.440852063575155

>  <r_i_glide_gscore>  (1) 
-4.3477566659619802

>  <r_i_glide_gscore_strain>  (1) 
0

>  <r_i_glide_hbond>  (1) 
-0.16

>  <r_i_glide_ligand_efficiency>  (1) 
-0.54346958324524752

>  <r_i_glide_ligand_efficiency_ln>  (1) 
-1.4118653032102302

>  <r_i_glide_ligand_efficiency_sa>  (1) 
-1.0869391664904953

>  <r_i_glide_lipo>  (1) 
-0.20332694586260955

>  <r_i_glide_metal>  (1) 
-0

>  <r_i_glide_rewards>  (1) 
-2.5916666666666668

>  <r_lp_Energy>  (1) 
13.809562999999999

>  <r_lp_tautomer_probability>  (1) 
1

>  <s_epik_cmdline>  (1) 
J2VwaWtfcHl0aG9uJywgJy1waHQnLCAnMS4wJywgJy1waCcsICc3LjQnLCAnLXRuJywgJzgnLCAnLW1hJywgJzUwMCcsICctaW1hZScsICc8aW5maWxlLm1hZT4nLCAnLW9tYWUnLCAnPG91dGZpbGUubWFlPic=

>  <s_epik_input>  (1) 
W0NIMl0xT1tDSDJdW0NIMl1PW0NIMl1bQ0hdMVtPSF0=

>  <s_glide_docking_method>  (1) 
confgen

>  <s_i_glide_gridfile>  (1) 
gpcr_drd2_6luq_protein_autoprepared_prepared

>  <s_lp_Force_Field>  (1) 
S-OPLS

>  <s_lp_Variant>  (1) 
Pocket2Mol_29_num_sample_100-1

>  <s_m_source_file>  (1) 
generated__ligand_Pocket2Mol_2026-05-06_prepared.sdf

>  <GenAI_Model>  (1) 
Pocket2Mol

>  <Protein>  (1) 
generic_title2

$$$$
Pocket2Mol_19_num_sample_100
     RDKit          3D

  0  0  0  0  0  0  0  0  0  0999 V3000
M  V30 BEGIN CTAB
M  V30 COUNTS 14 14 0 0 1
M  V30 BEGIN ATOM
M  V30 1 N 12.292647 8.569302 -7.561189 0 CHG=1
M  V30 2 C 12.665921 8.371033 -8.843411 0
M  V30 3 C 11.720954 7.932112 -9.789384 0
M  V30 4 C 10.391920 7.710011 -9.374886 0
M  V30 5 N 9.434839 7.285500 -10.284927 0
M  V30 6 C 10.044549 7.926300 -8.023702 0
M  V30 7 C 11.034033 8.363260 -7.124426 0
M  V30 8 H 13.703568 8.569299 -9.072749 0
M  V30 9 H 12.009451 7.769301 -10.816483 0
M  V30 10 H 8.441568 7.369033 -10.030987 0
M  V30 11 H 9.627017 7.324544 -11.274230 0
M  V30 12 H 9.034839 7.758898 -7.684208 0
M  V30 13 H 10.856643 8.554324 -6.075488 0
M  V30 14 H 12.994534 8.889531 -6.893043 0
M  V30 END ATOM
M  V30 BEGIN BOND
M  V30 1 1 2 1
M  V30 2 2 3 2
M  V30 3 1 4 3
M  V30 4 1 5 4
M  V30 5 2 6 4
M  V30 6 2 7 1
M  V30 7 1 7 6
M  V30 8 1 8 2
M  V30 9 1 9 3
M  V30 10 1 10 5
M  V30 11 1 11 5
M  V30 12 1 12 6
M  V30 13 1 13 7
M  V30 14 1 14 1
M  V30 END BOND
M  V30 END CTAB
M  END
>  <i_epik_Tot_Q>  (1) 
1

>  <i_epik_Tot_abs_Q>  (1) 
1

>  <i_i_glide_confnum>  (1) 
1

>  <i_i_glide_lignum>  (1) 
22

>  <i_i_glide_posenum>  (1) 
294

>  <i_i_glide_rotatable_bonds>  (1) 
0

>  <i_lp_mmshare_version>  (1) 
72125

>  <i_m_source_file_index>  (1) 
20

>  <i_f3d_flags>  (1) 
0

>  <num_sample>  (1) 
100

>  <b_lp_Chiralities_Consistent>  (1) 
1

>  <r_epik_Charging_Adjusted_Penalty>  (1) 
0.023410508937706027

>  <r_epik_Ionization_Penalty>  (1) 
0.011711918016166721

>  <r_epik_Ionization_Penalty_Charging>  (1) 
0.011705254468853022

>  <r_epik_Ionization_Penalty_Neutral>  (1) 
6.6635473136990569e-06

>  <r_epik_State_Penalty>  (1) 
0.011705254468853005

>  <r_glide_ring_energy>  (1) 
0

>  <r_i_docking_score>  (1) 
-4.3475878159618775

>  <r_i_glide_ecoul>  (1) 
-4.1608158122975798

>  <r_i_glide_eff_state_penalty>  (1) 
0.011705254468853005

>  <r_i_glide_einternal>  (1) 
0

>  <r_i_glide_emodel>  (1) 
-24.175033968087522

>  <r_i_glide_emodel_strain>  (1) 
0

>  <r_i_glide_energy>  (1) 
-16.039609331565273

>  <r_i_glide_erotb>  (1) 
0

>  <r_i_glide_esite>  (1) 
-0.10000000000000001

>  <r_i_glide_evdw>  (1) 
-11.878793519267694

>  <r_i_glide_gscore>  (1) 
-4.3592930704307307

>  <r_i_glide_gscore_strain>  (1) 
0

>  <r_i_glide_hbond>  (1) 
-0.16

>  <r_i_glide_ligand_efficiency>  (1) 
-0.62108397370883961

>  <r_i_glide_ligand_efficiency_ln>  (1) 
-1.4758046226752877

>  <r_i_glide_ligand_efficiency_sa>  (1) 
-1.1880909004278262

>  <r_i_glide_lipo>  (1) 
-0.63123102262270869

>  <r_i_glide_metal>  (1) 
-0

>  <r_i_glide_rewards>  (1) 
-2.25

>  <r_lp_Energy>  (1) 
13.062742999999999

>  <r_lp_tautomer_probability>  (1) 
0.99999999993680011

>  <s_epik_cmdline>  (1) 
J2VwaWtfcHl0aG9uJywgJy1waHQnLCAnMS4wJywgJy1waCcsICc3LjQnLCAnLXRuJywgJzgnLCAnLW1hJywgJzUwMCcsICctaW1hZScsICc8aW5maWxlLm1hZT4nLCAnLW9tYWUnLCAnPG91dGZpbGUubWFlPic=

>  <s_epik_input>  (1) 
W2NIXTFbY0hdbltjSF1bY0hdYzFbTkgyXQ==

>  <s_glide_docking_method>  (1) 
confgen

>  <s_i_glide_gridfile>  (1) 
gpcr_drd2_6luq_protein_autoprepared_prepared

>  <s_lp_Force_Field>  (1) 
S-OPLS

>  <s_lp_Variant>  (1) 
Pocket2Mol_19_num_sample_100-1

>  <s_m_source_file>  (1) 
generated__ligand_Pocket2Mol_2026-05-06_prepared.sdf

>  <GenAI_Model>  (1) 
Pocket2Mol

>  <Protein>  (1) 
generic_title2

$$$$
Pocket2Mol_77_num_sample_100
     RDKit          3D

  0  0  0  0  0  0  0  0  0  0999 V3000
M  V30 BEGIN CTAB
M  V30 COUNTS 11 11 0 0 1
M  V30 BEGIN ATOM
M  V30 1 C 11.178713 9.081444 -5.732338 0
M  V30 2 O 11.570361 8.101459 -4.691941 0
M  V30 3 C 10.298370 8.400297 -6.888196 0
M  V30 4 C 10.380335 7.068219 -6.291675 0
M  V30 5 C 11.034839 6.969297 -5.179971 0
M  V30 6 H 12.084140 9.514231 -6.159672 0
M  V30 7 H 10.633865 9.901327 -5.263896 0
M  V30 8 H 10.764348 8.438436 -7.872990 0
M  V30 9 H 9.268889 8.759357 -6.924433 0
M  V30 10 H 9.906065 6.226384 -6.775524 0
M  V30 11 H 11.210868 6.087360 -4.580812 0
M  V30 END ATOM
M  V30 BEGIN BOND
M  V30 1 1 2 1
M  V30 2 1 3 1
M  V30 3 1 4 3
M  V30 4 1 5 2
M  V30 5 2 5 4
M  V30 6 1 6 1
M  V30 7 1 7 1
M  V30 8 1 8 3
M  V30 9 1 9 3
M  V30 10 1 10 4
M  V30 11 1 11 5
M  V30 END BOND
M  V30 END CTAB
M  END
>  <i_epik_Tot_Q>  (1) 
0

>  <i_epik_Tot_abs_Q>  (1) 
0

>  <i_i_glide_confnum>  (1) 
1

>  <i_i_glide_lignum>  (1) 
84

>  <i_i_glide_posenum>  (1) 
299

>  <i_i_glide_rotatable_bonds>  (1) 
0

>  <i_lp_mmshare_version>  (1) 
72125

>  <i_m_source_file_index>  (1) 
78

>  <i_f3d_flags>  (1) 
0

>  <num_sample>  (1) 
100

>  <b_lp_Chiralities_Consistent>  (1) 
1

>  <r_epik_Charging_Adjusted_Penalty>  (1) 
0

>  <r_epik_Ionization_Penalty>  (1) 
0

>  <r_epik_Ionization_Penalty_Charging>  (1) 
0

>  <r_epik_Ionization_Penalty_Neutral>  (1) 
0

>  <r_epik_State_Penalty>  (1) 
-0

>  <r_glide_ring_energy>  (1) 
0

>  <r_i_docking_score>  (1) 
-4.3456103557057864

>  <r_i_glide_ecoul>  (1) 
-0.70057797865222271

>  <r_i_glide_eff_state_penalty>  (1) 
-0

>  <r_i_glide_einternal>  (1) 
0

>  <r_i_glide_emodel>  (1) 
-16.395127877244452

>  <r_i_glide_emodel_strain>  (1) 
0

>  <r_i_glide_energy>  (1) 
-12.631481804106256

>  <r_i_glide_erotb>  (1) 
0

>  <r_i_glide_esite>  (1) 
0

>  <r_i_glide_evdw>  (1) 
-11.930903825454033

>  <r_i_glide_gscore>  (1) 
-4.3456103557057864

>  <r_i_glide_gscore_strain>  (1) 
0

>  <r_i_glide_hbond>  (1) 
0

>  <r_i_glide_ligand_efficiency>  (1) 
-0.86912207114115725

>  <r_i_glide_ligand_efficiency_ln>  (1) 
-1.6653434576844073

>  <r_i_glide_ligand_efficiency_sa>  (1) 
-1.486177836377212

>  <r_i_glide_lipo>  (1) 
-1.0776663599700773

>  <r_i_glide_metal>  (1) 
-0

>  <r_i_glide_rewards>  (1) 
-2.5663121076651736

>  <r_lp_Energy>  (1) 
-3.1771669999999999

>  <r_lp_tautomer_probability>  (1) 
1

>  <s_epik_cmdline>  (1) 
J2VwaWtfcHl0aG9uJywgJy1waHQnLCAnMS4wJywgJy1waCcsICc3LjQnLCAnLXRuJywgJzgnLCAnLW1hJywgJzUwMCcsICctaW1hZScsICc8aW5maWxlLm1hZT4nLCAnLW9tYWUnLCAnPG91dGZpbGUubWFlPic=

>  <s_epik_input>  (1) 
W0NIMl0xT1tDSF09W0NIXVtDSDJdMQ==

>  <s_glide_docking_method>  (1) 
confgen

>  <s_i_glide_gridfile>  (1) 
gpcr_drd2_6luq_protein_autoprepared_prepared

>  <s_lp_Force_Field>  (1) 
S-OPLS

>  <s_lp_Variant>  (1) 
Pocket2Mol_77_num_sample_100-1

>  <s_m_source_file>  (1) 
generated__ligand_Pocket2Mol_2026-05-06_prepared.sdf

>  <GenAI_Model>  (1) 
Pocket2Mol

>  <Protein>  (1) 
generic_title2

$$$$
Pocket2Mol_1_num_sample_100
     RDKit          3D

  0  0  0  0  0  0  0  0  0  0999 V3000
M  V30 BEGIN CTAB
M  V30 COUNTS 10 10 0 0 1
M  V30 BEGIN ATOM
M  V30 1 N 11.434842 8.330416 -5.091981 0
M  V30 2 C 11.034839 7.059063 -5.389625 0
M  V30 3 C 10.377661 6.937630 -6.501898 0
M  V30 4 C 10.956266 8.943462 -6.137894 0
M  V30 5 C 10.164709 8.169807 -7.267199 0
M  V30 6 H 11.275310 6.253929 -4.709325 0
M  V30 7 H 9.996123 5.994970 -6.867129 0
M  V30 8 H 11.073111 10.019497 -6.291605 0
M  V30 9 H 9.117101 8.467397 -7.331615 0
M  V30 10 H 10.677314 8.183552 -8.229023 0
M  V30 END ATOM
M  V30 BEGIN BOND
M  V30 1 1 2 1
M  V30 2 2 3 2
M  V30 3 2 4 1
M  V30 4 1 5 3
M  V30 5 1 5 4
M  V30 6 1 6 2
M  V30 7 1 7 3
M  V30 8 1 8 4
M  V30 9 1 9 5
M  V30 10 1 10 5
M  V30 END BOND
M  V30 END CTAB
M  END
>  <i_epik_Tot_Q>  (1) 
0

>  <i_epik_Tot_abs_Q>  (1) 
0

>  <i_i_glide_confnum>  (1) 
1

>  <i_i_glide_lignum>  (1) 
2

>  <i_i_glide_posenum>  (1) 
23

>  <i_i_glide_rotatable_bonds>  (1) 
0

>  <i_lp_mmshare_version>  (1) 
72125

>  <i_m_source_file_index>  (1) 
2

>  <i_f3d_flags>  (1) 
0

>  <num_sample>  (1) 
100

>  <b_lp_Chiralities_Consistent>  (1) 
1

>  <r_epik_Charging_Adjusted_Penalty>  (1) 
0

>  <r_epik_Ionization_Penalty>  (1) 
0

>  <r_epik_Ionization_Penalty_Charging>  (1) 
0

>  <r_epik_Ionization_Penalty_Neutral>  (1) 
0

>  <r_epik_State_Penalty>  (1) 
-0

>  <r_glide_ring_energy>  (1) 
0

>  <r_i_docking_score>  (1) 
-4.3416368275897899

>  <r_i_glide_ecoul>  (1) 
-0.98111825332467462

>  <r_i_glide_eff_state_penalty>  (1) 
-0

>  <r_i_glide_einternal>  (1) 
0

>  <r_i_glide_emodel>  (1) 
-17.951860747007753

>  <r_i_glide_emodel_strain>  (1) 
0

>  <r_i_glide_energy>  (1) 
-13.888139277647641

>  <r_i_glide_erotb>  (1) 
0

>  <r_i_glide_esite>  (1) 
0

>  <r_i_glide_evdw>  (1) 
-12.907021024322965

>  <r_i_glide_gscore>  (1) 
-4.3416368275897899

>  <r_i_glide_gscore_strain>  (1) 
0

>  <r_i_glide_hbond>  (1) 
0

>  <r_i_glide_ligand_efficiency>  (1) 
-0.86832736551795797

>  <r_i_glide_ligand_efficiency_ln>  (1) 
-1.6638207051800988

>  <r_i_glide_ligand_efficiency_sa>  (1) 
-1.4848189088768524

>  <r_i_glide_lipo>  (1) 
-0.56848169384116232

>  <r_i_glide_metal>  (1) 
-0

>  <r_i_glide_rewards>  (1) 
-2.9806363445337776

>  <r_lp_Energy>  (1) 
-2.9532909999999997

>  <r_lp_tautomer_probability>  (1) 
1

>  <s_epik_Chemistry_Notes>  (1) 
This compound has an imine and may undergo hydrolysis.

>  <s_epik_cmdline>  (1) 
J2VwaWtfcHl0aG9uJywgJy1waHQnLCAnMS4wJywgJy1waCcsICc3LjQnLCAnLXRuJywgJzgnLCAnLW1hJywgJzUwMCcsICctaW1hZScsICc8aW5maWxlLm1hZT4nLCAnLW9tYWUnLCAnPG91dGZpbGUubWFlPic=

>  <s_epik_input>  (1) 
TjE9W0NIXVtDSDJdW0NIXT1bQ0hdMQ==

>  <s_glide_docking_method>  (1) 
confgen

>  <s_i_glide_gridfile>  (1) 
gpcr_drd2_6luq_protein_autoprepared_prepared

>  <s_lp_Force_Field>  (1) 
S-OPLS

>  <s_lp_Variant>  (1) 
Pocket2Mol_1_num_sample_100-1

>  <s_m_source_file>  (1) 
generated__ligand_Pocket2Mol_2026-05-06_prepared.sdf

>  <GenAI_Model>  (1) 
Pocket2Mol

>  <Protein>  (1) 
generic_title2

$$$$
Pocket2Mol_22_num_sample_100
     RDKit          3D

  0  0  0  0  0  0  0  0  0  0999 V3000
M  V30 BEGIN CTAB
M  V30 COUNTS 9 9 0 0 1
M  V30 BEGIN ATOM
M  V30 1 C 12.315714 8.940436 -3.082195 0
M  V30 2 O 11.834839 8.176684 -4.108423 0
M  V30 3 C 11.834792 6.890992 -3.642592 0
M  V30 4 C 12.617513 8.169038 -1.997667 0
M  V30 5 C 12.302864 6.835273 -2.361378 0
M  V30 6 H 12.379466 9.995052 -3.287266 0
M  V30 7 H 11.475346 6.148722 -4.341172 0
M  V30 8 H 13.016254 8.523356 -1.058542 0
M  V30 9 H 12.407657 5.940511 -1.762387 0
M  V30 END ATOM
M  V30 BEGIN BOND
M  V30 1 1 2 1
M  V30 2 1 3 2
M  V30 3 2 4 1
M  V30 4 2 5 3
M  V30 5 1 5 4
M  V30 6 1 6 1
M  V30 7 1 7 3
M  V30 8 1 8 4
M  V30 9 1 9 5
M  V30 END BOND
M  V30 END CTAB
M  END
>  <i_epik_Tot_Q>  (1) 
0

>  <i_epik_Tot_abs_Q>  (1) 
0

>  <i_i_glide_confnum>  (1) 
1

>  <i_i_glide_lignum>  (1) 
26

>  <i_i_glide_posenum>  (1) 
100

>  <i_i_glide_rotatable_bonds>  (1) 
0

>  <i_lp_mmshare_version>  (1) 
72125

>  <i_m_source_file_index>  (1) 
23

>  <i_f3d_flags>  (1) 
0

>  <num_sample>  (1) 
100

>  <b_lp_Chiralities_Consistent>  (1) 
1

>  <r_epik_Charging_Adjusted_Penalty>  (1) 
0

>  <r_epik_Ionization_Penalty>  (1) 
0

>  <r_epik_Ionization_Penalty_Charging>  (1) 
0

>  <r_epik_Ionization_Penalty_Neutral>  (1) 
0

>  <r_epik_State_Penalty>  (1) 
-0

>  <r_glide_ring_energy>  (1) 
0

>  <r_i_docking_score>  (1) 
-4.3385663454107295

>  <r_i_glide_ecoul>  (1) 
-0.83752536529737809

>  <r_i_glide_eff_state_penalty>  (1) 
-0

>  <r_i_glide_einternal>  (1) 
0

>  <r_i_glide_emodel>  (1) 
-16.582226739164103

>  <r_i_glide_emodel_strain>  (1) 
0

>  <r_i_glide_energy>  (1) 
-13.178220515826238

>  <r_i_glide_erotb>  (1) 
0

>  <r_i_glide_esite>  (1) 
0

>  <r_i_glide_evdw>  (1) 
-12.340695150528861

>  <r_i_glide_gscore>  (1) 
-4.3385663454107295

>  <r_i_glide_gscore_strain>  (1) 
0

>  <r_i_glide_hbond>  (1) 
0

>  <r_i_glide_ligand_efficiency>  (1) 
-0.86771326908214585

>  <r_i_glide_ligand_efficiency_ln>  (1) 
-1.6626440218168237

>  <r_i_glide_ligand_efficiency_sa>  (1) 
-1.4837688187426739

>  <r_i_glide_lipo>  (1) 
-1.1890239849406556

>  <r_i_glide_metal>  (1) 
-0

>  <r_i_glide_rewards>  (1) 
-2.4068787981490236

>  <r_lp_Energy>  (1) 
2.5980879999999997

>  <r_lp_tautomer_probability>  (1) 
1

>  <s_epik_cmdline>  (1) 
J2VwaWtfcHl0aG9uJywgJy1waHQnLCAnMS4wJywgJy1waCcsICc3LjQnLCAnLXRuJywgJzgnLCAnLW1hJywgJzUwMCcsICctaW1hZScsICc8aW5maWxlLm1hZT4nLCAnLW9tYWUnLCAnPG91dGZpbGUubWFlPic=

>  <s_epik_input>  (1) 
W2NIXTFvW2NIXVtjSF1bY0hdMQ==

>  <s_glide_docking_method>  (1) 
confgen

>  <s_i_glide_gridfile>  (1) 
gpcr_drd2_6luq_protein_autoprepared_prepared

>  <s_lp_Force_Field>  (1) 
S-OPLS

>  <s_lp_Variant>  (1) 
Pocket2Mol_22_num_sample_100-1

>  <s_m_source_file>  (1) 
generated__ligand_Pocket2Mol_2026-05-06_prepared.sdf

>  <GenAI_Model>  (1) 
Pocket2Mol

>  <Protein>  (1) 
generic_title2

$$$$
Pocket2Mol_15_num_sample_100
     RDKit          3D

  0  0  0  0  0  0  0  0  0  0999 V3000
M  V30 BEGIN CTAB
M  V30 COUNTS 17 17 0 0 1
M  V30 BEGIN ATOM
M  V30 1 C 11.434839 8.672663 -7.067448 0
M  V30 2 O 11.152858 7.433397 -6.434246 0
M  V30 3 C 12.041958 8.496325 -8.474073 0
M  V30 4 O 11.434835 7.516833 -9.307851 0
M  V30 5 C 9.834681 6.963469 -6.691654 0
M  V30 6 C 10.023895 7.395701 -9.225346 0
M  V30 7 C 9.673142 6.400863 -8.110228 0
M  V30 8 H 10.551739 9.311945 -7.091630 0
M  V30 9 H 12.156664 9.206046 -6.448584 0
M  V30 10 H 12.012721 9.451247 -8.998605 0
M  V30 11 H 13.095329 8.229577 -8.385406 0
M  V30 12 H 9.624228 6.169304 -5.975231 0
M  V30 13 H 9.094344 7.741345 -6.495633 0
M  V30 14 H 9.677604 6.988732 -10.175612 0
M  V30 15 H 9.525320 8.358848 -9.102322 0
M  V30 16 H 10.275223 5.498773 -8.223683 0
M  V30 17 H 8.634697 6.091045 -8.235246 0
M  V30 END ATOM
M  V30 BEGIN BOND
M  V30 1 1 2 1
M  V30 2 1 3 1
M  V30 3 1 4 3
M  V30 4 1 5 2
M  V30 5 1 6 4
M  V30 6 1 7 5
M  V30 7 1 7 6
M  V30 8 1 8 1
M  V30 9 1 9 1
M  V30 10 1 10 3
M  V30 11 1 11 3
M  V30 12 1 12 5
M  V30 13 1 13 5
M  V30 14 1 14 6
M  V30 15 1 15 6
M  V30 16 1 16 7
M  V30 17 1 17 7
M  V30 END BOND
M  V30 END CTAB
M  END
>  <i_epik_Tot_Q>  (1) 
0

>  <i_epik_Tot_abs_Q>  (1) 
0

>  <i_i_glide_confnum>  (1) 
14

>  <i_i_glide_lignum>  (1) 
18

>  <i_i_glide_posenum>  (1) 
209

>  <i_i_glide_rotatable_bonds>  (1) 
0

>  <i_lp_mmshare_version>  (1) 
72125

>  <i_m_source_file_index>  (1) 
16

>  <i_f3d_flags>  (1) 
0

>  <num_sample>  (1) 
100

>  <b_lp_Chiralities_Consistent>  (1) 
1

>  <r_epik_Charging_Adjusted_Penalty>  (1) 
0

>  <r_epik_Ionization_Penalty>  (1) 
3.933197540425548e-12

>  <r_epik_Ionization_Penalty_Charging>  (1) 
0

>  <r_epik_Ionization_Penalty_Neutral>  (1) 
3.933197540425548e-12

>  <r_epik_State_Penalty>  (1) 
-0

>  <r_glide_ring_energy>  (1) 
0.0018681440481121299

>  <r_i_docking_score>  (1) 
-4.3312502020080821

>  <r_i_glide_ecoul>  (1) 
-1.1966581197126838

>  <r_i_glide_eff_state_penalty>  (1) 
-0

>  <r_i_glide_einternal>  (1) 
0

>  <r_i_glide_emodel>  (1) 
-21.378766893706409

>  <r_i_glide_emodel_strain>  (1) 
0

>  <r_i_glide_energy>  (1) 
-16.67791491018297

>  <r_i_glide_erotb>  (1) 
0

>  <r_i_glide_esite>  (1) 
0

>  <r_i_glide_evdw>  (1) 
-15.481256790470285

>  <r_i_glide_gscore>  (1) 
-4.3312502020080821

>  <r_i_glide_gscore_strain>  (1) 
0

>  <r_i_glide_hbond>  (1) 
0

>  <r_i_glide_ligand_efficiency>  (1) 
-0.61875002885829744

>  <r_i_glide_ligand_efficiency_ln>  (1) 
-1.470258759723889

>  <r_i_glide_ligand_efficiency_sa>  (1) 
-1.183626224544353

>  <r_i_glide_lipo>  (1) 
-0.59447746463229045

>  <r_i_glide_metal>  (1) 
-0

>  <r_i_glide_rewards>  (1) 
-2.7832111798953743

>  <r_lp_Energy>  (1) 
9.641

>  <r_lp_tautomer_probability>  (1) 
1

>  <s_epik_cmdline>  (1) 
J2VwaWtfcHl0aG9uJywgJy1waHQnLCAnMS4wJywgJy1waCcsICc3LjQnLCAnLXRuJywgJzgnLCAnLW1hJywgJzUwMCcsICctaW1hZScsICc8aW5maWxlLm1hZT4nLCAnLW9tYWUnLCAnPG91dGZpbGUubWFlPic=

>  <s_epik_input>  (1) 
W0NIMl0xT1tDSDJdW0NIMl1bQ0gyXU9bQ0gyXTE=

>  <s_glide_docking_method>  (1) 
confgen

>  <s_i_glide_gridfile>  (1) 
gpcr_drd2_6luq_protein_autoprepared_prepared

>  <s_lp_Force_Field>  (1) 
S-OPLS

>  <s_lp_Variant>  (1) 
Pocket2Mol_15_num_sample_100-1

>  <s_m_source_file>  (1) 
generated__ligand_Pocket2Mol_2026-05-06_prepared.sdf

>  <GenAI_Model>  (1) 
Pocket2Mol

>  <Protein>  (1) 
generic_title2

$$$$
Pocket2Mol_55_num_sample_100
     RDKit          3D

  0  0  0  0  0  0  0  0  0  0999 V3000
M  V30 BEGIN CTAB
M  V30 COUNTS 13 13 0 0 1
M  V30 BEGIN ATOM
M  V30 1 O 11.834839 8.196533 -4.280592 0
M  V30 2 C 12.293165 8.986110 -3.186662 0
M  V30 3 C 12.209516 8.099502 -1.950594 0
M  V30 4 C 11.700380 6.831053 -3.892344 0
M  V30 5 C 12.379107 6.716155 -2.534280 0
M  V30 6 H 13.325973 9.281375 -3.375884 0
M  V30 7 H 11.698823 9.893530 -3.077289 0
M  V30 8 H 12.958699 8.348486 -1.198097 0
M  V30 9 H 11.224370 8.184059 -1.491675 0
M  V30 10 H 10.644186 6.569298 -3.820308 0
M  V30 11 H 12.143225 6.169295 -4.635873 0
M  V30 12 H 11.963415 5.923267 -1.911303 0
M  V30 13 H 13.434839 6.511782 -2.687584 0
M  V30 END ATOM
M  V30 BEGIN BOND
M  V30 1 1 2 1
M  V30 2 1 3 2
M  V30 3 1 4 1
M  V30 4 1 5 3
M  V30 5 1 5 4
M  V30 6 1 6 2
M  V30 7 1 7 2
M  V30 8 1 8 3
M  V30 9 1 9 3
M  V30 10 1 10 4
M  V30 11 1 11 4
M  V30 12 1 12 5
M  V30 13 1 13 5
M  V30 END BOND
M  V30 END CTAB
M  END
>  <i_epik_Tot_Q>  (1) 
0

>  <i_epik_Tot_abs_Q>  (1) 
0

>  <i_i_glide_confnum>  (1) 
3

>  <i_i_glide_lignum>  (1) 
62

>  <i_i_glide_posenum>  (1) 
317

>  <i_i_glide_rotatable_bonds>  (1) 
0

>  <i_lp_mmshare_version>  (1) 
72125

>  <i_m_source_file_index>  (1) 
56

>  <i_f3d_flags>  (1) 
0

>  <num_sample>  (1) 
100

>  <b_lp_Chiralities_Consistent>  (1) 
1

>  <r_epik_Charging_Adjusted_Penalty>  (1) 
0

>  <r_epik_Ionization_Penalty>  (1) 
1.3889264151150229e-11

>  <r_epik_Ionization_Penalty_Charging>  (1) 
0

>  <r_epik_Ionization_Penalty_Neutral>  (1) 
1.3889264151150229e-11

>  <r_epik_State_Penalty>  (1) 
-0

>  <r_glide_ring_energy>  (1) 
0.22161987042107956

>  <r_i_docking_score>  (1) 
-4.3307558117608451

>  <r_i_glide_ecoul>  (1) 
-0.76600679306812425

>  <r_i_glide_eff_state_penalty>  (1) 
-0

>  <r_i_glide_einternal>  (1) 
0

>  <r_i_glide_emodel>  (1) 
-17.212078035721007

>  <r_i_glide_emodel_strain>  (1) 
0

>  <r_i_glide_energy>  (1) 
-13.571269400859128

>  <r_i_glide_erotb>  (1) 
0

>  <r_i_glide_esite>  (1) 
0

>  <r_i_glide_evdw>  (1) 
-12.805262607791004

>  <r_i_glide_gscore>  (1) 
-4.3307558117608451

>  <r_i_glide_gscore_strain>  (1) 
0

>  <r_i_glide_hbond>  (1) 
0

>  <r_i_glide_ligand_efficiency>  (1) 
-0.86615116235216905

>  <r_i_glide_ligand_efficiency_ln>  (1) 
-1.65965083557826

>  <r_i_glide_ligand_efficiency_sa>  (1) 
-1.4810976538082716

>  <r_i_glide_lipo>  (1) 
-1.1843002198548251

>  <r_i_glide_metal>  (1) 
-0

>  <r_i_glide_rewards>  (1) 
-2.391291442556251

>  <r_lp_Energy>  (1) 
3.9173999999999998

>  <r_lp_tautomer_probability>  (1) 
1

>  <s_epik_cmdline>  (1) 
J2VwaWtfcHl0aG9uJywgJy1waHQnLCAnMS4wJywgJy1waCcsICc3LjQnLCAnLXRuJywgJzgnLCAnLW1hJywgJzUwMCcsICctaW1hZScsICc8aW5maWxlLm1hZT4nLCAnLW9tYWUnLCAnPG91dGZpbGUubWFlPic=

>  <s_epik_input>  (1) 
TzFbQ0gyXVtDSDJdW0NIMl1bQ0gyXTE=

>  <s_glide_docking_method>  (1) 
confgen

>  <s_i_glide_gridfile>  (1) 
gpcr_drd2_6luq_protein_autoprepared_prepared

>  <s_lp_Force_Field>  (1) 
S-OPLS

>  <s_lp_Variant>  (1) 
Pocket2Mol_55_num_sample_100-1

>  <s_m_source_file>  (1) 
generated__ligand_Pocket2Mol_2026-05-06_prepared.sdf

>  <GenAI_Model>  (1) 
Pocket2Mol

>  <Protein>  (1) 
generic_title2

$$$$
Pocket2Mol_33_num_sample_100
     RDKit          3D

  0  0  0  0  0  0  0  0  0  0999 V3000
M  V30 BEGIN CTAB
M  V30 COUNTS 12 12 0 0 1
M  V30 BEGIN ATOM
M  V30 1 N 11.434842 6.969413 -4.377556 0
M  V30 2 C 12.194789 7.434020 -3.405910 0
M  V30 3 C 12.425631 8.693107 -3.506174 0
M  V30 4 C 11.785695 9.353320 -4.716920 0
M  V30 5 C 11.079744 7.997752 -5.373918 0
M  V30 6 H 12.539806 6.743761 -2.649932 0
M  V30 7 H 11.051940 10.099922 -4.414525 0
M  V30 8 H 12.530713 9.800149 -5.376112 0
M  V30 9 H 10.000147 8.092703 -5.490245 0
M  V30 10 H 11.509878 7.749123 -6.343400 0
M  V30 11 H 13.026194 9.259877 -2.808172 0
M  V30 12 H 11.234821 5.988547 -4.522374 0
M  V30 END ATOM
M  V30 BEGIN BOND
M  V30 1 1 2 1
M  V30 2 2 3 2
M  V30 3 1 4 3
M  V30 4 1 5 1
M  V30 5 1 5 4
M  V30 6 1 6 2
M  V30 7 1 7 4
M  V30 8 1 8 4
M  V30 9 1 9 5
M  V30 10 1 10 5
M  V30 11 1 11 3
M  V30 12 1 12 1
M  V30 END BOND
M  V30 END CTAB
M  END
>  <i_epik_Tot_Q>  (1) 
0

>  <i_epik_Tot_abs_Q>  (1) 
0

>  <i_i_glide_confnum>  (1) 
1

>  <i_i_glide_lignum>  (1) 
37

>  <i_i_glide_posenum>  (1) 
212

>  <i_i_glide_rotatable_bonds>  (1) 
0

>  <i_lp_mmshare_version>  (1) 
72125

>  <i_m_source_file_index>  (1) 
34

>  <i_f3d_flags>  (1) 
0

>  <num_sample>  (1) 
100

>  <b_lp_Chiralities_Consistent>  (1) 
1

>  <r_epik_Charging_Adjusted_Penalty>  (1) 
1.6042444336516156e-06

>  <r_epik_Ionization_Penalty>  (1) 
0.0023556498582944039

>  <r_epik_Ionization_Penalty_Charging>  (1) 
1.6042444336516156e-06

>  <r_epik_Ionization_Penalty_Neutral>  (1) 
0.0023540456138607521

>  <r_epik_State_Penalty>  (1) 
-0

>  <r_glide_ring_energy>  (1) 
0

>  <r_i_docking_score>  (1) 
-4.3054337223296386

>  <r_i_glide_ecoul>  (1) 
-1.2504159005358511

>  <r_i_glide_eff_state_penalty>  (1) 
-0

>  <r_i_glide_einternal>  (1) 
0

>  <r_i_glide_emodel>  (1) 
-17.990823902539297

>  <r_i_glide_emodel_strain>  (1) 
0

>  <r_i_glide_energy>  (1) 
-13.686613595133892

>  <r_i_glide_erotb>  (1) 
0

>  <r_i_glide_esite>  (1) 
0

>  <r_i_glide_evdw>  (1) 
-12.436197694598041

>  <r_i_glide_gscore>  (1) 
-4.3054337223296386

>  <r_i_glide_gscore_strain>  (1) 
0

>  <r_i_glide_hbond>  (1) 
0

>  <r_i_glide_ligand_efficiency>  (1) 
-0.8610867444659277

>  <r_i_glide_ligand_efficiency_ln>  (1) 
-1.649946795750163

>  <r_i_glide_ligand_efficiency_sa>  (1) 
-1.4724376210388799

>  <r_i_glide_lipo>  (1) 
-1.2460614525193585

>  <r_i_glide_metal>  (1) 
-0

>  <r_i_glide_rewards>  (1) 
-2.25

>  <r_lp_Energy>  (1) 
2.9163329999999998

>  <r_lp_tautomer_probability>  (1) 
1

>  <s_epik_Chemistry_Notes>  (1) 
This compound has an imine and may undergo hydrolysis.

>  <s_epik_cmdline>  (1) 
J2VwaWtfcHl0aG9uJywgJy1waHQnLCAnMS4wJywgJy1waCcsICc3LjQnLCAnLXRuJywgJzgnLCAnLW1hJywgJzUwMCcsICctaW1hZScsICc8aW5maWxlLm1hZT4nLCAnLW9tYWUnLCAnPG91dGZpbGUubWFlPic=

>  <s_epik_input>  (1) 
W05IXTFbQ0hdPVtDSF1bQ0gyXVtDSDJdMQ==

>  <s_glide_docking_method>  (1) 
confgen

>  <s_i_glide_gridfile>  (1) 
gpcr_drd2_6luq_protein_autoprepared_prepared

>  <s_lp_Force_Field>  (1) 
S-OPLS

>  <s_lp_Variant>  (1) 
Pocket2Mol_33_num_sample_100-1

>  <s_m_source_file>  (1) 
generated__ligand_Pocket2Mol_2026-05-06_prepared.sdf

>  <GenAI_Model>  (1) 
Pocket2Mol

>  <Protein>  (1) 
generic_title2

$$$$
Pocket2Mol_6_num_sample_100
     RDKit          3D

  0  0  0  0  0  0  0  0  0  0999 V3000
M  V30 BEGIN CTAB
M  V30 COUNTS 14 14 0 0 1
M  V30 BEGIN ATOM
M  V30 1 C 11.274631 7.958737 -7.162478 0
M  V30 2 O 11.434823 9.369299 -7.095822 0
M  V30 3 C 10.632498 7.462937 -5.857776 0
M  V30 4 O 11.434830 7.859597 -4.750399 0
M  V30 5 C 12.234488 9.769341 -5.994501 0
M  V30 6 C 11.595140 9.272384 -4.691675 0
M  V30 7 H 10.638509 7.712653 -8.012803 0
M  V30 8 H 12.234870 7.473663 -7.333607 0
M  V30 9 H 9.623288 7.863953 -5.753471 0
M  V30 10 H 10.544888 6.376048 -5.864755 0
M  V30 11 H 13.251587 9.391984 -6.108360 0
M  V30 12 H 12.282569 10.857577 -5.991339 0
M  V30 13 H 12.225018 9.525379 -3.838757 0
M  V30 14 H 10.634884 9.762364 -4.533562 0
M  V30 END ATOM
M  V30 BEGIN BOND
M  V30 1 1 2 1
M  V30 2 1 3 1
M  V30 3 1 4 3
M  V30 4 1 5 2
M  V30 5 1 6 4
M  V30 6 1 6 5
M  V30 7 1 7 1
M  V30 8 1 8 1
M  V30 9 1 9 3
M  V30 10 1 10 3
M  V30 11 1 11 5
M  V30 12 1 12 5
M  V30 13 1 13 6
M  V30 14 1 14 6
M  V30 END BOND
M  V30 END CTAB
M  END
>  <i_epik_Tot_Q>  (1) 
0

>  <i_epik_Tot_abs_Q>  (1) 
0

>  <i_i_glide_confnum>  (1) 
1

>  <i_i_glide_lignum>  (1) 
7

>  <i_i_glide_posenum>  (1) 
320

>  <i_i_glide_rotatable_bonds>  (1) 
0

>  <i_lp_mmshare_version>  (1) 
72125

>  <i_m_source_file_index>  (1) 
7

>  <i_f3d_flags>  (1) 
0

>  <num_sample>  (1) 
100

>  <b_lp_Chiralities_Consistent>  (1) 
1

>  <r_epik_Charging_Adjusted_Penalty>  (1) 
0

>  <r_epik_Ionization_Penalty>  (1) 
8.3894707547109138e-13

>  <r_epik_Ionization_Penalty_Charging>  (1) 
0

>  <r_epik_Ionization_Penalty_Neutral>  (1) 
8.3894707547109138e-13

>  <r_epik_State_Penalty>  (1) 
-0

>  <r_glide_ring_energy>  (1) 
0

>  <r_i_docking_score>  (1) 
-4.3052470502040832

>  <r_i_glide_ecoul>  (1) 
-0.44650317183910959

>  <r_i_glide_eff_state_penalty>  (1) 
-0

>  <r_i_glide_einternal>  (1) 
0

>  <r_i_glide_emodel>  (1) 
-17.520533046880281

>  <r_i_glide_emodel_strain>  (1) 
0

>  <r_i_glide_energy>  (1) 
-13.625486313902506

>  <r_i_glide_erotb>  (1) 
0

>  <r_i_glide_esite>  (1) 
0

>  <r_i_glide_evdw>  (1) 
-13.178983142063396

>  <r_i_glide_gscore>  (1) 
-4.3052470502040832

>  <r_i_glide_gscore_strain>  (1) 
0

>  <r_i_glide_hbond>  (1) 
0

>  <r_i_glide_ligand_efficiency>  (1) 
-0.71754117503401382

>  <r_i_glide_ligand_efficiency_ln>  (1) 
-1.5421267833630812

>  <r_i_glide_ligand_efficiency_sa>  (1) 
-1.3038588453592774

>  <r_i_glide_lipo>  (1) 
-1.0709890839917133

>  <r_i_glide_metal>  (1) 
-0

>  <r_i_glide_rewards>  (1) 
-2.5083333333333333

>  <r_lp_Energy>  (1) 
4.9648199999999996

>  <r_lp_tautomer_probability>  (1) 
1

>  <s_epik_cmdline>  (1) 
J2VwaWtfcHl0aG9uJywgJy1waHQnLCAnMS4wJywgJy1waCcsICc3LjQnLCAnLXRuJywgJzgnLCAnLW1hJywgJzUwMCcsICctaW1hZScsICc8aW5maWxlLm1hZT4nLCAnLW9tYWUnLCAnPG91dGZpbGUubWFlPic=

>  <s_epik_input>  (1) 
W0NIMl0xT1tDSDJdW0NIMl1PW0NIMl0x

>  <s_glide_docking_method>  (1) 
confgen

>  <s_i_glide_gridfile>  (1) 
gpcr_drd2_6luq_protein_autoprepared_prepared

>  <s_lp_Force_Field>  (1) 
S-OPLS

>  <s_lp_Variant>  (1) 
Pocket2Mol_6_num_sample_100-1

>  <s_m_source_file>  (1) 
generated__ligand_Pocket2Mol_2026-05-06_prepared.sdf

>  <GenAI_Model>  (1) 
Pocket2Mol

>  <Protein>  (1) 
generic_title2

$$$$
Pocket2Mol_95_num_sample_100
     RDKit          3D

  0  0  0  0  0  0  0  0  0  0999 V3000
M  V30 BEGIN CTAB
M  V30 COUNTS 23 24 0 0 1
M  V30 BEGIN ATOM
M  V30 1 C 7.944594 5.053806 -9.635568 0
M  V30 2 O 8.434337 5.113172 -8.304086 0
M  V30 3 C 9.274835 6.169301 -8.022737 0
M  V30 4 C 9.108497 5.257971 -10.606125 0
M  V30 5 O 9.726420 6.522197 -10.386375 0
M  V30 6 C 9.926044 6.877334 -9.068240 0
M  V30 7 C 10.786182 7.954645 -8.754319 0
M  V30 8 O 11.411226 8.646182 -9.762743 0
M  V30 9 C 10.996181 8.319205 -7.402486 0
M  V30 10 O 11.826124 9.356442 -7.091667 0
M  V30 11 C 9.487873 6.547921 -6.685191 0
M  V30 12 C 10.346522 7.616095 -6.375680 0
M  V30 13 C 12.808140 8.426568 -9.855295 0
M  V30 14 H 7.148444 5.769301 -9.795210 0
M  V30 15 H 7.467889 4.093953 -9.802975 0
M  V30 16 H 8.754473 5.213503 -11.635993 0
M  V30 17 H 9.834839 4.456305 -10.485002 0
M  V30 18 H 12.144193 9.769301 -7.879826 0
M  V30 19 H 8.989193 6.015028 -5.891667 0
M  V30 20 H 10.505050 7.897640 -5.345547 0
M  V30 21 H 13.169646 8.758416 -10.828107 0
M  V30 22 H 13.363706 8.969300 -9.091975 0
M  V30 23 H 13.034843 7.369301 -9.756221 0
M  V30 END ATOM
M  V30 BEGIN BOND
M  V30 1 1 2 1
M  V30 2 1 3 2
M  V30 3 1 4 1
M  V30 4 1 5 4
M  V30 5 2 6 3
M  V30 6 1 6 5
M  V30 7 1 7 6
M  V30 8 1 8 7
M  V30 9 2 9 7
M  V30 10 1 10 9
M  V30 11 1 11 3
M  V30 12 1 12 9
M  V30 13 2 12 11
M  V30 14 1 13 8
M  V30 15 1 14 1
M  V30 16 1 15 1
M  V30 17 1 16 4
M  V30 18 1 17 4
M  V30 19 1 18 10
M  V30 20 1 19 11
M  V30 21 1 20 12
M  V30 22 1 21 13
M  V30 23 1 22 13
M  V30 24 1 23 13
M  V30 END BOND
M  V30 END CTAB
M  END
>  <i_epik_Tot_Q>  (1) 
0

>  <i_epik_Tot_abs_Q>  (1) 
0

>  <i_i_glide_confnum>  (1) 
2

>  <i_i_glide_lignum>  (1) 
104

>  <i_i_glide_posenum>  (1) 
96

>  <i_i_glide_rotatable_bonds>  (1) 
2

>  <i_lp_mmshare_version>  (1) 
72125

>  <i_m_source_file_index>  (1) 
96

>  <i_f3d_flags>  (1) 
0

>  <num_sample>  (1) 
100

>  <b_lp_Chiralities_Consistent>  (1) 
1

>  <r_epik_Charging_Adjusted_Penalty>  (1) 
0

>  <r_epik_Ionization_Penalty>  (1) 
0.0014130578134093086

>  <r_epik_Ionization_Penalty_Charging>  (1) 
0

>  <r_epik_Ionization_Penalty_Neutral>  (1) 
0.0014130578134093086

>  <r_epik_State_Penalty>  (1) 
-0

>  <r_glide_ring_energy>  (1) 
0.003085301398031638

>  <r_i_docking_score>  (1) 
-4.2923156685670527

>  <r_i_glide_ecoul>  (1) 
-0.70741615455277373

>  <r_i_glide_eff_state_penalty>  (1) 
-0

>  <r_i_glide_einternal>  (1) 
1.1813559391522075

>  <r_i_glide_emodel>  (1) 
-27.647631529514843

>  <r_i_glide_emodel_strain>  (1) 
0.16487235431758052

>  <r_i_glide_energy>  (1) 
-22.482674351023423

>  <r_i_glide_erotb>  (1) 
0

>  <r_i_glide_esite>  (1) 
0

>  <r_i_glide_evdw>  (1) 
-21.775258196470649

>  <r_i_glide_gscore>  (1) 
-4.2923156685670527

>  <r_i_glide_gscore_strain>  (1) 
0

>  <r_i_glide_hbond>  (1) 
0

>  <r_i_glide_ligand_efficiency>  (1) 
-0.33017812835131177

>  <r_i_glide_ligand_efficiency_ln>  (1) 
-1.2040327191698021

>  <r_i_glide_ligand_efficiency_sa>  (1) 
-0.77635928631915596

>  <r_i_glide_lipo>  (1) 
-0.47535053251208453

>  <r_i_glide_metal>  (1) 
-0

>  <r_i_glide_rewards>  (1) 
-2.62208980304852

>  <r_lp_Energy>  (1) 
25.525124999999999

>  <r_lp_tautomer_probability>  (1) 
1

>  <s_epik_cmdline>  (1) 
J2VwaWtfcHl0aG9uJywgJy1waHQnLCAnMS4wJywgJy1waCcsICc3LjQnLCAnLXRuJywgJzgnLCAnLW1hJywgJzUwMCcsICctaW1hZScsICc8aW5maWxlLm1hZT4nLCAnLW9tYWUnLCAnPG91dGZpbGUubWFlPic=

>  <s_epik_input>  (1) 
TzFbQ0gyXVtDSDJdT2MoYzEyKWMoT1tDSDNdKWMoW09IXSlbY0hdW2NIXTI=

>  <s_glide_docking_method>  (1) 
confgen

>  <s_i_glide_gridfile>  (1) 
gpcr_drd2_6luq_protein_autoprepared_prepared

>  <s_lp_Force_Field>  (1) 
S-OPLS

>  <s_lp_Variant>  (1) 
Pocket2Mol_95_num_sample_100-1

>  <s_m_source_file>  (1) 
generated__ligand_Pocket2Mol_2026-05-06_prepared.sdf

>  <GenAI_Model>  (1) 
Pocket2Mol

>  <Protein>  (1) 
generic_title2

$$$$
Pocket2Mol_12_num_sample_100
     RDKit          3D

  0  0  0  0  0  0  0  0  0  0999 V3000
M  V30 BEGIN CTAB
M  V30 COUNTS 14 14 0 0 1
M  V30 BEGIN ATOM
M  V30 1 O 10.595520 8.795959 -5.951164 0
M  V30 2 C 11.562445 8.918943 -6.875354 0
M  V30 3 C 9.577160 8.015207 -6.691667 0
M  V30 4 C 11.340666 8.372816 -8.030065 0
M  V30 5 C 12.297084 8.401524 -9.201737 0
M  V30 6 C 10.055989 7.686801 -8.182783 0
M  V30 7 H 12.433071 9.469379 -6.550005 0
M  V30 8 H 8.637549 8.570093 -6.705708 0
M  V30 9 H 9.384585 7.089092 -6.148681 0
M  V30 10 H 12.533651 7.387355 -9.522698 0
M  V30 11 H 11.848096 8.932860 -10.041205 0
M  V30 12 H 13.227661 8.905258 -8.938379 0
M  V30 13 H 9.433224 8.152219 -8.947113 0
M  V30 14 H 10.175575 6.619369 -8.370963 0
M  V30 END ATOM
M  V30 BEGIN BOND
M  V30 1 1 2 1
M  V30 2 1 3 1
M  V30 3 2 4 2
M  V30 4 1 5 4
M  V30 5 1 6 3
M  V30 6 1 6 4
M  V30 7 1 7 2
M  V30 8 1 8 3
M  V30 9 1 9 3
M  V30 10 1 10 5
M  V30 11 1 11 5
M  V30 12 1 12 5
M  V30 13 1 13 6
M  V30 14 1 14 6
M  V30 END BOND
M  V30 END CTAB
M  END
>  <i_epik_Tot_Q>  (1) 
0

>  <i_epik_Tot_abs_Q>  (1) 
0

>  <i_i_glide_confnum>  (1) 
1

>  <i_i_glide_lignum>  (1) 
15

>  <i_i_glide_posenum>  (1) 
251

>  <i_i_glide_rotatable_bonds>  (1) 
0

>  <i_lp_mmshare_version>  (1) 
72125

>  <i_m_source_file_index>  (1) 
13

>  <i_f3d_flags>  (1) 
0

>  <num_sample>  (1) 
100

>  <b_lp_Chiralities_Consistent>  (1) 
1

>  <r_epik_Charging_Adjusted_Penalty>  (1) 
0

>  <r_epik_Ionization_Penalty>  (1) 
0

>  <r_epik_Ionization_Penalty_Charging>  (1) 
0

>  <r_epik_Ionization_Penalty_Neutral>  (1) 
0

>  <r_epik_State_Penalty>  (1) 
-0

>  <r_glide_ring_energy>  (1) 
0

>  <r_i_docking_score>  (1) 
-4.2908392205575643

>  <r_i_glide_ecoul>  (1) 
-0.80882595201536511

>  <r_i_glide_eff_state_penalty>  (1) 
-0

>  <r_i_glide_einternal>  (1) 
0

>  <r_i_glide_emodel>  (1) 
-19.393525719312315

>  <r_i_glide_emodel_strain>  (1) 
0

>  <r_i_glide_energy>  (1) 
-15.20604517409088

>  <r_i_glide_erotb>  (1) 
0

>  <r_i_glide_esite>  (1) 
0

>  <r_i_glide_evdw>  (1) 
-14.397219222075515

>  <r_i_glide_gscore>  (1) 
-4.2908392205575643

>  <r_i_glide_gscore_strain>  (1) 
0

>  <r_i_glide_hbond>  (1) 
0

>  <r_i_glide_ligand_efficiency>  (1) 
-0.71513987009292734

>  <r_i_glide_ligand_efficiency_ln>  (1) 
-1.536965941318726

>  <r_i_glide_ligand_efficiency_sa>  (1) 
-1.2994953847011597

>  <r_i_glide_lipo>  (1) 
-0.77465436665148413

>  <r_i_glide_metal>  (1) 
-0

>  <r_i_glide_rewards>  (1) 
-2.6749999999999998

>  <r_lp_Energy>  (1) 
-7.9393969999999996

>  <r_lp_tautomer_probability>  (1) 
1

>  <s_epik_cmdline>  (1) 
J2VwaWtfcHl0aG9uJywgJy1waHQnLCAnMS4wJywgJy1waCcsICc3LjQnLCAnLXRuJywgJzgnLCAnLW1hJywgJzUwMCcsICctaW1hZScsICc8aW5maWxlLm1hZT4nLCAnLW9tYWUnLCAnPG91dGZpbGUubWFlPic=

>  <s_epik_input>  (1) 
W0NIMl0xW0NIMl1PW0NIXT1DMVtDSDNd

>  <s_glide_docking_method>  (1) 
confgen

>  <s_i_glide_gridfile>  (1) 
gpcr_drd2_6luq_protein_autoprepared_prepared

>  <s_lp_Force_Field>  (1) 
S-OPLS

>  <s_lp_Variant>  (1) 
Pocket2Mol_12_num_sample_100-1

>  <s_m_source_file>  (1) 
generated__ligand_Pocket2Mol_2026-05-06_prepared.sdf

>  <GenAI_Model>  (1) 
Pocket2Mol

>  <Protein>  (1) 
generic_title2

$$$$
Pocket2Mol_16_num_sample_100
     RDKit          3D

  0  0  0  0  0  0  0  0  0  0999 V3000
M  V30 BEGIN CTAB
M  V30 COUNTS 19 19 0 0 1
M  V30 BEGIN ATOM
M  V30 1 C 12.359760 8.416580 -8.134544 0
M  V30 2 O 11.666167 7.343210 -7.520510 0
M  V30 3 C 10.280810 7.434787 -7.847540 0
M  V30 4 C 9.719624 6.015831 -8.009691 0
M  V30 5 C 9.584104 8.169302 -6.691687 0
M  V30 6 C 11.688392 8.523450 -9.491323 0
M  V30 7 C 10.234835 8.221663 -9.171876 0
M  V30 8 H 12.217901 9.328496 -7.553129 0
M  V30 9 H 13.429226 8.218596 -8.209799 0
M  V30 10 H 8.658167 6.043397 -8.262011 0
M  V30 11 H 9.826738 5.440863 -7.091630 0
M  V30 12 H 10.234840 5.471632 -8.800493 0
M  V30 13 H 8.517913 8.287053 -6.882412 0
M  V30 14 H 9.693671 7.617264 -5.758348 0
M  V30 15 H 10.004040 9.162396 -6.537530 0
M  V30 16 H 11.834978 9.500133 -9.950929 0
M  V30 17 H 12.087826 7.762682 -10.162818 0
M  V30 18 H 9.760007 7.661155 -9.978465 0
M  V30 19 H 9.664445 9.143296 -9.059432 0
M  V30 END ATOM
M  V30 BEGIN BOND
M  V30 1 1 2 1
M  V30 2 1 3 2
M  V30 3 1 4 3
M  V30 4 1 5 3
M  V30 5 1 6 1
M  V30 6 1 7 3
M  V30 7 1 7 6
M  V30 8 1 8 1
M  V30 9 1 9 1
M  V30 10 1 10 4
M  V30 11 1 11 4
M  V30 12 1 12 4
M  V30 13 1 13 5
M  V30 14 1 14 5
M  V30 15 1 15 5
M  V30 16 1 16 6
M  V30 17 1 17 6
M  V30 18 1 18 7
M  V30 19 1 19 7
M  V30 END BOND
M  V30 END CTAB
M  END
>  <i_epik_Tot_Q>  (1) 
0

>  <i_epik_Tot_abs_Q>  (1) 
0

>  <i_i_glide_confnum>  (1) 
1

>  <i_i_glide_lignum>  (1) 
19

>  <i_i_glide_posenum>  (1) 
251

>  <i_i_glide_rotatable_bonds>  (1) 
0

>  <i_lp_mmshare_version>  (1) 
72125

>  <i_m_source_file_index>  (1) 
17

>  <i_f3d_flags>  (1) 
0

>  <num_sample>  (1) 
100

>  <b_lp_Chiralities_Consistent>  (1) 
1

>  <r_epik_Charging_Adjusted_Penalty>  (1) 
0

>  <r_epik_Ionization_Penalty>  (1) 
1.3889264151150229e-11

>  <r_epik_Ionization_Penalty_Charging>  (1) 
0

>  <r_epik_Ionization_Penalty_Neutral>  (1) 
1.3889264151150229e-11

>  <r_epik_State_Penalty>  (1) 
-0

>  <r_glide_ring_energy>  (1) 
0

>  <r_i_docking_score>  (1) 
-4.285858428222511

>  <r_i_glide_ecoul>  (1) 
-0.42588698048019502

>  <r_i_glide_eff_state_penalty>  (1) 
-0

>  <r_i_glide_einternal>  (1) 
0

>  <r_i_glide_emodel>  (1) 
-21.42485774519325

>  <r_i_glide_emodel_strain>  (1) 
0.089433909906569298

>  <r_i_glide_energy>  (1) 
-16.913123335237529

>  <r_i_glide_erotb>  (1) 
0

>  <r_i_glide_esite>  (1) 
0

>  <r_i_glide_evdw>  (1) 
-16.487236354757332

>  <r_i_glide_gscore>  (1) 
-4.285858428222511

>  <r_i_glide_gscore_strain>  (1) 
0

>  <r_i_glide_hbond>  (1) 
0

>  <r_i_glide_ligand_efficiency>  (1) 
-0.61226548974607298

>  <r_i_glide_ligand_efficiency_ln>  (1) 
-1.4548503557031054

>  <r_i_glide_ligand_efficiency_sa>  (1) 
-1.1712217474706716

>  <r_i_glide_lipo>  (1) 
-0.5574102687863155

>  <r_i_glide_metal>  (1) 
-0

>  <r_i_glide_rewards>  (1) 
-2.8402032946262996

>  <r_lp_Energy>  (1) 
0.043719999999999995

>  <r_lp_tautomer_probability>  (1) 
1

>  <s_epik_cmdline>  (1) 
J2VwaWtfcHl0aG9uJywgJy1waHQnLCAnMS4wJywgJy1waCcsICc3LjQnLCAnLXRuJywgJzgnLCAnLW1hJywgJzUwMCcsICctaW1hZScsICc8aW5maWxlLm1hZT4nLCAnLW9tYWUnLCAnPG91dGZpbGUubWFlPic=

>  <s_epik_input>  (1) 
W0NIMl0xW0NIMl1bQ0gyXU9DMShbQ0gzXSlbQ0gzXQ==

>  <s_glide_docking_method>  (1) 
confgen

>  <s_i_glide_gridfile>  (1) 
gpcr_drd2_6luq_protein_autoprepared_prepared

>  <s_lp_Force_Field>  (1) 
S-OPLS

>  <s_lp_Variant>  (1) 
Pocket2Mol_16_num_sample_100-1

>  <s_m_source_file>  (1) 
generated__ligand_Pocket2Mol_2026-05-06_prepared.sdf

>  <GenAI_Model>  (1) 
Pocket2Mol

>  <Protein>  (1) 
generic_title2

$$$$
Pocket2Mol_25_num_sample_100
     RDKit          3D

  0  0  0  0  0  0  0  0  0  0999 V3000
M  V30 BEGIN CTAB
M  V30 COUNTS 15 15 0 0 1
M  V30 BEGIN ATOM
M  V30 1 N 9.399203 5.203966 -12.291668 0 CHG=1
M  V30 2 C 8.325251 4.349786 -12.256248 0
M  V30 3 C 7.350794 4.966844 -11.482593 0
M  V30 4 C 9.122506 6.290563 -11.587664 0
M  V30 5 C 5.979410 4.538447 -11.079576 0
M  V30 6 N 9.936059 7.328557 -11.404419 0
M  V30 7 N 7.899031 6.169301 -11.091666 0
M  V30 8 H 8.328681 3.395173 -12.763489 0
M  V30 9 H 5.445144 4.124540 -11.934748 0
M  V30 10 H 6.035432 3.778236 -10.299367 0
M  V30 11 H 5.408995 5.383973 -10.691689 0
M  V30 12 H 10.861750 7.369107 -11.805011 0
M  V30 13 H 9.669381 8.131871 -10.850937 0
M  V30 14 H 7.434856 6.868100 -10.486846 0
M  V30 15 H 10.272978 5.030057 -12.778285 0
M  V30 END ATOM
M  V30 BEGIN BOND
M  V30 1 1 2 1
M  V30 2 2 3 2
M  V30 3 2 4 1
M  V30 4 1 5 3
M  V30 5 1 6 4
M  V30 6 1 7 3
M  V30 7 1 7 4
M  V30 8 1 8 2
M  V30 9 1 9 5
M  V30 10 1 10 5
M  V30 11 1 11 5
M  V30 12 1 12 6
M  V30 13 1 13 6
M  V30 14 1 14 7
M  V30 15 1 15 1
M  V30 END BOND
M  V30 END CTAB
M  END
>  <i_epik_Tot_Q>  (1) 
1

>  <i_epik_Tot_abs_Q>  (1) 
1

>  <i_i_glide_confnum>  (1) 
1

>  <i_i_glide_lignum>  (1) 
29

>  <i_i_glide_posenum>  (1) 
276

>  <i_i_glide_rotatable_bonds>  (1) 
0

>  <i_lp_mmshare_version>  (1) 
72125

>  <i_m_source_file_index>  (1) 
26

>  <i_f3d_flags>  (1) 
0

>  <num_sample>  (1) 
100

>  <b_lp_Chiralities_Consistent>  (1) 
1

>  <r_epik_Charging_Adjusted_Penalty>  (1) 
0.028937443406262361

>  <r_epik_Ionization_Penalty>  (1) 
0.025358402846536118

>  <r_epik_Ionization_Penalty_Charging>  (1) 
0

>  <r_epik_Ionization_Penalty_Neutral>  (1) 
0.025358402846536118

>  <r_epik_State_Penalty>  (1) 
0.028937443406262361

>  <r_glide_ring_energy>  (1) 
0

>  <r_i_docking_score>  (1) 
-4.2797319205974294

>  <r_i_glide_ecoul>  (1) 
-7.5806361007193397

>  <r_i_glide_eff_state_penalty>  (1) 
0.028937443406262361

>  <r_i_glide_einternal>  (1) 
0

>  <r_i_glide_emodel>  (1) 
-23.732352198419388

>  <r_i_glide_emodel_strain>  (1) 
0.032401548692316595

>  <r_i_glide_energy>  (1) 
-15.301315052361604

>  <r_i_glide_erotb>  (1) 
0

>  <r_i_glide_esite>  (1) 
-0.17005931318581494

>  <r_i_glide_evdw>  (1) 
-7.720678951642264

>  <r_i_glide_gscore>  (1) 
-4.3086693640036913

>  <r_i_glide_gscore_strain>  (1) 
0

>  <r_i_glide_hbond>  (1) 
-0.20000000000000001

>  <r_i_glide_ligand_efficiency>  (1) 
-0.6113902743710613

>  <r_i_glide_ligand_efficiency_ln>  (1) 
-1.4527706902295856

>  <r_i_glide_ligand_efficiency_sa>  (1) 
-1.1695475206881698

>  <r_i_glide_lipo>  (1) 
-0.1654806881278624

>  <r_i_glide_metal>  (1) 
-0

>  <r_i_glide_rewards>  (1) 
-2.25

>  <r_lp_Energy>  (1) 
-0.73901799999999995

>  <r_lp_tautomer_probability>  (1) 
0.99999998112300037

>  <s_epik_cmdline>  (1) 
J2VwaWtfcHl0aG9uJywgJy1waHQnLCAnMS4wJywgJy1waCcsICc3LjQnLCAnLXRuJywgJzgnLCAnLW1hJywgJzUwMCcsICctaW1hZScsICc8aW5maWxlLm1hZT4nLCAnLW9tYWUnLCAnPG91dGZpbGUubWFlPic=

>  <s_epik_input>  (1) 
W05IMl1jKFtuSF0xKW5bY0hdYzFbQ0gzXQ==

>  <s_glide_docking_method>  (1) 
confgen

>  <s_i_glide_gridfile>  (1) 
gpcr_drd2_6luq_protein_autoprepared_prepared

>  <s_lp_Force_Field>  (1) 
S-OPLS

>  <s_lp_Variant>  (1) 
Pocket2Mol_25_num_sample_100-1

>  <s_m_source_file>  (1) 
generated__ligand_Pocket2Mol_2026-05-06_prepared.sdf

>  <GenAI_Model>  (1) 
Pocket2Mol

>  <Protein>  (1) 
generic_title2

$$$$
Pocket2Mol_20_num_sample_100
     RDKit          3D

  0  0  0  0  0  0  0  0  0  0999 V3000
M  V30 BEGIN CTAB
M  V30 COUNTS 12 12 0 0 1
M  V30 BEGIN ATOM
M  V30 1 N 11.185315 6.569300 -4.292228 0 CHG=1
M  V30 2 C 11.150652 7.591363 -5.171234 0
M  V30 3 C 11.816156 8.795621 -4.867778 0
M  V30 4 C 11.834851 6.642329 -3.108940 0
M  V30 5 O 11.793748 9.835876 -5.746360 0 CHG=-1
M  V30 6 C 12.509188 8.907797 -3.644101 0
M  V30 7 C 12.515327 7.819072 -2.752044 0
M  V30 8 H 10.597823 7.417765 -6.083784 0
M  V30 9 H 11.785466 5.769352 -2.486492 0
M  V30 10 H 10.696276 5.703770 -4.531752 0
M  V30 11 H 13.027266 9.808770 -3.394537 0
M  V30 12 H 13.034839 7.888359 -1.808183 0
M  V30 END ATOM
M  V30 BEGIN BOND
M  V30 1 1 2 1
M  V30 2 2 3 2
M  V30 3 2 4 1
M  V30 4 1 5 3
M  V30 5 1 6 3
M  V30 6 1 7 4
M  V30 7 2 7 6
M  V30 8 1 8 2
M  V30 9 1 9 4
M  V30 10 1 10 1
M  V30 11 1 11 6
M  V30 12 1 12 7
M  V30 END BOND
M  V30 END CTAB
M  END
>  <i_epik_Tot_Q>  (1) 
0

>  <i_epik_Tot_abs_Q>  (1) 
2

>  <i_i_glide_confnum>  (1) 
1

>  <i_i_glide_lignum>  (1) 
23

>  <i_i_glide_posenum>  (1) 
8

>  <i_i_glide_rotatable_bonds>  (1) 
0

>  <i_lp_mmshare_version>  (1) 
72125

>  <i_m_source_file_index>  (1) 
21

>  <i_f3d_flags>  (1) 
0

>  <num_sample>  (1) 
100

>  <b_lp_Chiralities_Consistent>  (1) 
1

>  <r_epik_Charging_Adjusted_Penalty>  (1) 
0.36510749842979956

>  <r_epik_Ionization_Penalty>  (1) 
0.025180683492302028

>  <r_epik_Ionization_Penalty_Charging>  (1) 
0.025180683492302028

>  <r_epik_Ionization_Penalty_Neutral>  (1) 
0

>  <r_epik_State_Penalty>  (1) 
0.33992681493749755

>  <r_glide_ring_energy>  (1) 
0

>  <r_i_docking_score>  (1) 
-4.271255909845447

>  <r_i_glide_ecoul>  (1) 
-2.5267731875441011

>  <r_i_glide_eff_state_penalty>  (1) 
0.33992681493749755

>  <r_i_glide_einternal>  (1) 
0

>  <r_i_glide_emodel>  (1) 
-23.433289245172659

>  <r_i_glide_emodel_strain>  (1) 
0

>  <r_i_glide_energy>  (1) 
-14.444295617087313

>  <r_i_glide_erotb>  (1) 
0

>  <r_i_glide_esite>  (1) 
0

>  <r_i_glide_evdw>  (1) 
-11.917522429543212

>  <r_i_glide_gscore>  (1) 
-4.6111827247829442

>  <r_i_glide_gscore_strain>  (1) 
0

>  <r_i_glide_hbond>  (1) 
0

>  <r_i_glide_ligand_efficiency>  (1) 
-0.61017941569220668

>  <r_i_glide_ligand_efficiency_ln>  (1) 
-1.4498934773062042

>  <r_i_glide_ligand_efficiency_sa>  (1) 
-1.1672312313634583

>  <r_i_glide_lipo>  (1) 
-1.3862906251741682

>  <r_i_glide_metal>  (1) 
-0

>  <r_i_glide_rewards>  (1) 
-2.25

>  <r_lp_Energy>  (1) 
9.275188

>  <r_lp_tautomer_probability>  (1) 
0.56342000000000003

>  <s_epik_cmdline>  (1) 
J2VwaWtfcHl0aG9uJywgJy1waHQnLCAnMS4wJywgJy1waCcsICc3LjQnLCAnLXRuJywgJzgnLCAnLW1hJywgJzUwMCcsICctaW1hZScsICc8aW5maWxlLm1hZT4nLCAnLW9tYWUnLCAnPG91dGZpbGUubWFlPic=

>  <s_epik_input>  (1) 
W2NIXTFbY0hdW2NIXW5bY0hdYzFbT0hd

>  <s_glide_docking_method>  (1) 
confgen

>  <s_i_glide_gridfile>  (1) 
gpcr_drd2_6luq_protein_autoprepared_prepared

>  <s_lp_Force_Field>  (1) 
S-OPLS

>  <s_lp_Variant>  (1) 
Pocket2Mol_20_num_sample_100-1

>  <s_m_source_file>  (1) 
generated__ligand_Pocket2Mol_2026-05-06_prepared.sdf

>  <GenAI_Model>  (1) 
Pocket2Mol

>  <Protein>  (1) 
generic_title2

$$$$
Pocket2Mol_1_num_sample_100
     RDKit          3D

  0  0  0  0  0  0  0  0  0  0999 V3000
M  V30 BEGIN CTAB
M  V30 COUNTS 10 10 0 0 1
M  V30 BEGIN ATOM
M  V30 1 N 12.219083 9.207706 -3.395719 0
M  V30 2 C 11.834839 8.253363 -4.291598 0
M  V30 3 C 11.834837 7.038346 -3.831399 0
M  V30 4 C 12.440814 8.442167 -2.363512 0
M  V30 5 C 12.234831 6.875719 -2.429247 0
M  V30 6 H 11.565063 8.547185 -5.296268 0
M  V30 7 H 11.555157 6.177923 -4.423149 0
M  V30 8 H 12.779130 8.837165 -1.401908 0
M  V30 9 H 13.157087 6.312835 -2.292412 0
M  V30 10 H 11.421310 6.524686 -1.794048 0
M  V30 END ATOM
M  V30 BEGIN BOND
M  V30 1 1 2 1
M  V30 2 2 3 2
M  V30 3 2 4 1
M  V30 4 1 5 3
M  V30 5 1 5 4
M  V30 6 1 6 2
M  V30 7 1 7 3
M  V30 8 1 8 4
M  V30 9 1 9 5
M  V30 10 1 10 5
M  V30 END BOND
M  V30 END CTAB
M  END
>  <i_epik_Tot_Q>  (1) 
0

>  <i_epik_Tot_abs_Q>  (1) 
0

>  <i_i_glide_confnum>  (1) 
1

>  <i_i_glide_lignum>  (1) 
2

>  <i_i_glide_posenum>  (1) 
267

>  <i_i_glide_rotatable_bonds>  (1) 
0

>  <i_lp_mmshare_version>  (1) 
72125

>  <i_m_source_file_index>  (1) 
2

>  <i_f3d_flags>  (1) 
0

>  <num_sample>  (1) 
100

>  <b_lp_Chiralities_Consistent>  (1) 
1

>  <r_epik_Charging_Adjusted_Penalty>  (1) 
0

>  <r_epik_Ionization_Penalty>  (1) 
0

>  <r_epik_Ionization_Penalty_Charging>  (1) 
0

>  <r_epik_Ionization_Penalty_Neutral>  (1) 
0

>  <r_epik_State_Penalty>  (1) 
-0

>  <r_glide_ring_energy>  (1) 
0

>  <r_i_docking_score>  (1) 
-4.2703822837575203

>  <r_i_glide_ecoul>  (1) 
-0.82001936093660599

>  <r_i_glide_eff_state_penalty>  (1) 
-0

>  <r_i_glide_einternal>  (1) 
0

>  <r_i_glide_emodel>  (1) 
-18.482241041294287

>  <r_i_glide_emodel_strain>  (1) 
0

>  <r_i_glide_energy>  (1) 
-14.485212994497894

>  <r_i_glide_erotb>  (1) 
0

>  <r_i_glide_esite>  (1) 
0

>  <r_i_glide_evdw>  (1) 
-13.665193633561289

>  <r_i_glide_gscore>  (1) 
-4.2703822837575203

>  <r_i_glide_gscore_strain>  (1) 
0

>  <r_i_glide_hbond>  (1) 
0

>  <r_i_glide_ligand_efficiency>  (1) 
-0.85407645675150401

>  <r_i_glide_ligand_efficiency_ln>  (1) 
-1.6365142329729088

>  <r_i_glide_ligand_efficiency_sa>  (1) 
-1.4604501976679323

>  <r_i_glide_lipo>  (1) 
-0.65516011223949278

>  <r_i_glide_metal>  (1) 
-0

>  <r_i_glide_rewards>  (1) 
-2.8089595856994727

>  <r_lp_Energy>  (1) 
-2.9532909999999997

>  <r_lp_tautomer_probability>  (1) 
1

>  <s_epik_Chemistry_Notes>  (1) 
This compound has an imine and may undergo hydrolysis.

>  <s_epik_cmdline>  (1) 
J2VwaWtfcHl0aG9uJywgJy1waHQnLCAnMS4wJywgJy1waCcsICc3LjQnLCAnLXRuJywgJzgnLCAnLW1hJywgJzUwMCcsICctaW1hZScsICc8aW5maWxlLm1hZT4nLCAnLW9tYWUnLCAnPG91dGZpbGUubWFlPic=

>  <s_epik_input>  (1) 
TjE9W0NIXVtDSDJdW0NIXT1bQ0hdMQ==

>  <s_glide_docking_method>  (1) 
confgen

>  <s_i_glide_gridfile>  (1) 
gpcr_drd2_6luq_protein_autoprepared_prepared

>  <s_lp_Force_Field>  (1) 
S-OPLS

>  <s_lp_Variant>  (1) 
Pocket2Mol_1_num_sample_100-1

>  <s_m_source_file>  (1) 
generated__ligand_Pocket2Mol_2026-05-06_prepared.sdf

>  <GenAI_Model>  (1) 
Pocket2Mol

>  <Protein>  (1) 
generic_title2

$$$$
Pocket2Mol_2_num_sample_100
     RDKit          3D

  0  0  0  0  0  0  0  0  0  0999 V3000
M  V30 BEGIN CTAB
M  V30 COUNTS 10 10 0 0 1
M  V30 BEGIN ATOM
M  V30 1 N 11.034802 7.874810 -5.322152 0
M  V30 2 C 11.434839 6.942712 -4.396338 0
M  V30 3 C 12.234836 7.594071 -3.491721 0
M  V30 4 C 12.308023 8.969310 -3.891679 0
M  V30 5 C 11.555407 9.111404 -5.028861 0
M  V30 6 H 10.433382 7.677190 -6.111281 0
M  V30 7 H 11.118621 5.910827 -4.465819 0
M  V30 8 H 12.711767 7.137173 -2.637032 0
M  V30 9 H 12.852678 9.762626 -3.399647 0
M  V30 10 H 11.344236 9.970686 -5.649666 0
M  V30 END ATOM
M  V30 BEGIN BOND
M  V30 1 1 2 1
M  V30 2 2 3 2
M  V30 3 1 4 3
M  V30 4 1 5 1
M  V30 5 2 5 4
M  V30 6 1 6 1
M  V30 7 1 7 2
M  V30 8 1 8 3
M  V30 9 1 9 4
M  V30 10 1 10 5
M  V30 END BOND
M  V30 END CTAB
M  END
>  <i_epik_Tot_Q>  (1) 
0

>  <i_epik_Tot_abs_Q>  (1) 
0

>  <i_i_glide_confnum>  (1) 
1

>  <i_i_glide_lignum>  (1) 
3

>  <i_i_glide_posenum>  (1) 
184

>  <i_i_glide_rotatable_bonds>  (1) 
0

>  <i_lp_mmshare_version>  (1) 
72125

>  <i_m_source_file_index>  (1) 
3

>  <i_f3d_flags>  (1) 
0

>  <num_sample>  (1) 
100

>  <b_lp_Chiralities_Consistent>  (1) 
1

>  <r_epik_Charging_Adjusted_Penalty>  (1) 
0

>  <r_epik_Ionization_Penalty>  (1) 
4.7655302421719939e-09

>  <r_epik_Ionization_Penalty_Charging>  (1) 
0

>  <r_epik_Ionization_Penalty_Neutral>  (1) 
4.7655302421719939e-09

>  <r_epik_State_Penalty>  (1) 
-0

>  <r_glide_ring_energy>  (1) 
0

>  <r_i_docking_score>  (1) 
-4.2689352556525337

>  <r_i_glide_ecoul>  (1) 
-1.3242716174370122

>  <r_i_glide_eff_state_penalty>  (1) 
-0

>  <r_i_glide_einternal>  (1) 
0

>  <r_i_glide_emodel>  (1) 
-17.58105919890718

>  <r_i_glide_emodel_strain>  (1) 
5.6701310313655995e-12

>  <r_i_glide_energy>  (1) 
-12.728194384480286

>  <r_i_glide_erotb>  (1) 
0

>  <r_i_glide_esite>  (1) 
0

>  <r_i_glide_evdw>  (1) 
-11.403922767043273

>  <r_i_glide_gscore>  (1) 
-4.2689352556525337

>  <r_i_glide_gscore_strain>  (1) 
0

>  <r_i_glide_hbond>  (1) 
0

>  <r_i_glide_ligand_efficiency>  (1) 
-0.85378705113050679

>  <r_i_glide_ligand_efficiency_ln>  (1) 
-1.6359596966499361

>  <r_i_glide_ligand_efficiency_sa>  (1) 
-1.4599553210171938

>  <r_i_glide_lipo>  (1) 
-1.2500983746848182

>  <r_i_glide_metal>  (1) 
-0

>  <r_i_glide_rewards>  (1) 
-2.25

>  <r_lp_Energy>  (1) 
2.9132020000000001

>  <r_lp_tautomer_probability>  (1) 
1

>  <s_epik_cmdline>  (1) 
J2VwaWtfcHl0aG9uJywgJy1waHQnLCAnMS4wJywgJy1waCcsICc3LjQnLCAnLXRuJywgJzgnLCAnLW1hJywgJzUwMCcsICctaW1hZScsICc8aW5maWxlLm1hZT4nLCAnLW9tYWUnLCAnPG91dGZpbGUubWFlPic=

>  <s_epik_input>  (1) 
W25IXTFbY0hdW2NIXVtjSF1bY0hdMQ==

>  <s_glide_docking_method>  (1) 
confgen

>  <s_i_glide_gridfile>  (1) 
gpcr_drd2_6luq_protein_autoprepared_prepared

>  <s_lp_Force_Field>  (1) 
S-OPLS

>  <s_lp_Variant>  (1) 
Pocket2Mol_2_num_sample_100-1

>  <s_m_source_file>  (1) 
generated__ligand_Pocket2Mol_2026-05-06_prepared.sdf

>  <GenAI_Model>  (1) 
Pocket2Mol

>  <Protein>  (1) 
generic_title2

$$$$
Pocket2Mol_16_num_sample_100
     RDKit          3D

  0  0  0  0  0  0  0  0  0  0999 V3000
M  V30 BEGIN CTAB
M  V30 COUNTS 19 19 0 0 1
M  V30 BEGIN ATOM
M  V30 1 C 11.644319 8.204170 -9.168754 0
M  V30 2 O 11.575232 8.277919 -7.746861 0
M  V30 3 C 10.501188 7.478502 -7.249123 0
M  V30 4 C 11.034842 6.569302 -6.135566 0
M  V30 5 C 9.434789 8.429372 -6.694632 0
M  V30 6 C 10.312704 7.611817 -9.615770 0
M  V30 7 C 9.982446 6.693212 -8.459363 0
M  V30 8 H 11.834613 9.183881 -9.608987 0
M  V30 9 H 12.467192 7.543831 -9.446326 0
M  V30 10 H 10.236858 5.955926 -5.717605 0
M  V30 11 H 11.454023 7.156927 -5.319664 0
M  V30 12 H 11.815712 5.901960 -6.501371 0
M  V30 13 H 8.584656 7.876096 -6.293843 0
M  V30 14 H 9.836332 9.043537 -5.891634 0
M  V30 15 H 9.048391 9.098729 -7.463695 0
M  V30 16 H 9.556562 8.393467 -9.703372 0
M  V30 17 H 10.373213 7.090920 -10.571651 0
M  V30 18 H 10.526556 5.754845 -8.571533 0
M  V30 19 H 8.918593 6.457087 -8.395796 0
M  V30 END ATOM
M  V30 BEGIN BOND
M  V30 1 1 2 1
M  V30 2 1 3 2
M  V30 3 1 4 3
M  V30 4 1 5 3
M  V30 5 1 6 1
M  V30 6 1 7 3
M  V30 7 1 7 6
M  V30 8 1 8 1
M  V30 9 1 9 1
M  V30 10 1 10 4
M  V30 11 1 11 4
M  V30 12 1 12 4
M  V30 13 1 13 5
M  V30 14 1 14 5
M  V30 15 1 15 5
M  V30 16 1 16 6
M  V30 17 1 17 6
M  V30 18 1 18 7
M  V30 19 1 19 7
M  V30 END BOND
M  V30 END CTAB
M  END
>  <i_epik_Tot_Q>  (1) 
0

>  <i_epik_Tot_abs_Q>  (1) 
0

>  <i_i_glide_confnum>  (1) 
1

>  <i_i_glide_lignum>  (1) 
19

>  <i_i_glide_posenum>  (1) 
98

>  <i_i_glide_rotatable_bonds>  (1) 
0

>  <i_lp_mmshare_version>  (1) 
72125

>  <i_m_source_file_index>  (1) 
17

>  <i_f3d_flags>  (1) 
0

>  <num_sample>  (1) 
100

>  <b_lp_Chiralities_Consistent>  (1) 
1

>  <r_epik_Charging_Adjusted_Penalty>  (1) 
0

>  <r_epik_Ionization_Penalty>  (1) 
1.3889264151150229e-11

>  <r_epik_Ionization_Penalty_Charging>  (1) 
0

>  <r_epik_Ionization_Penalty_Neutral>  (1) 
1.3889264151150229e-11

>  <r_epik_State_Penalty>  (1) 
-0

>  <r_glide_ring_energy>  (1) 
0

>  <r_i_docking_score>  (1) 
-4.2595979560074859

>  <r_i_glide_ecoul>  (1) 
-0.72571273465848796

>  <r_i_glide_eff_state_penalty>  (1) 
-0

>  <r_i_glide_einternal>  (1) 
0

>  <r_i_glide_emodel>  (1) 
-21.84901229664364

>  <r_i_glide_emodel_strain>  (1) 
0

>  <r_i_glide_energy>  (1) 
-17.276036427568979

>  <r_i_glide_erotb>  (1) 
0

>  <r_i_glide_esite>  (1) 
0

>  <r_i_glide_evdw>  (1) 
-16.550323692910492

>  <r_i_glide_gscore>  (1) 
-4.2595979560074859

>  <r_i_glide_gscore_strain>  (1) 
0

>  <r_i_glide_hbond>  (1) 
0

>  <r_i_glide_ligand_efficiency>  (1) 
-0.60851399371535508

>  <r_i_glide_ligand_efficiency_ln>  (1) 
-1.4459361421370718

>  <r_i_glide_ligand_efficiency_sa>  (1) 
-1.1640453937314645

>  <r_i_glide_lipo>  (1) 
-0.55715599394289805

>  <r_i_glide_metal>  (1) 
-0

>  <r_i_glide_rewards>  (1) 
-2.76606886722029

>  <r_lp_Energy>  (1) 
0.043719999999999995

>  <r_lp_tautomer_probability>  (1) 
1

>  <s_epik_cmdline>  (1) 
J2VwaWtfcHl0aG9uJywgJy1waHQnLCAnMS4wJywgJy1waCcsICc3LjQnLCAnLXRuJywgJzgnLCAnLW1hJywgJzUwMCcsICctaW1hZScsICc8aW5maWxlLm1hZT4nLCAnLW9tYWUnLCAnPG91dGZpbGUubWFlPic=

>  <s_epik_input>  (1) 
W0NIMl0xW0NIMl1bQ0gyXU9DMShbQ0gzXSlbQ0gzXQ==

>  <s_glide_docking_method>  (1) 
confgen

>  <s_i_glide_gridfile>  (1) 
gpcr_drd2_6luq_protein_autoprepared_prepared

>  <s_lp_Force_Field>  (1) 
S-OPLS

>  <s_lp_Variant>  (1) 
Pocket2Mol_16_num_sample_100-1

>  <s_m_source_file>  (1) 
generated__ligand_Pocket2Mol_2026-05-06_prepared.sdf

>  <GenAI_Model>  (1) 
Pocket2Mol

>  <Protein>  (1) 
generic_title2

$$$$
Pocket2Mol_20_num_sample_100
     RDKit          3D

  0  0  0  0  0  0  0  0  0  0999 V3000
M  V30 BEGIN CTAB
M  V30 COUNTS 12 12 0 0 1
M  V30 BEGIN ATOM
M  V30 1 N 12.234816 9.307912 -3.077867 0 CHG=1
M  V30 2 C 11.837673 9.368807 -4.367549 0
M  V30 3 C 11.432817 8.198605 -5.031804 0
M  V30 4 C 12.260574 8.156939 -2.374206 0
M  V30 5 O 11.034839 8.252197 -6.331283 0 CHG=-1
M  V30 6 C 11.435552 6.970382 -4.333445 0
M  V30 7 C 11.857509 6.949632 -2.983971 0
M  V30 8 H 11.852366 10.342850 -4.828328 0
M  V30 9 H 12.598318 8.235798 -1.352018 0
M  V30 10 H 12.528725 10.169288 -2.613574 0
M  V30 11 H 11.121748 6.062532 -4.824940 0
M  V30 12 H 11.870286 6.023609 -2.428666 0
M  V30 END ATOM
M  V30 BEGIN BOND
M  V30 1 1 2 1
M  V30 2 2 3 2
M  V30 3 2 4 1
M  V30 4 1 5 3
M  V30 5 1 6 3
M  V30 6 1 7 4
M  V30 7 2 7 6
M  V30 8 1 8 2
M  V30 9 1 9 4
M  V30 10 1 10 1
M  V30 11 1 11 6
M  V30 12 1 12 7
M  V30 END BOND
M  V30 END CTAB
M  END
>  <i_epik_Tot_Q>  (1) 
0

>  <i_epik_Tot_abs_Q>  (1) 
2

>  <i_i_glide_confnum>  (1) 
1

>  <i_i_glide_lignum>  (1) 
23

>  <i_i_glide_posenum>  (1) 
209

>  <i_i_glide_rotatable_bonds>  (1) 
0

>  <i_lp_mmshare_version>  (1) 
72125

>  <i_m_source_file_index>  (1) 
21

>  <i_f3d_flags>  (1) 
0

>  <num_sample>  (1) 
100

>  <b_lp_Chiralities_Consistent>  (1) 
1

>  <r_epik_Charging_Adjusted_Penalty>  (1) 
0.36510749842979956

>  <r_epik_Ionization_Penalty>  (1) 
0.025180683492302028

>  <r_epik_Ionization_Penalty_Charging>  (1) 
0.025180683492302028

>  <r_epik_Ionization_Penalty_Neutral>  (1) 
0

>  <r_epik_State_Penalty>  (1) 
0.33992681493749755

>  <r_glide_ring_energy>  (1) 
0

>  <r_i_docking_score>  (1) 
-4.2520476420893125

>  <r_i_glide_ecoul>  (1) 
-1.7952188250326664

>  <r_i_glide_eff_state_penalty>  (1) 
0.33992681493749755

>  <r_i_glide_einternal>  (1) 
0

>  <r_i_glide_emodel>  (1) 
-23.238039779422305

>  <r_i_glide_emodel_strain>  (1) 
0

>  <r_i_glide_energy>  (1) 
-14.286490556985528

>  <r_i_glide_erotb>  (1) 
0

>  <r_i_glide_esite>  (1) 
0

>  <r_i_glide_evdw>  (1) 
-12.491271731952862

>  <r_i_glide_gscore>  (1) 
-4.5919744570268097

>  <r_i_glide_gscore_strain>  (1) 
0

>  <r_i_glide_hbond>  (1) 
0

>  <r_i_glide_ligand_efficiency>  (1) 
-0.60743537744133036

>  <r_i_glide_ligand_efficiency_ln>  (1) 
-1.4433731603975932

>  <r_i_glide_ligand_efficiency_sa>  (1) 
-1.1619820750266368

>  <r_i_glide_lipo>  (1) 
-1.4481280466742668

>  <r_i_glide_metal>  (1) 
-0

>  <r_i_glide_rewards>  (1) 
-2.25

>  <r_lp_Energy>  (1) 
9.275188

>  <r_lp_tautomer_probability>  (1) 
0.56342000000000003

>  <s_epik_cmdline>  (1) 
J2VwaWtfcHl0aG9uJywgJy1waHQnLCAnMS4wJywgJy1waCcsICc3LjQnLCAnLXRuJywgJzgnLCAnLW1hJywgJzUwMCcsICctaW1hZScsICc8aW5maWxlLm1hZT4nLCAnLW9tYWUnLCAnPG91dGZpbGUubWFlPic=

>  <s_epik_input>  (1) 
W2NIXTFbY0hdW2NIXW5bY0hdYzFbT0hd

>  <s_glide_docking_method>  (1) 
confgen

>  <s_i_glide_gridfile>  (1) 
gpcr_drd2_6luq_protein_autoprepared_prepared

>  <s_lp_Force_Field>  (1) 
S-OPLS

>  <s_lp_Variant>  (1) 
Pocket2Mol_20_num_sample_100-1

>  <s_m_source_file>  (1) 
generated__ligand_Pocket2Mol_2026-05-06_prepared.sdf

>  <GenAI_Model>  (1) 
Pocket2Mol

>  <Protein>  (1) 
generic_title2

$$$$
Pocket2Mol_33_num_sample_100
     RDKit          3D

  0  0  0  0  0  0  0  0  0  0999 V3000
M  V30 BEGIN CTAB
M  V30 COUNTS 12 12 0 0 1
M  V30 BEGIN ATOM
M  V30 1 N 12.323676 8.966189 -3.188186 0
M  V30 2 C 11.886327 9.280727 -4.388662 0
M  V30 3 C 11.434824 8.271844 -5.041701 0
M  V30 4 C 11.509827 6.952957 -4.291667 0
M  V30 5 C 12.234505 7.521235 -2.908454 0
M  V30 6 H 11.949878 10.310661 -4.704303 0
M  V30 7 H 10.516778 6.539952 -4.117445 0
M  V30 8 H 12.119403 6.221616 -4.821722 0
M  V30 9 H 11.626062 7.330997 -2.023958 0
M  V30 10 H 13.226224 7.093007 -2.762936 0
M  V30 11 H 11.034329 8.324862 -6.043635 0
M  V30 12 H 12.856608 9.593791 -2.597788 0
M  V30 END ATOM
M  V30 BEGIN BOND
M  V30 1 1 2 1
M  V30 2 2 3 2
M  V30 3 1 4 3
M  V30 4 1 5 1
M  V30 5 1 5 4
M  V30 6 1 6 2
M  V30 7 1 7 4
M  V30 8 1 8 4
M  V30 9 1 9 5
M  V30 10 1 10 5
M  V30 11 1 11 3
M  V30 12 1 12 1
M  V30 END BOND
M  V30 END CTAB
M  END
>  <i_epik_Tot_Q>  (1) 
0

>  <i_epik_Tot_abs_Q>  (1) 
0

>  <i_i_glide_confnum>  (1) 
1

>  <i_i_glide_lignum>  (1) 
37

>  <i_i_glide_posenum>  (1) 
110

>  <i_i_glide_rotatable_bonds>  (1) 
0

>  <i_lp_mmshare_version>  (1) 
72125

>  <i_m_source_file_index>  (1) 
34

>  <i_f3d_flags>  (1) 
0

>  <num_sample>  (1) 
100

>  <b_lp_Chiralities_Consistent>  (1) 
1

>  <r_epik_Charging_Adjusted_Penalty>  (1) 
1.6042444336516156e-06

>  <r_epik_Ionization_Penalty>  (1) 
0.0023556498582944039

>  <r_epik_Ionization_Penalty_Charging>  (1) 
1.6042444336516156e-06

>  <r_epik_Ionization_Penalty_Neutral>  (1) 
0.0023540456138607521

>  <r_epik_State_Penalty>  (1) 
-0

>  <r_glide_ring_energy>  (1) 
0

>  <r_i_docking_score>  (1) 
-4.2465310860264172

>  <r_i_glide_ecoul>  (1) 
-1.3319055797629933

>  <r_i_glide_eff_state_penalty>  (1) 
-0

>  <r_i_glide_einternal>  (1) 
0

>  <r_i_glide_emodel>  (1) 
-17.784783729762616

>  <r_i_glide_emodel_strain>  (1) 
0

>  <r_i_glide_energy>  (1) 
-13.539459321121551

>  <r_i_glide_erotb>  (1) 
0

>  <r_i_glide_esite>  (1) 
0

>  <r_i_glide_evdw>  (1) 
-12.207553741358558

>  <r_i_glide_gscore>  (1) 
-4.2465310860264172

>  <r_i_glide_gscore_strain>  (1) 
0

>  <r_i_glide_hbond>  (1) 
-0.081351198137749589

>  <r_i_glide_ligand_efficiency>  (1) 
-0.84930621720528343

>  <r_i_glide_ligand_efficiency_ln>  (1) 
-1.6273738745771595

>  <r_i_glide_ligand_efficiency_sa>  (1) 
-1.452293202784009

>  <r_i_glide_lipo>  (1) 
-1.1050163638562907

>  <r_i_glide_metal>  (1) 
-0

>  <r_i_glide_rewards>  (1) 
-2.25

>  <r_lp_Energy>  (1) 
2.9163329999999998

>  <r_lp_tautomer_probability>  (1) 
1

>  <s_epik_Chemistry_Notes>  (1) 
This compound has an imine and may undergo hydrolysis.

>  <s_epik_cmdline>  (1) 
J2VwaWtfcHl0aG9uJywgJy1waHQnLCAnMS4wJywgJy1waCcsICc3LjQnLCAnLXRuJywgJzgnLCAnLW1hJywgJzUwMCcsICctaW1hZScsICc8aW5maWxlLm1hZT4nLCAnLW9tYWUnLCAnPG91dGZpbGUubWFlPic=

>  <s_epik_input>  (1) 
W05IXTFbQ0hdPVtDSF1bQ0gyXVtDSDJdMQ==

>  <s_glide_docking_method>  (1) 
confgen

>  <s_i_glide_gridfile>  (1) 
gpcr_drd2_6luq_protein_autoprepared_prepared

>  <s_lp_Force_Field>  (1) 
S-OPLS

>  <s_lp_Variant>  (1) 
Pocket2Mol_33_num_sample_100-1

>  <s_m_source_file>  (1) 
generated__ligand_Pocket2Mol_2026-05-06_prepared.sdf

>  <GenAI_Model>  (1) 
Pocket2Mol

>  <Protein>  (1) 
generic_title2

$$$$
Pocket2Mol_22_num_sample_100
     RDKit          3D

  0  0  0  0  0  0  0  0  0  0999 V3000
M  V30 BEGIN CTAB
M  V30 COUNTS 9 9 0 0 1
M  V30 BEGIN ATOM
M  V30 1 C 12.450340 8.549626 -2.201084 0
M  V30 2 O 12.211260 9.369303 -3.268334 0
M  V30 3 C 11.834987 8.546262 -4.291939 0
M  V30 4 C 12.235182 7.242378 -2.532441 0
M  V30 5 C 11.834864 7.239868 -3.891667 0
M  V30 6 H 12.760996 9.052438 -1.296508 0
M  V30 7 H 11.605786 9.044660 -5.222605 0
M  V30 8 H 12.351345 6.392395 -1.875548 0
M  V30 9 H 11.576256 6.387904 -4.504359 0
M  V30 END ATOM
M  V30 BEGIN BOND
M  V30 1 1 2 1
M  V30 2 1 3 2
M  V30 3 2 4 1
M  V30 4 2 5 3
M  V30 5 1 5 4
M  V30 6 1 6 1
M  V30 7 1 7 3
M  V30 8 1 8 4
M  V30 9 1 9 5
M  V30 END BOND
M  V30 END CTAB
M  END
>  <i_epik_Tot_Q>  (1) 
0

>  <i_epik_Tot_abs_Q>  (1) 
0

>  <i_i_glide_confnum>  (1) 
1

>  <i_i_glide_lignum>  (1) 
26

>  <i_i_glide_posenum>  (1) 
235

>  <i_i_glide_rotatable_bonds>  (1) 
0

>  <i_lp_mmshare_version>  (1) 
72125

>  <i_m_source_file_index>  (1) 
23

>  <i_f3d_flags>  (1) 
0

>  <num_sample>  (1) 
100

>  <b_lp_Chiralities_Consistent>  (1) 
1

>  <r_epik_Charging_Adjusted_Penalty>  (1) 
0

>  <r_epik_Ionization_Penalty>  (1) 
0

>  <r_epik_Ionization_Penalty_Charging>  (1) 
0

>  <r_epik_Ionization_Penalty_Neutral>  (1) 
0

>  <r_epik_State_Penalty>  (1) 
-0

>  <r_glide_ring_energy>  (1) 
0

>  <r_i_docking_score>  (1) 
-4.2304271229696573

>  <r_i_glide_ecoul>  (1) 
-0.87518483120498047

>  <r_i_glide_eff_state_penalty>  (1) 
-0

>  <r_i_glide_einternal>  (1) 
0

>  <r_i_glide_emodel>  (1) 
-16.384493032683451

>  <r_i_glide_emodel_strain>  (1) 
0

>  <r_i_glide_energy>  (1) 
-13.065332022457451

>  <r_i_glide_erotb>  (1) 
0

>  <r_i_glide_esite>  (1) 
0

>  <r_i_glide_evdw>  (1) 
-12.190147191252469

>  <r_i_glide_gscore>  (1) 
-4.2304271229696573

>  <r_i_glide_gscore_strain>  (1) 
0

>  <r_i_glide_hbond>  (1) 
0

>  <r_i_glide_ligand_efficiency>  (1) 
-0.84608542459393143

>  <r_i_glide_ligand_efficiency_ln>  (1) 
-1.6212024447148037

>  <r_i_glide_ligand_efficiency_sa>  (1) 
-1.4467857248893632

>  <r_i_glide_lipo>  (1) 
-1.0448834843845638

>  <r_i_glide_metal>  (1) 
-0

>  <r_i_glide_rewards>  (1) 
-2.4447585543417225

>  <r_lp_Energy>  (1) 
2.5980879999999997

>  <r_lp_tautomer_probability>  (1) 
1

>  <s_epik_cmdline>  (1) 
J2VwaWtfcHl0aG9uJywgJy1waHQnLCAnMS4wJywgJy1waCcsICc3LjQnLCAnLXRuJywgJzgnLCAnLW1hJywgJzUwMCcsICctaW1hZScsICc8aW5maWxlLm1hZT4nLCAnLW9tYWUnLCAnPG91dGZpbGUubWFlPic=

>  <s_epik_input>  (1) 
W2NIXTFvW2NIXVtjSF1bY0hdMQ==

>  <s_glide_docking_method>  (1) 
confgen

>  <s_i_glide_gridfile>  (1) 
gpcr_drd2_6luq_protein_autoprepared_prepared

>  <s_lp_Force_Field>  (1) 
S-OPLS

>  <s_lp_Variant>  (1) 
Pocket2Mol_22_num_sample_100-1

>  <s_m_source_file>  (1) 
generated__ligand_Pocket2Mol_2026-05-06_prepared.sdf

>  <GenAI_Model>  (1) 
Pocket2Mol

>  <Protein>  (1) 
generic_title2

$$$$
Pocket2Mol_19_num_sample_100
     RDKit          3D

  0  0  0  0  0  0  0  0  0  0999 V3000
M  V30 BEGIN CTAB
M  V30 COUNTS 14 14 0 0 1
M  V30 BEGIN ATOM
M  V30 1 N 9.610971 7.264559 -6.736189 0 CHG=1
M  V30 2 C 9.434840 6.830529 -8.000872 0
M  V30 3 C 10.310716 7.255109 -9.019334 0
M  V30 4 C 11.367003 8.132300 -8.694031 0
M  V30 5 N 12.247737 8.569301 -9.681166 0
M  V30 6 C 11.520242 8.560555 -7.356537 0
M  V30 7 C 10.608965 8.101455 -6.382433 0
M  V30 8 H 8.598443 6.165505 -8.161780 0
M  V30 9 H 10.171492 6.914221 -10.035008 0
M  V30 10 H 12.919382 9.303334 -9.488609 0
M  V30 11 H 12.059713 8.385980 -10.655997 0
M  V30 12 H 12.321116 9.230733 -7.083105 0
M  V30 13 H 10.648572 8.378434 -5.340216 0
M  V30 14 H 8.956967 6.947425 -6.016409 0
M  V30 END ATOM
M  V30 BEGIN BOND
M  V30 1 1 2 1
M  V30 2 2 3 2
M  V30 3 1 4 3
M  V30 4 1 5 4
M  V30 5 2 6 4
M  V30 6 2 7 1
M  V30 7 1 7 6
M  V30 8 1 8 2
M  V30 9 1 9 3
M  V30 10 1 10 5
M  V30 11 1 11 5
M  V30 12 1 12 6
M  V30 13 1 13 7
M  V30 14 1 14 1
M  V30 END BOND
M  V30 END CTAB
M  END
>  <i_epik_Tot_Q>  (1) 
1

>  <i_epik_Tot_abs_Q>  (1) 
1

>  <i_i_glide_confnum>  (1) 
1

>  <i_i_glide_lignum>  (1) 
22

>  <i_i_glide_posenum>  (1) 
21

>  <i_i_glide_rotatable_bonds>  (1) 
0

>  <i_lp_mmshare_version>  (1) 
72125

>  <i_m_source_file_index>  (1) 
20

>  <i_f3d_flags>  (1) 
0

>  <num_sample>  (1) 
100

>  <b_lp_Chiralities_Consistent>  (1) 
1

>  <r_epik_Charging_Adjusted_Penalty>  (1) 
0.023410508937706027

>  <r_epik_Ionization_Penalty>  (1) 
0.011711918016166721

>  <r_epik_Ionization_Penalty_Charging>  (1) 
0.011705254468853022

>  <r_epik_Ionization_Penalty_Neutral>  (1) 
6.6635473136990569e-06

>  <r_epik_State_Penalty>  (1) 
0.011705254468853005

>  <r_glide_ring_energy>  (1) 
0

>  <r_i_docking_score>  (1) 
-4.2226576527087998

>  <r_i_glide_ecoul>  (1) 
-2.6392277632680905

>  <r_i_glide_eff_state_penalty>  (1) 
0.011705254468853005

>  <r_i_glide_einternal>  (1) 
0

>  <r_i_glide_emodel>  (1) 
-24.518884132482633

>  <r_i_glide_emodel_strain>  (1) 
0

>  <r_i_glide_energy>  (1) 
-16.616607373736223

>  <r_i_glide_erotb>  (1) 
0

>  <r_i_glide_esite>  (1) 
-0.029785646518982908

>  <r_i_glide_evdw>  (1) 
-13.97737961046813

>  <r_i_glide_gscore>  (1) 
-4.234362907177653

>  <r_i_glide_gscore_strain>  (1) 
0

>  <r_i_glide_hbond>  (1) 
-0.16417732616836467

>  <r_i_glide_ligand_efficiency>  (1) 
-0.60323680752982856

>  <r_i_glide_ligand_efficiency_ln>  (1) 
-1.4333966207567159

>  <r_i_glide_ligand_efficiency_sa>  (1) 
-1.1539504997198751

>  <r_i_glide_lipo>  (1) 
-0.69564678947668468

>  <r_i_glide_metal>  (1) 
-0

>  <r_i_glide_rewards>  (1) 
-2.25

>  <r_lp_Energy>  (1) 
13.062742999999999

>  <r_lp_tautomer_probability>  (1) 
0.99999999993680011

>  <s_epik_cmdline>  (1) 
J2VwaWtfcHl0aG9uJywgJy1waHQnLCAnMS4wJywgJy1waCcsICc3LjQnLCAnLXRuJywgJzgnLCAnLW1hJywgJzUwMCcsICctaW1hZScsICc8aW5maWxlLm1hZT4nLCAnLW9tYWUnLCAnPG91dGZpbGUubWFlPic=

>  <s_epik_input>  (1) 
W2NIXTFbY0hdbltjSF1bY0hdYzFbTkgyXQ==

>  <s_glide_docking_method>  (1) 
confgen

>  <s_i_glide_gridfile>  (1) 
gpcr_drd2_6luq_protein_autoprepared_prepared

>  <s_lp_Force_Field>  (1) 
S-OPLS

>  <s_lp_Variant>  (1) 
Pocket2Mol_19_num_sample_100-1

>  <s_m_source_file>  (1) 
generated__ligand_Pocket2Mol_2026-05-06_prepared.sdf

>  <GenAI_Model>  (1) 
Pocket2Mol

>  <Protein>  (1) 
generic_title2

$$$$
Pocket2Mol_1_num_sample_100
     RDKit          3D

  0  0  0  0  0  0  0  0  0  0999 V3000
M  V30 BEGIN CTAB
M  V30 COUNTS 10 10 0 0 1
M  V30 BEGIN ATOM
M  V30 1 N 10.234838 16.969605 -20.347583 0
M  V30 2 C 10.454088 15.849704 -21.091667 0
M  V30 3 C 11.356339 15.972177 -22.015745 0
M  V30 4 C 11.088787 17.767950 -20.926849 0
M  V30 5 C 11.995983 17.286569 -22.126452 0
M  V30 6 H 9.887958 14.957020 -20.878987 0
M  V30 7 H 11.637139 15.169051 -22.682372 0
M  V30 8 H 11.225482 18.806801 -20.615980 0
M  V30 9 H 11.763947 17.800326 -23.059489 0
M  V30 10 H 13.058090 17.280968 -21.882319 0
M  V30 END ATOM
M  V30 BEGIN BOND
M  V30 1 1 2 1
M  V30 2 2 3 2
M  V30 3 2 4 1
M  V30 4 1 5 3
M  V30 5 1 5 4
M  V30 6 1 6 2
M  V30 7 1 7 3
M  V30 8 1 8 4
M  V30 9 1 9 5
M  V30 10 1 10 5
M  V30 END BOND
M  V30 END CTAB
M  END
>  <i_epik_Tot_Q>  (1) 
0

>  <i_epik_Tot_abs_Q>  (1) 
0

>  <i_i_glide_confnum>  (1) 
1

>  <i_i_glide_lignum>  (1) 
2

>  <i_i_glide_posenum>  (1) 
290

>  <i_i_glide_rotatable_bonds>  (1) 
0

>  <i_lp_mmshare_version>  (1) 
72125

>  <i_m_source_file_index>  (1) 
2

>  <i_f3d_flags>  (1) 
0

>  <num_sample>  (1) 
100

>  <b_lp_Chiralities_Consistent>  (1) 
1

>  <r_epik_Charging_Adjusted_Penalty>  (1) 
0

>  <r_epik_Ionization_Penalty>  (1) 
0

>  <r_epik_Ionization_Penalty_Charging>  (1) 
0

>  <r_epik_Ionization_Penalty_Neutral>  (1) 
0

>  <r_epik_State_Penalty>  (1) 
-0

>  <r_glide_ring_energy>  (1) 
0

>  <r_i_docking_score>  (1) 
-4.2225063637512124

>  <r_i_glide_ecoul>  (1) 
-1.1314729785831799

>  <r_i_glide_eff_state_penalty>  (1) 
-0

>  <r_i_glide_einternal>  (1) 
0

>  <r_i_glide_emodel>  (1) 
-18.748785476342295

>  <r_i_glide_emodel_strain>  (1) 
0

>  <r_i_glide_energy>  (1) 
-14.796568732683619

>  <r_i_glide_erotb>  (1) 
0

>  <r_i_glide_esite>  (1) 
0

>  <r_i_glide_evdw>  (1) 
-13.66509575410044

>  <r_i_glide_gscore>  (1) 
-4.2225063637512124

>  <r_i_glide_gscore_strain>  (1) 
0

>  <r_i_glide_hbond>  (1) 
0

>  <r_i_glide_ligand_efficiency>  (1) 
-0.84450127275024245

>  <r_i_glide_ligand_efficiency_ln>  (1) 
-1.6181670173606204

>  <r_i_glide_ligand_efficiency_sa>  (1) 
-1.4440768633407715

>  <r_i_glide_lipo>  (1) 
-0.8226946429905212

>  <r_i_glide_metal>  (1) 
-0

>  <r_i_glide_rewards>  (1) 
-2.5468359862681922

>  <r_lp_Energy>  (1) 
-2.9532909999999997

>  <r_lp_tautomer_probability>  (1) 
1

>  <s_epik_Chemistry_Notes>  (1) 
This compound has an imine and may undergo hydrolysis.

>  <s_epik_cmdline>  (1) 
J2VwaWtfcHl0aG9uJywgJy1waHQnLCAnMS4wJywgJy1waCcsICc3LjQnLCAnLXRuJywgJzgnLCAnLW1hJywgJzUwMCcsICctaW1hZScsICc8aW5maWxlLm1hZT4nLCAnLW9tYWUnLCAnPG91dGZpbGUubWFlPic=

>  <s_epik_input>  (1) 
TjE9W0NIXVtDSDJdW0NIXT1bQ0hdMQ==

>  <s_glide_docking_method>  (1) 
confgen

>  <s_i_glide_gridfile>  (1) 
gpcr_drd2_6luq_protein_autoprepared_prepared

>  <s_lp_Force_Field>  (1) 
S-OPLS

>  <s_lp_Variant>  (1) 
Pocket2Mol_1_num_sample_100-1

>  <s_m_source_file>  (1) 
generated__ligand_Pocket2Mol_2026-05-06_prepared.sdf

>  <GenAI_Model>  (1) 
Pocket2Mol

>  <Protein>  (1) 
generic_title2

$$$$
Pocket2Mol_1_num_sample_100
     RDKit          3D

  0  0  0  0  0  0  0  0  0  0999 V3000
M  V30 BEGIN CTAB
M  V30 COUNTS 10 10 0 0 1
M  V30 BEGIN ATOM
M  V30 1 N 11.420711 8.236938 -5.347401 0
M  V30 2 C 10.647963 8.914087 -6.245089 0
M  V30 3 C 9.880492 8.168954 -6.980997 0
M  V30 4 C 11.034838 7.021242 -5.623836 0
M  V30 5 C 9.957997 6.723606 -6.741773 0
M  V30 6 H 10.712205 9.991334 -6.291649 0
M  V30 7 H 9.211399 8.562702 -7.733949 0
M  V30 8 H 11.430645 6.146619 -5.101019 0
M  V30 9 H 10.364479 6.158716 -7.580980 0
M  V30 10 H 9.037987 6.298123 -6.340054 0
M  V30 END ATOM
M  V30 BEGIN BOND
M  V30 1 1 2 1
M  V30 2 2 3 2
M  V30 3 2 4 1
M  V30 4 1 5 3
M  V30 5 1 5 4
M  V30 6 1 6 2
M  V30 7 1 7 3
M  V30 8 1 8 4
M  V30 9 1 9 5
M  V30 10 1 10 5
M  V30 END BOND
M  V30 END CTAB
M  END
>  <i_epik_Tot_Q>  (1) 
0

>  <i_epik_Tot_abs_Q>  (1) 
0

>  <i_i_glide_confnum>  (1) 
1

>  <i_i_glide_lignum>  (1) 
2

>  <i_i_glide_posenum>  (1) 
292

>  <i_i_glide_rotatable_bonds>  (1) 
0

>  <i_lp_mmshare_version>  (1) 
72125

>  <i_m_source_file_index>  (1) 
2

>  <i_f3d_flags>  (1) 
0

>  <num_sample>  (1) 
100

>  <b_lp_Chiralities_Consistent>  (1) 
1

>  <r_epik_Charging_Adjusted_Penalty>  (1) 
0

>  <r_epik_Ionization_Penalty>  (1) 
0

>  <r_epik_Ionization_Penalty_Charging>  (1) 
0

>  <r_epik_Ionization_Penalty_Neutral>  (1) 
0

>  <r_epik_State_Penalty>  (1) 
-0

>  <r_glide_ring_energy>  (1) 
0

>  <r_i_docking_score>  (1) 
-4.21840533741846

>  <r_i_glide_ecoul>  (1) 
-1.3794718248263802

>  <r_i_glide_eff_state_penalty>  (1) 
-0

>  <r_i_glide_einternal>  (1) 
0

>  <r_i_glide_emodel>  (1) 
-17.895794949637992

>  <r_i_glide_emodel_strain>  (1) 
0

>  <r_i_glide_energy>  (1) 
-13.947416718829794

>  <r_i_glide_erotb>  (1) 
0

>  <r_i_glide_esite>  (1) 
0

>  <r_i_glide_evdw>  (1) 
-12.567944894003414

>  <r_i_glide_gscore>  (1) 
-4.21840533741846

>  <r_i_glide_gscore_strain>  (1) 
0

>  <r_i_glide_hbond>  (1) 
0

>  <r_i_glide_ligand_efficiency>  (1) 
-0.84368106748369198

>  <r_i_glide_ligand_efficiency_ln>  (1) 
-1.6165954044422939

>  <r_i_glide_ligand_efficiency_sa>  (1) 
-1.4426743320636326

>  <r_i_glide_lipo>  (1) 
-0.38618044055573242

>  <r_i_glide_metal>  (1) 
-0

>  <r_i_glide_rewards>  (1) 
-2.9969068784385993

>  <r_lp_Energy>  (1) 
-2.9532909999999997

>  <r_lp_tautomer_probability>  (1) 
1

>  <s_epik_Chemistry_Notes>  (1) 
This compound has an imine and may undergo hydrolysis.

>  <s_epik_cmdline>  (1) 
J2VwaWtfcHl0aG9uJywgJy1waHQnLCAnMS4wJywgJy1waCcsICc3LjQnLCAnLXRuJywgJzgnLCAnLW1hJywgJzUwMCcsICctaW1hZScsICc8aW5maWxlLm1hZT4nLCAnLW9tYWUnLCAnPG91dGZpbGUubWFlPic=

>  <s_epik_input>  (1) 
TjE9W0NIXVtDSDJdW0NIXT1bQ0hdMQ==

>  <s_glide_docking_method>  (1) 
confgen

>  <s_i_glide_gridfile>  (1) 
gpcr_drd2_6luq_protein_autoprepared_prepared

>  <s_lp_Force_Field>  (1) 
S-OPLS

>  <s_lp_Variant>  (1) 
Pocket2Mol_1_num_sample_100-1

>  <s_m_source_file>  (1) 
generated__ligand_Pocket2Mol_2026-05-06_prepared.sdf

>  <GenAI_Model>  (1) 
Pocket2Mol

>  <Protein>  (1) 
generic_title2

$$$$
Pocket2Mol_5_num_sample_100
     RDKit          3D

  0  0  0  0  0  0  0  0  0  0999 V3000
M  V30 BEGIN CTAB
M  V30 COUNTS 16 16 0 0 1
M  V30 BEGIN ATOM
M  V30 1 C 9.961467 6.969519 -8.484978 0
M  V30 2 O 10.625596 8.163695 -8.893242 0
M  V30 3 C 11.771405 8.471264 -8.107179 0
M  V30 4 C 11.360925 8.691075 -6.641960 0
M  V30 5 C 10.634764 7.452623 -6.104598 0
M  V30 6 C 9.468044 7.103733 -7.035618 0
M  V30 7 H 9.117217 6.787868 -9.150340 0
M  V30 8 H 10.634501 6.116767 -8.585750 0
M  V30 9 H 12.509001 7.672913 -8.187797 0
M  V30 10 H 12.234967 9.369230 -8.512210 0
M  V30 11 H 12.234853 8.919967 -6.032718 0
M  V30 12 H 10.700986 9.555862 -6.574852 0
M  V30 13 H 11.325858 6.610093 -6.050334 0
M  V30 14 H 10.272432 7.627339 -5.091668 0
M  V30 15 H 8.705167 7.882032 -6.983807 0
M  V30 16 H 8.985615 6.180317 -6.712999 0
M  V30 END ATOM
M  V30 BEGIN BOND
M  V30 1 1 2 1
M  V30 2 1 3 2
M  V30 3 1 4 3
M  V30 4 1 5 4
M  V30 5 1 6 1
M  V30 6 1 6 5
M  V30 7 1 7 1
M  V30 8 1 8 1
M  V30 9 1 9 3
M  V30 10 1 10 3
M  V30 11 1 11 4
M  V30 12 1 12 4
M  V30 13 1 13 5
M  V30 14 1 14 5
M  V30 15 1 15 6
M  V30 16 1 16 6
M  V30 END BOND
M  V30 END CTAB
M  END
>  <i_epik_Tot_Q>  (1) 
0

>  <i_epik_Tot_abs_Q>  (1) 
0

>  <i_i_glide_confnum>  (1) 
2

>  <i_i_glide_lignum>  (1) 
6

>  <i_i_glide_posenum>  (1) 
371

>  <i_i_glide_rotatable_bonds>  (1) 
0

>  <i_lp_mmshare_version>  (1) 
72125

>  <i_m_source_file_index>  (1) 
6

>  <i_f3d_flags>  (1) 
0

>  <num_sample>  (1) 
100

>  <b_lp_Chiralities_Consistent>  (1) 
1

>  <r_epik_Charging_Adjusted_Penalty>  (1) 
0

>  <r_epik_Ionization_Penalty>  (1) 
1.5229185111393156e-11

>  <r_epik_Ionization_Penalty_Charging>  (1) 
0

>  <r_epik_Ionization_Penalty_Neutral>  (1) 
1.5229185111393156e-11

>  <r_epik_State_Penalty>  (1) 
-0

>  <r_glide_ring_energy>  (1) 
0.00023819064548269558

>  <r_i_docking_score>  (1) 
-4.2146079606333853

>  <r_i_glide_ecoul>  (1) 
-0.17748957674817289

>  <r_i_glide_eff_state_penalty>  (1) 
-0

>  <r_i_glide_einternal>  (1) 
0

>  <r_i_glide_emodel>  (1) 
-18.336460550711507

>  <r_i_glide_emodel_strain>  (1) 
0

>  <r_i_glide_energy>  (1) 
-14.33521480115286

>  <r_i_glide_erotb>  (1) 
0

>  <r_i_glide_esite>  (1) 
0

>  <r_i_glide_evdw>  (1) 
-14.157725224404688

>  <r_i_glide_gscore>  (1) 
-4.2146079606333853

>  <r_i_glide_gscore_strain>  (1) 
0

>  <r_i_glide_hbond>  (1) 
0

>  <r_i_glide_ligand_efficiency>  (1) 
-0.70243466010556421

>  <r_i_glide_ligand_efficiency_ln>  (1) 
-1.5096601290650444

>  <r_i_glide_ligand_efficiency_sa>  (1) 
-1.2764084859968654

>  <r_i_glide_lipo>  (1) 
-0.75256198475015856

>  <r_i_glide_metal>  (1) 
-0

>  <r_i_glide_rewards>  (1) 
-2.7275362781507662

>  <r_lp_Energy>  (1) 
2.9645999999999999

>  <r_lp_tautomer_probability>  (1) 
1

>  <s_epik_cmdline>  (1) 
J2VwaWtfcHl0aG9uJywgJy1waHQnLCAnMS4wJywgJy1waCcsICc3LjQnLCAnLXRuJywgJzgnLCAnLW1hJywgJzUwMCcsICctaW1hZScsICc8aW5maWxlLm1hZT4nLCAnLW9tYWUnLCAnPG91dGZpbGUubWFlPic=

>  <s_epik_input>  (1) 
W0NIMl0xT1tDSDJdW0NIMl1bQ0gyXVtDSDJdMQ==

>  <s_glide_docking_method>  (1) 
confgen

>  <s_i_glide_gridfile>  (1) 
gpcr_drd2_6luq_protein_autoprepared_prepared

>  <s_lp_Force_Field>  (1) 
S-OPLS

>  <s_lp_Variant>  (1) 
Pocket2Mol_5_num_sample_100-1

>  <s_m_source_file>  (1) 
generated__ligand_Pocket2Mol_2026-05-06_prepared.sdf

>  <GenAI_Model>  (1) 
Pocket2Mol

>  <Protein>  (1) 
generic_title2

$$$$
Pocket2Mol_99_num_sample_100
     RDKit          3D

  0  0  0  0  0  0  0  0  0  0999 V3000
M  V30 BEGIN CTAB
M  V30 COUNTS 11 11 0 0 1
M  V30 BEGIN ATOM
M  V30 1 O 11.834839 9.606765 -2.804091 0
M  V30 2 C 12.251010 8.570357 -1.932559 0
M  V30 3 C 12.562988 7.396254 -2.856493 0
M  V30 4 C 11.951383 9.101293 -4.086618 0
M  V30 5 O 11.835178 7.726068 -4.016811 0
M  V30 6 H 13.113531 8.865732 -1.334048 0
M  V30 7 H 11.434632 8.325518 -1.257103 0
M  V30 8 H 13.626257 7.366334 -3.092847 0
M  V30 9 H 12.273293 6.430292 -2.442604 0
M  V30 10 H 11.181561 9.521254 -4.734120 0
M  V30 11 H 12.932602 9.366283 -4.487221 0
M  V30 END ATOM
M  V30 BEGIN BOND
M  V30 1 1 2 1
M  V30 2 1 3 2
M  V30 3 1 4 1
M  V30 4 1 5 3
M  V30 5 1 5 4
M  V30 6 1 6 2
M  V30 7 1 7 2
M  V30 8 1 8 3
M  V30 9 1 9 3
M  V30 10 1 10 4
M  V30 11 1 11 4
M  V30 END BOND
M  V30 END CTAB
M  END
>  <i_epik_Tot_Q>  (1) 
0

>  <i_epik_Tot_abs_Q>  (1) 
0

>  <i_i_glide_confnum>  (1) 
2

>  <i_i_glide_lignum>  (1) 
108

>  <i_i_glide_posenum>  (1) 
206

>  <i_i_glide_rotatable_bonds>  (1) 
0

>  <i_lp_mmshare_version>  (1) 
72125

>  <i_m_source_file_index>  (1) 
100

>  <i_f3d_flags>  (1) 
0

>  <num_sample>  (1) 
100

>  <b_lp_Chiralities_Consistent>  (1) 
1

>  <r_epik_Charging_Adjusted_Penalty>  (1) 
0

>  <r_epik_Ionization_Penalty>  (1) 
7.9724310449397378e-14

>  <r_epik_Ionization_Penalty_Charging>  (1) 
0

>  <r_epik_Ionization_Penalty_Neutral>  (1) 
7.9724310449397378e-14

>  <r_epik_State_Penalty>  (1) 
-0

>  <r_glide_ring_energy>  (1) 
1.1396681620093737e-05

>  <r_i_docking_score>  (1) 
-4.2061859325960418

>  <r_i_glide_ecoul>  (1) 
0.12971317358899628

>  <r_i_glide_eff_state_penalty>  (1) 
-0

>  <r_i_glide_einternal>  (1) 
0

>  <r_i_glide_emodel>  (1) 
-16.930544983345875

>  <r_i_glide_emodel_strain>  (1) 
0.013498560861075148

>  <r_i_glide_energy>  (1) 
-13.25893405888505

>  <r_i_glide_erotb>  (1) 
0

>  <r_i_glide_esite>  (1) 
0

>  <r_i_glide_evdw>  (1) 
-13.388647232474046

>  <r_i_glide_gscore>  (1) 
-4.2061859325960418

>  <r_i_glide_gscore_strain>  (1) 
0

>  <r_i_glide_hbond>  (1) 
0

>  <r_i_glide_ligand_efficiency>  (1) 
-0.84123718651920831

>  <r_i_glide_ligand_efficiency_ln>  (1) 
-1.6119126316642209

>  <r_i_glide_ligand_efficiency_sa>  (1) 
-1.4384953543978245

>  <r_i_glide_lipo>  (1) 
-0.66000000000000003

>  <r_i_glide_metal>  (1) 
-0

>  <r_i_glide_rewards>  (1) 
-2.8962105470106891

>  <r_lp_Energy>  (1) 
-12.242958999999999

>  <r_lp_tautomer_probability>  (1) 
1

>  <s_epik_Chemistry_Notes>  (1) 
This compound contains an acetal/aminal-like group ( X-CH(R)-Y where X, Y are N, S, or O) that may be acid/base labile, releasing an aldehyde.

>  <s_epik_cmdline>  (1) 
J2VwaWtfcHl0aG9uJywgJy1waHQnLCAnMS4wJywgJy1waCcsICc3LjQnLCAnLXRuJywgJzgnLCAnLW1hJywgJzUwMCcsICctaW1hZScsICc8aW5maWxlLm1hZT4nLCAnLW9tYWUnLCAnPG91dGZpbGUubWFlPic=

>  <s_epik_input>  (1) 
TzFbQ0gyXVtDSDJdT1tDSDJdMQ==

>  <s_glide_docking_method>  (1) 
confgen

>  <s_i_glide_gridfile>  (1) 
gpcr_drd2_6luq_protein_autoprepared_prepared

>  <s_lp_Force_Field>  (1) 
S-OPLS

>  <s_lp_Variant>  (1) 
Pocket2Mol_99_num_sample_100-1

>  <s_m_source_file>  (1) 
generated__ligand_Pocket2Mol_2026-05-06_prepared.sdf

>  <GenAI_Model>  (1) 
Pocket2Mol

>  <Protein>  (1) 
generic_title2

$$$$
Pocket2Mol_33_num_sample_100
     RDKit          3D

  0  0  0  0  0  0  0  0  0  0999 V3000
M  V30 BEGIN CTAB
M  V30 COUNTS 12 12 0 0 1
M  V30 BEGIN ATOM
M  V30 1 N 12.234822 7.668205 -3.491969 0
M  V30 2 C 12.276340 8.969267 -3.686813 0
M  V30 3 C 11.670754 9.341341 -4.757355 0
M  V30 4 C 11.034621 8.210463 -5.545536 0
M  V30 5 C 11.434805 6.969301 -4.519522 0
M  V30 6 H 12.785713 9.580582 -2.954967 0
M  V30 7 H 9.957123 8.339490 -5.649709 0
M  V30 8 H 11.495658 8.108159 -6.528128 0
M  V30 9 H 10.553394 6.506974 -4.075109 0
M  V30 10 H 12.017506 6.195868 -5.020540 0
M  V30 11 H 11.591574 10.367319 -5.086526 0
M  V30 12 H 12.431882 7.237237 -2.599512 0
M  V30 END ATOM
M  V30 BEGIN BOND
M  V30 1 1 2 1
M  V30 2 2 3 2
M  V30 3 1 4 3
M  V30 4 1 5 1
M  V30 5 1 5 4
M  V30 6 1 6 2
M  V30 7 1 7 4
M  V30 8 1 8 4
M  V30 9 1 9 5
M  V30 10 1 10 5
M  V30 11 1 11 3
M  V30 12 1 12 1
M  V30 END BOND
M  V30 END CTAB
M  END
>  <i_epik_Tot_Q>  (1) 
0

>  <i_epik_Tot_abs_Q>  (1) 
0

>  <i_i_glide_confnum>  (1) 
1

>  <i_i_glide_lignum>  (1) 
37

>  <i_i_glide_posenum>  (1) 
235

>  <i_i_glide_rotatable_bonds>  (1) 
0

>  <i_lp_mmshare_version>  (1) 
72125

>  <i_m_source_file_index>  (1) 
34

>  <i_f3d_flags>  (1) 
0

>  <num_sample>  (1) 
100

>  <b_lp_Chiralities_Consistent>  (1) 
1

>  <r_epik_Charging_Adjusted_Penalty>  (1) 
1.6042444336516156e-06

>  <r_epik_Ionization_Penalty>  (1) 
0.0023556498582944039

>  <r_epik_Ionization_Penalty_Charging>  (1) 
1.6042444336516156e-06

>  <r_epik_Ionization_Penalty_Neutral>  (1) 
0.0023540456138607521

>  <r_epik_State_Penalty>  (1) 
-0

>  <r_glide_ring_energy>  (1) 
0

>  <r_i_docking_score>  (1) 
-4.1984206393717072

>  <r_i_glide_ecoul>  (1) 
-0.88915026451953327

>  <r_i_glide_eff_state_penalty>  (1) 
-0

>  <r_i_glide_einternal>  (1) 
0

>  <r_i_glide_emodel>  (1) 
-17.894880260001848

>  <r_i_glide_emodel_strain>  (1) 
0

>  <r_i_glide_energy>  (1) 
-13.6976526271423

>  <r_i_glide_erotb>  (1) 
0

>  <r_i_glide_esite>  (1) 
0

>  <r_i_glide_evdw>  (1) 
-12.808502362622766

>  <r_i_glide_gscore>  (1) 
-4.1984206393717072

>  <r_i_glide_gscore_strain>  (1) 
0

>  <r_i_glide_hbond>  (1) 
0

>  <r_i_glide_ligand_efficiency>  (1) 
-0.83968412787434143

>  <r_i_glide_ligand_efficiency_ln>  (1) 
-1.6089367826557688

>  <r_i_glide_ligand_efficiency_sa>  (1) 
-1.4358396614713238

>  <r_i_glide_lipo>  (1) 
-1.1746229815626388

>  <r_i_glide_metal>  (1) 
-0

>  <r_i_glide_rewards>  (1) 
-2.25

>  <r_lp_Energy>  (1) 
2.9163329999999998

>  <r_lp_tautomer_probability>  (1) 
1

>  <s_epik_Chemistry_Notes>  (1) 
This compound has an imine and may undergo hydrolysis.

>  <s_epik_cmdline>  (1) 
J2VwaWtfcHl0aG9uJywgJy1waHQnLCAnMS4wJywgJy1waCcsICc3LjQnLCAnLXRuJywgJzgnLCAnLW1hJywgJzUwMCcsICctaW1hZScsICc8aW5maWxlLm1hZT4nLCAnLW9tYWUnLCAnPG91dGZpbGUubWFlPic=

>  <s_epik_input>  (1) 
W05IXTFbQ0hdPVtDSF1bQ0gyXVtDSDJdMQ==

>  <s_glide_docking_method>  (1) 
confgen

>  <s_i_glide_gridfile>  (1) 
gpcr_drd2_6luq_protein_autoprepared_prepared

>  <s_lp_Force_Field>  (1) 
S-OPLS

>  <s_lp_Variant>  (1) 
Pocket2Mol_33_num_sample_100-1

>  <s_m_source_file>  (1) 
generated__ligand_Pocket2Mol_2026-05-06_prepared.sdf

>  <GenAI_Model>  (1) 
Pocket2Mol

>  <Protein>  (1) 
generic_title2

$$$$
Pocket2Mol_77_num_sample_100
     RDKit          3D

  0  0  0  0  0  0  0  0  0  0999 V3000
M  V30 BEGIN CTAB
M  V30 COUNTS 11 11 0 0 1
M  V30 BEGIN ATOM
M  V30 1 C 12.422820 8.530978 -2.187724 0
M  V30 2 O 12.161506 9.368677 -3.381460 0
M  V30 3 C 12.186453 6.972454 -2.489384 0
M  V30 4 C 11.834839 7.205887 -3.889572 0
M  V30 5 C 11.834840 8.436976 -4.291658 0
M  V30 6 H 11.782934 8.864021 -1.370624 0
M  V30 7 H 13.449610 8.697445 -1.863389 0
M  V30 8 H 11.352622 6.542836 -1.932977 0
M  V30 9 H 13.080613 6.359710 -2.385918 0
M  V30 10 H 11.587962 6.373449 -4.533284 0
M  V30 11 H 11.605185 8.822344 -5.274484 0
M  V30 END ATOM
M  V30 BEGIN BOND
M  V30 1 1 2 1
M  V30 2 1 3 1
M  V30 3 1 4 3
M  V30 4 1 5 2
M  V30 5 2 5 4
M  V30 6 1 6 1
M  V30 7 1 7 1
M  V30 8 1 8 3
M  V30 9 1 9 3
M  V30 10 1 10 4
M  V30 11 1 11 5
M  V30 END BOND
M  V30 END CTAB
M  END
>  <i_epik_Tot_Q>  (1) 
0

>  <i_epik_Tot_abs_Q>  (1) 
0

>  <i_i_glide_confnum>  (1) 
1

>  <i_i_glide_lignum>  (1) 
84

>  <i_i_glide_posenum>  (1) 
10

>  <i_i_glide_rotatable_bonds>  (1) 
0

>  <i_lp_mmshare_version>  (1) 
72125

>  <i_m_source_file_index>  (1) 
78

>  <i_f3d_flags>  (1) 
0

>  <num_sample>  (1) 
100

>  <b_lp_Chiralities_Consistent>  (1) 
1

>  <r_epik_Charging_Adjusted_Penalty>  (1) 
0

>  <r_epik_Ionization_Penalty>  (1) 
0

>  <r_epik_Ionization_Penalty_Charging>  (1) 
0

>  <r_epik_Ionization_Penalty_Neutral>  (1) 
0

>  <r_epik_State_Penalty>  (1) 
-0

>  <r_glide_ring_energy>  (1) 
0

>  <r_i_docking_score>  (1) 
-4.1957615691660965

>  <r_i_glide_ecoul>  (1) 
-0.63765031437541053

>  <r_i_glide_eff_state_penalty>  (1) 
-0

>  <r_i_glide_einternal>  (1) 
0

>  <r_i_glide_emodel>  (1) 
-17.150776327269696

>  <r_i_glide_emodel_strain>  (1) 
0

>  <r_i_glide_energy>  (1) 
-13.516911286221532

>  <r_i_glide_erotb>  (1) 
0

>  <r_i_glide_esite>  (1) 
0

>  <r_i_glide_evdw>  (1) 
-12.879260971846122

>  <r_i_glide_gscore>  (1) 
-4.1957615691660965

>  <r_i_glide_gscore_strain>  (1) 
0

>  <r_i_glide_hbond>  (1) 
0

>  <r_i_glide_ligand_efficiency>  (1) 
-0.83915231383321931

>  <r_i_glide_ligand_efficiency_ln>  (1) 
-1.6079177623552894

>  <r_i_glide_ligand_efficiency_sa>  (1) 
-1.4349302722529

>  <r_i_glide_lipo>  (1) 
-1.0163623307354221

>  <r_i_glide_metal>  (1) 
-0

>  <r_i_glide_rewards>  (1) 
-2.439788642682057

>  <r_lp_Energy>  (1) 
-3.1771669999999999

>  <r_lp_tautomer_probability>  (1) 
1

>  <s_epik_cmdline>  (1) 
J2VwaWtfcHl0aG9uJywgJy1waHQnLCAnMS4wJywgJy1waCcsICc3LjQnLCAnLXRuJywgJzgnLCAnLW1hJywgJzUwMCcsICctaW1hZScsICc8aW5maWxlLm1hZT4nLCAnLW9tYWUnLCAnPG91dGZpbGUubWFlPic=

>  <s_epik_input>  (1) 
W0NIMl0xT1tDSF09W0NIXVtDSDJdMQ==

>  <s_glide_docking_method>  (1) 
confgen

>  <s_i_glide_gridfile>  (1) 
gpcr_drd2_6luq_protein_autoprepared_prepared

>  <s_lp_Force_Field>  (1) 
S-OPLS

>  <s_lp_Variant>  (1) 
Pocket2Mol_77_num_sample_100-1

>  <s_m_source_file>  (1) 
generated__ligand_Pocket2Mol_2026-05-06_prepared.sdf

>  <GenAI_Model>  (1) 
Pocket2Mol

>  <Protein>  (1) 
generic_title2

$$$$
Pocket2Mol_7_num_sample_100
     RDKit          3D

  0  0  0  0  0  0  0  0  0  0999 V3000
M  V30 BEGIN CTAB
M  V30 COUNTS 11 11 0 0 1
M  V30 BEGIN ATOM
M  V30 1 N 11.842610 8.949980 -6.991270 0
M  V30 2 C 10.715289 8.569302 -6.344446 0
M  V30 3 C 9.690127 7.818391 -6.948644 0
M  V30 4 C 9.834839 7.436183 -8.290255 0
M  V30 5 C 10.999098 7.817778 -8.973486 0
M  V30 6 C 11.970537 8.569301 -8.285822 0
M  V30 7 H 10.629893 8.876971 -5.312748 0
M  V30 8 H 8.806088 7.542008 -6.391181 0
M  V30 9 H 9.065974 6.860823 -8.786153 0
M  V30 10 H 11.146047 7.541316 -10.006700 0
M  V30 11 H 12.876350 8.877106 -8.787227 0
M  V30 END ATOM
M  V30 BEGIN BOND
M  V30 1 2 2 1
M  V30 2 1 3 2
M  V30 3 2 4 3
M  V30 4 1 5 4
M  V30 5 1 6 1
M  V30 6 2 6 5
M  V30 7 1 7 2
M  V30 8 1 8 3
M  V30 9 1 9 4
M  V30 10 1 10 5
M  V30 11 1 11 6
M  V30 END BOND
M  V30 END CTAB
M  END
>  <i_epik_Tot_Q>  (1) 
0

>  <i_epik_Tot_abs_Q>  (1) 
0

>  <i_i_glide_confnum>  (1) 
1

>  <i_i_glide_lignum>  (1) 
8

>  <i_i_glide_posenum>  (1) 
220

>  <i_i_glide_rotatable_bonds>  (1) 
0

>  <i_lp_mmshare_version>  (1) 
72125

>  <i_m_source_file_index>  (1) 
8

>  <i_f3d_flags>  (1) 
0

>  <num_sample>  (1) 
100

>  <b_lp_Chiralities_Consistent>  (1) 
1

>  <r_epik_Charging_Adjusted_Penalty>  (1) 
0

>  <r_epik_Ionization_Penalty>  (1) 
0.0028947865417402485

>  <r_epik_Ionization_Penalty_Charging>  (1) 
0

>  <r_epik_Ionization_Penalty_Neutral>  (1) 
0.0028947865417402485

>  <r_epik_State_Penalty>  (1) 
-0

>  <r_glide_ring_energy>  (1) 
0

>  <r_i_docking_score>  (1) 
-4.1949727283001481

>  <r_i_glide_ecoul>  (1) 
-1.1553132832634005

>  <r_i_glide_eff_state_penalty>  (1) 
-0

>  <r_i_glide_einternal>  (1) 
0

>  <r_i_glide_emodel>  (1) 
-18.859902518970593

>  <r_i_glide_emodel_strain>  (1) 
0

>  <r_i_glide_energy>  (1) 
-14.828245162904308

>  <r_i_glide_erotb>  (1) 
0

>  <r_i_glide_esite>  (1) 
0

>  <r_i_glide_evdw>  (1) 
-13.672931879640908

>  <r_i_glide_gscore>  (1) 
-4.1949727283001481

>  <r_i_glide_gscore_strain>  (1) 
0

>  <r_i_glide_hbond>  (1) 
0

>  <r_i_glide_ligand_efficiency>  (1) 
-0.69916212138335798

>  <r_i_glide_ligand_efficiency_ln>  (1) 
-1.5026268468107296

>  <r_i_glide_ligand_efficiency_sa>  (1) 
-1.2704618884939041

>  <r_i_glide_lipo>  (1) 
-0.67969580849525879

>  <r_i_glide_metal>  (1) 
-0

>  <r_i_glide_rewards>  (1) 
-2.6583333333333332

>  <r_lp_Energy>  (1) 
11.088944

>  <r_lp_tautomer_probability>  (1) 
1

>  <s_epik_cmdline>  (1) 
J2VwaWtfcHl0aG9uJywgJy1waHQnLCAnMS4wJywgJy1waCcsICc3LjQnLCAnLXRuJywgJzgnLCAnLW1hJywgJzUwMCcsICctaW1hZScsICc8aW5maWxlLm1hZT4nLCAnLW9tYWUnLCAnPG91dGZpbGUubWFlPic=

>  <s_epik_input>  (1) 
bjFbY0hdW2NIXVtjSF1bY0hdW2NIXTE=

>  <s_glide_docking_method>  (1) 
confgen

>  <s_i_glide_gridfile>  (1) 
gpcr_drd2_6luq_protein_autoprepared_prepared

>  <s_lp_Force_Field>  (1) 
S-OPLS

>  <s_lp_Variant>  (1) 
Pocket2Mol_7_num_sample_100-1

>  <s_m_source_file>  (1) 
generated__ligand_Pocket2Mol_2026-05-06_prepared.sdf

>  <GenAI_Model>  (1) 
Pocket2Mol

>  <Protein>  (1) 
generic_title2

$$$$
Pocket2Mol_7_num_sample_100
     RDKit          3D

  0  0  0  0  0  0  0  0  0  0999 V3000
M  V30 BEGIN CTAB
M  V30 COUNTS 11 11 0 0 1
M  V30 BEGIN ATOM
M  V30 1 N 10.635135 8.787721 -6.121472 0
M  V30 2 C 9.664579 8.169288 -6.838183 0
M  V30 3 C 9.841675 7.726155 -8.162533 0
M  V30 4 C 11.081447 7.930947 -8.782799 0
M  V30 5 C 12.096340 8.569301 -8.055669 0
M  V30 6 C 11.827664 8.977233 -6.734541 0
M  V30 7 H 8.718018 8.025922 -6.337541 0
M  V30 8 H 9.034837 7.239434 -8.691727 0
M  V30 9 H 11.251017 7.604502 -9.798379 0
M  V30 10 H 13.065166 8.745053 -8.500270 0
M  V30 11 H 12.591320 9.470781 -6.151629 0
M  V30 END ATOM
M  V30 BEGIN BOND
M  V30 1 2 2 1
M  V30 2 1 3 2
M  V30 3 2 4 3
M  V30 4 1 5 4
M  V30 5 1 6 1
M  V30 6 2 6 5
M  V30 7 1 7 2
M  V30 8 1 8 3
M  V30 9 1 9 4
M  V30 10 1 10 5
M  V30 11 1 11 6
M  V30 END BOND
M  V30 END CTAB
M  END
>  <i_epik_Tot_Q>  (1) 
0

>  <i_epik_Tot_abs_Q>  (1) 
0

>  <i_i_glide_confnum>  (1) 
1

>  <i_i_glide_lignum>  (1) 
8

>  <i_i_glide_posenum>  (1) 
400

>  <i_i_glide_rotatable_bonds>  (1) 
0

>  <i_lp_mmshare_version>  (1) 
72125

>  <i_m_source_file_index>  (1) 
8

>  <i_f3d_flags>  (1) 
0

>  <num_sample>  (1) 
100

>  <b_lp_Chiralities_Consistent>  (1) 
1

>  <r_epik_Charging_Adjusted_Penalty>  (1) 
0

>  <r_epik_Ionization_Penalty>  (1) 
0.0028947865417402485

>  <r_epik_Ionization_Penalty_Charging>  (1) 
0

>  <r_epik_Ionization_Penalty_Neutral>  (1) 
0.0028947865417402485

>  <r_epik_State_Penalty>  (1) 
-0

>  <r_glide_ring_energy>  (1) 
0

>  <r_i_docking_score>  (1) 
-4.1811496066446141

>  <r_i_glide_ecoul>  (1) 
-1.1960010472384695

>  <r_i_glide_eff_state_penalty>  (1) 
-0

>  <r_i_glide_einternal>  (1) 
0

>  <r_i_glide_emodel>  (1) 
-19.008063600140591

>  <r_i_glide_emodel_strain>  (1) 
0

>  <r_i_glide_energy>  (1) 
-14.989691214851439

>  <r_i_glide_erotb>  (1) 
0

>  <r_i_glide_esite>  (1) 
0

>  <r_i_glide_evdw>  (1) 
-13.793690167612969

>  <r_i_glide_gscore>  (1) 
-4.1811496066446141

>  <r_i_glide_gscore_strain>  (1) 
0

>  <r_i_glide_hbond>  (1) 
0

>  <r_i_glide_ligand_efficiency>  (1) 
-0.69685826777410231

>  <r_i_glide_ligand_efficiency_ln>  (1) 
-1.4976754454425607

>  <r_i_glide_ligand_efficiency_sa>  (1) 
-1.2662755086576549

>  <r_i_glide_lipo>  (1) 
-0.63706494117819534

>  <r_i_glide_metal>  (1) 
-0

>  <r_i_glide_rewards>  (1) 
-2.6749999999999998

>  <r_lp_Energy>  (1) 
11.088944

>  <r_lp_tautomer_probability>  (1) 
1

>  <s_epik_cmdline>  (1) 
J2VwaWtfcHl0aG9uJywgJy1waHQnLCAnMS4wJywgJy1waCcsICc3LjQnLCAnLXRuJywgJzgnLCAnLW1hJywgJzUwMCcsICctaW1hZScsICc8aW5maWxlLm1hZT4nLCAnLW9tYWUnLCAnPG91dGZpbGUubWFlPic=

>  <s_epik_input>  (1) 
bjFbY0hdW2NIXVtjSF1bY0hdW2NIXTE=

>  <s_glide_docking_method>  (1) 
confgen

>  <s_i_glide_gridfile>  (1) 
gpcr_drd2_6luq_protein_autoprepared_prepared

>  <s_lp_Force_Field>  (1) 
S-OPLS

>  <s_lp_Variant>  (1) 
Pocket2Mol_7_num_sample_100-1

>  <s_m_source_file>  (1) 
generated__ligand_Pocket2Mol_2026-05-06_prepared.sdf

>  <GenAI_Model>  (1) 
Pocket2Mol

>  <Protein>  (1) 
generic_title2

$$$$
Pocket2Mol_91_num_sample_100
     RDKit          3D

  0  0  0  0  0  0  0  0  0  0999 V3000
M  V30 BEGIN CTAB
M  V30 COUNTS 21 22 0 0 1
M  V30 BEGIN ATOM
M  V30 1 C 12.591684 8.427631 -8.256851 0
M  V30 2 O 11.497703 8.917593 -7.500075 0
M  V30 3 C 12.279613 8.568031 -9.737912 0
M  V30 4 O 10.888304 8.569215 -9.947284 0
M  V30 5 C 10.574864 8.037675 -7.066548 0
M  V30 6 C 10.218966 7.450117 -9.537421 0
M  V30 7 C 9.675102 6.576640 -10.488872 0
M  V30 8 O 10.234873 7.953179 -5.891667 0
M  V30 9 C 10.026921 7.159017 -8.162282 0
M  V30 10 C 8.960601 5.448367 -10.047011 0
M  V30 11 C 9.279854 6.012291 -7.824954 0
M  V30 12 N 8.417177 4.569284 -10.974954 0
M  V30 13 N 8.765213 5.157322 -8.741115 0
M  V30 14 H 13.501530 8.969512 -8.002519 0
M  V30 15 H 12.773840 7.381806 -8.002755 0
M  V30 16 H 12.634762 9.526731 -10.107992 0
M  V30 17 H 12.768321 7.789544 -10.321479 0
M  V30 18 H 9.797780 6.771563 -11.543330 0
M  V30 19 H 9.100499 5.764204 -6.789535 0
M  V30 20 H 8.510997 4.723799 -11.966649 0
M  V30 21 H 7.887395 3.762587 -10.683730 0
M  V30 END ATOM
M  V30 BEGIN BOND
M  V30 1 1 2 1
M  V30 2 1 3 1
M  V30 3 1 4 3
M  V30 4 1 5 2
M  V30 5 1 6 4
M  V30 6 1 7 6
M  V30 7 2 8 5
M  V30 8 1 9 5
M  V30 9 2 9 6
M  V30 10 2 10 7
M  V30 11 1 11 9
M  V30 12 1 12 10
M  V30 13 1 13 10
M  V30 14 2 13 11
M  V30 15 1 14 1
M  V30 16 1 15 1
M  V30 17 1 16 3
M  V30 18 1 17 3
M  V30 19 1 18 7
M  V30 20 1 19 11
M  V30 21 1 20 12
M  V30 22 1 21 12
M  V30 END BOND
M  V30 END CTAB
M  END
>  <i_epik_Tot_Q>  (1) 
0

>  <i_epik_Tot_abs_Q>  (1) 
0

>  <i_i_glide_confnum>  (1) 
1

>  <i_i_glide_lignum>  (1) 
99

>  <i_i_glide_posenum>  (1) 
18

>  <i_i_glide_rotatable_bonds>  (1) 
0

>  <i_lp_mmshare_version>  (1) 
72125

>  <i_m_source_file_index>  (1) 
92

>  <i_f3d_flags>  (1) 
0

>  <num_sample>  (1) 
100

>  <b_lp_Chiralities_Consistent>  (1) 
1

>  <r_epik_Charging_Adjusted_Penalty>  (1) 
0.47186222519243537

>  <r_epik_Ionization_Penalty>  (1) 
0.4718627144316776

>  <r_epik_Ionization_Penalty_Charging>  (1) 
0

>  <r_epik_Ionization_Penalty_Neutral>  (1) 
0.4718627144316776

>  <r_epik_State_Penalty>  (1) 
0.47186222519243537

>  <r_glide_ring_energy>  (1) 
0

>  <r_i_docking_score>  (1) 
-4.1734231630744283

>  <r_i_glide_ecoul>  (1) 
0.089063565006535117

>  <r_i_glide_eff_state_penalty>  (1) 
0.47186222519243537

>  <r_i_glide_einternal>  (1) 
0

>  <r_i_glide_emodel>  (1) 
-31.500568145623696

>  <r_i_glide_emodel_strain>  (1) 
0

>  <r_i_glide_energy>  (1) 
-24.223398481520256

>  <r_i_glide_erotb>  (1) 
0

>  <r_i_glide_esite>  (1) 
0

>  <r_i_glide_evdw>  (1) 
-24.31246204652679

>  <r_i_glide_gscore>  (1) 
-4.6452853882668634

>  <r_i_glide_gscore_strain>  (1) 
0

>  <r_i_glide_hbond>  (1) 
0

>  <r_i_glide_ligand_efficiency>  (1) 
-0.32103255100572525

>  <r_i_glide_ligand_efficiency_ln>  (1) 
-1.1706823139967864

>  <r_i_glide_ligand_efficiency_sa>  (1) 
-0.75485497306724525

>  <r_i_glide_lipo>  (1) 
-0.5381983677218487

>  <r_i_glide_metal>  (1) 
-0

>  <r_i_glide_rewards>  (1) 
-2.9048234529696555

>  <r_lp_Energy>  (1) 
11.927572999999999

>  <s_epik_Chemistry_Notes>  (1) 
This compound has an ester and may undergo hydrolysis at high or low pH.

>  <s_epik_cmdline>  (1) 
J2VwaWtfcHl0aG9uJywgJy1waHQnLCAnMS4wJywgJy1waCcsICc3LjQnLCAnLXRuJywgJzgnLCAnLW1hJywgJzUwMCcsICctaW1hZScsICc8aW5maWxlLm1hZT4nLCAnLW9tYWUnLCAnPG91dGZpbGUubWFlPic=

>  <s_epik_input>  (1) 
TzFbQ0gyXVtDSDJdT0MoPU8pYyhjMTIpW2NIXW5jKFtjSF0yKVtOSDJd

>  <s_glide_docking_method>  (1) 
confgen

>  <s_i_glide_gridfile>  (1) 
gpcr_drd2_6luq_protein_autoprepared_prepared

>  <s_lp_Force_Field>  (1) 
S-OPLS

>  <s_lp_Variant>  (1) 
Pocket2Mol_91_num_sample_100-2

>  <s_m_source_file>  (1) 
generated__ligand_Pocket2Mol_2026-05-06_prepared.sdf

>  <GenAI_Model>  (1) 
Pocket2Mol

>  <Protein>  (1) 
generic_title2

$$$$
Pocket2Mol_11_num_sample_100
     RDKit          3D

  0  0  0  0  0  0  0  0  0  0999 V3000
M  V30 BEGIN CTAB
M  V30 COUNTS 14 13 0 0 1
M  V30 BEGIN ATOM
M  V30 1 N 9.034839 6.569291 -8.291666 0 CHG=1
M  V30 2 C 10.109227 7.334701 -8.957106 0
M  V30 3 C 8.974699 5.160065 -8.734429 0
M  V30 4 C 9.063452 6.701810 -6.819235 0
M  V30 5 H 11.093121 6.948013 -8.688356 0
M  V30 6 H 10.061626 8.386752 -8.673198 0
M  V30 7 H 10.002349 7.281507 -10.041198 0
M  V30 8 H 9.876420 4.616977 -8.449618 0
M  V30 9 H 8.114663 4.655567 -8.291513 0
M  V30 10 H 8.867445 5.101425 -9.818173 0
M  V30 11 H 9.987320 6.297106 -6.403906 0
M  V30 12 H 8.981151 7.749246 -6.526612 0
M  V30 13 H 8.226824 6.169310 -6.366858 0
M  V30 14 H 8.153614 6.995490 -8.600288 0
M  V30 END ATOM
M  V30 BEGIN BOND
M  V30 1 1 2 1
M  V30 2 1 3 1
M  V30 3 1 4 1
M  V30 4 1 5 2
M  V30 5 1 6 2
M  V30 6 1 7 2
M  V30 7 1 8 3
M  V30 8 1 9 3
M  V30 9 1 10 3
M  V30 10 1 11 4
M  V30 11 1 12 4
M  V30 12 1 13 4
M  V30 13 1 14 1
M  V30 END BOND
M  V30 END CTAB
M  END
>  <i_epik_Tot_Q>  (1) 
1

>  <i_epik_Tot_abs_Q>  (1) 
1

>  <i_i_glide_confnum>  (1) 
1

>  <i_i_glide_lignum>  (1) 
14

>  <i_i_glide_posenum>  (1) 
395

>  <i_i_glide_rotatable_bonds>  (1) 
0

>  <i_lp_mmshare_version>  (1) 
72125

>  <i_m_source_file_index>  (1) 
12

>  <i_f3d_flags>  (1) 
0

>  <num_sample>  (1) 
100

>  <b_lp_Chiralities_Consistent>  (1) 
1

>  <r_epik_Charging_Adjusted_Penalty>  (1) 
0.0093753769364623638

>  <r_epik_Ionization_Penalty>  (1) 
0.0046876884682311671

>  <r_epik_Ionization_Penalty_Charging>  (1) 
0.0046876884682311671

>  <r_epik_Ionization_Penalty_Neutral>  (1) 
0

>  <r_epik_State_Penalty>  (1) 
0.0046876884682311958

>  <r_glide_ring_energy>  (1) 
0

>  <r_i_docking_score>  (1) 
-4.1655750806090941

>  <r_i_glide_ecoul>  (1) 
-4.6373783046412189

>  <r_i_glide_eff_state_penalty>  (1) 
0.0046876884682311958

>  <r_i_glide_einternal>  (1) 
0

>  <r_i_glide_emodel>  (1) 
-18.625054123362396

>  <r_i_glide_emodel_strain>  (1) 
0

>  <r_i_glide_energy>  (1) 
-11.884911250143787

>  <r_i_glide_erotb>  (1) 
0

>  <r_i_glide_esite>  (1) 
-0.089711500431014557

>  <r_i_glide_evdw>  (1) 
-7.2475329455025692

>  <r_i_glide_gscore>  (1) 
-4.1702627690773255

>  <r_i_glide_gscore_strain>  (1) 
0

>  <r_i_glide_hbond>  (1) 
-0.24256787567499971

>  <r_i_glide_ligand_efficiency>  (1) 
-1.0413937701522735

>  <r_i_glide_ligand_efficiency_ln>  (1) 
-1.7456249943339701

>  <r_i_glide_ligand_efficiency_sa>  (1) 
-1.6531095662528483

>  <r_i_glide_lipo>  (1) 
0

>  <r_i_glide_metal>  (1) 
-0

>  <r_i_glide_rewards>  (1) 
-2.7800000000000002

>  <r_lp_Energy>  (1) 
13.212527

>  <s_epik_cmdline>  (1) 
J2VwaWtfcHl0aG9uJywgJy1waHQnLCAnMS4wJywgJy1waCcsICc3LjQnLCAnLXRuJywgJzgnLCAnLW1hJywgJzUwMCcsICctaW1hZScsICc8aW5maWxlLm1hZT4nLCAnLW9tYWUnLCAnPG91dGZpbGUubWFlPic=

>  <s_epik_input>  (1) 
W0NIM11OKFtDSDNdKVtDSDNd

>  <s_glide_docking_method>  (1) 
confgen

>  <s_i_glide_gridfile>  (1) 
gpcr_drd2_6luq_protein_autoprepared_prepared

>  <s_lp_Force_Field>  (1) 
S-OPLS

>  <s_lp_Variant>  (1) 
Pocket2Mol_11_num_sample_100-1

>  <s_m_source_file>  (1) 
generated__ligand_Pocket2Mol_2026-05-06_prepared.sdf

>  <GenAI_Model>  (1) 
Pocket2Mol

>  <Protein>  (1) 
generic_title2

$$$$
Pocket2Mol_85_num_sample_100
     RDKit          3D

  0  0  0  0  0  0  0  0  0  0999 V3000
M  V30 BEGIN CTAB
M  V30 COUNTS 22 23 0 0 1
M  V30 BEGIN ATOM
M  V30 1 C 6.810043 4.315268 -12.283819 0
M  V30 2 O 7.541962 5.217394 -13.096905 0
M  V30 3 C 6.773167 4.775392 -10.823154 0
M  V30 4 O 8.023075 4.569441 -10.181361 0
M  V30 5 C 8.944548 5.170030 -12.881254 0
M  V30 6 C 8.933854 5.579376 -10.366230 0
M  V30 7 C 9.434926 6.312854 -9.274667 0
M  V30 8 C 9.402469 5.918444 -11.640916 0
M  V30 9 C 8.980121 6.014532 -7.858679 0
M  V30 10 N 10.336949 7.320957 -9.415354 0
M  V30 11 N 10.775198 7.653633 -10.647455 0
M  V30 12 C 10.326547 6.969511 -11.733313 0
M  V30 13 H 5.789991 4.294351 -12.668695 0
M  V30 14 H 7.193476 3.297547 -12.370744 0
M  V30 15 H 6.444646 5.812163 -10.739689 0
M  V30 16 H 6.033973 4.176989 -10.291667 0
M  V30 17 H 9.303923 4.140132 -12.841115 0
M  V30 18 H 9.419927 5.616775 -13.754441 0
M  V30 19 H 8.153507 5.305151 -7.831925 0
M  V30 20 H 8.635006 6.930573 -7.377555 0
M  V30 21 H 9.803830 5.607212 -7.273637 0
M  V30 22 H 10.723705 7.271344 -12.691394 0
M  V30 END ATOM
M  V30 BEGIN BOND
M  V30 1 1 2 1
M  V30 2 1 3 1
M  V30 3 1 4 3
M  V30 4 1 5 2
M  V30 5 1 6 4
M  V30 6 1 7 6
M  V30 7 1 8 5
M  V30 8 2 8 6
M  V30 9 1 9 7
M  V30 10 2 10 7
M  V30 11 1 11 10
M  V30 12 1 12 8
M  V30 13 2 12 11
M  V30 14 1 13 1
M  V30 15 1 14 1
M  V30 16 1 15 3
M  V30 17 1 16 3
M  V30 18 1 17 5
M  V30 19 1 18 5
M  V30 20 1 19 9
M  V30 21 1 20 9
M  V30 22 1 21 9
M  V30 23 1 22 12
M  V30 END BOND
M  V30 END CTAB
M  END
>  <i_epik_Tot_Q>  (1) 
0

>  <i_epik_Tot_abs_Q>  (1) 
0

>  <i_i_glide_confnum>  (1) 
1

>  <i_i_glide_lignum>  (1) 
92

>  <i_i_glide_posenum>  (1) 
100

>  <i_i_glide_rotatable_bonds>  (1) 
0

>  <i_lp_mmshare_version>  (1) 
72125

>  <i_m_source_file_index>  (1) 
86

>  <i_f3d_flags>  (1) 
0

>  <num_sample>  (1) 
100

>  <b_lp_Chiralities_Consistent>  (1) 
1

>  <r_epik_Charging_Adjusted_Penalty>  (1) 
0.0091269655628041547

>  <r_epik_Ionization_Penalty>  (1) 
0.0091374853106045584

>  <r_epik_Ionization_Penalty_Charging>  (1) 
0

>  <r_epik_Ionization_Penalty_Neutral>  (1) 
0.0091374853106045584

>  <r_epik_State_Penalty>  (1) 
0.0091269655628041547

>  <r_glide_ring_energy>  (1) 
0

>  <r_i_docking_score>  (1) 
-4.155757401956973

>  <r_i_glide_ecoul>  (1) 
-1.7836665255925839

>  <r_i_glide_eff_state_penalty>  (1) 
0.0091269655628041547

>  <r_i_glide_einternal>  (1) 
0

>  <r_i_glide_emodel>  (1) 
-24.721621637607832

>  <r_i_glide_emodel_strain>  (1) 
0.2163900734950488

>  <r_i_glide_energy>  (1) 
-19.711819252170447

>  <r_i_glide_erotb>  (1) 
0

>  <r_i_glide_esite>  (1) 
-0.058484070955443515

>  <r_i_glide_evdw>  (1) 
-17.928152726577864

>  <r_i_glide_gscore>  (1) 
-4.1648843675197771

>  <r_i_glide_gscore_strain>  (1) 
0

>  <r_i_glide_hbond>  (1) 
0

>  <r_i_glide_ligand_efficiency>  (1) 
-0.34631311682974775

>  <r_i_glide_ligand_efficiency_ln>  (1) 
-1.1925017854380067

>  <r_i_glide_ligand_efficiency_sa>  (1) 
-0.79285911443609647

>  <r_i_glide_lipo>  (1) 
-0.26807909818588027

>  <r_i_glide_metal>  (1) 
-0

>  <r_i_glide_rewards>  (1) 
-2.6743635832106722

>  <r_lp_Energy>  (1) 
19.395567

>  <r_lp_tautomer_probability>  (1) 
1

>  <s_epik_cmdline>  (1) 
J2VwaWtfcHl0aG9uJywgJy1waHQnLCAnMS4wJywgJy1waCcsICc3LjQnLCAnLXRuJywgJzgnLCAnLW1hJywgJzUwMCcsICctaW1hZScsICc8aW5maWxlLm1hZT4nLCAnLW9tYWUnLCAnPG91dGZpbGUubWFlPic=

>  <s_epik_input>  (1) 
TzFbQ0gyXVtDSDJdT1tDSDJdYyhjMTIpW2NIXW5uYzJbQ0gzXQ==

>  <s_glide_docking_method>  (1) 
confgen

>  <s_i_glide_gridfile>  (1) 
gpcr_drd2_6luq_protein_autoprepared_prepared

>  <s_lp_Force_Field>  (1) 
S-OPLS

>  <s_lp_Variant>  (1) 
Pocket2Mol_85_num_sample_100-1

>  <s_m_source_file>  (1) 
generated__ligand_Pocket2Mol_2026-05-06_prepared.sdf

>  <GenAI_Model>  (1) 
Pocket2Mol

>  <Protein>  (1) 
generic_title2

$$$$
Pocket2Mol_45_num_sample_100
     RDKit          3D

  0  0  0  0  0  0  0  0  0  0999 V3000
M  V30 BEGIN CTAB
M  V30 COUNTS 15 16 0 0 1
M  V30 BEGIN ATOM
M  V30 1 C 12.080505 9.461306 -5.369075 0
M  V30 2 O 12.696891 9.369363 -6.691658 0
M  V30 3 C 11.676310 8.832528 -7.364702 0
M  V30 4 C 10.606832 8.568566 -6.616492 0
M  V30 5 C 9.451194 8.013546 -7.179904 0
M  V30 6 N 9.434835 7.753483 -8.508176 0 CHG=1
M  V30 7 C 10.503156 8.004184 -9.312121 0
M  V30 8 C 11.680413 8.561732 -8.748530 0
M  V30 9 O 10.741386 8.885810 -5.330691 0
M  V30 10 H 11.999988 10.515980 -5.106605 0
M  V30 11 H 12.709317 8.967296 -4.628694 0
M  V30 12 H 8.554396 7.782175 -6.631377 0
M  V30 13 H 10.380476 7.762339 -10.358482 0
M  V30 14 H 12.545663 8.778644 -9.358949 0
M  V30 15 H 8.567986 7.369317 -8.927049 0
M  V30 END ATOM
M  V30 BEGIN BOND
M  V30 1 1 2 1
M  V30 2 1 3 2
M  V30 3 2 4 3
M  V30 4 1 5 4
M  V30 5 2 6 5
M  V30 6 1 7 6
M  V30 7 1 8 3
M  V30 8 2 8 7
M  V30 9 1 9 1
M  V30 10 1 9 4
M  V30 11 1 10 1
M  V30 12 1 11 1
M  V30 13 1 12 5
M  V30 14 1 13 7
M  V30 15 1 14 8
M  V30 16 1 15 6
M  V30 END BOND
M  V30 END CTAB
M  END
>  <i_epik_Tot_Q>  (1) 
1

>  <i_epik_Tot_abs_Q>  (1) 
1

>  <i_i_glide_confnum>  (1) 
1

>  <i_i_glide_lignum>  (1) 
51

>  <i_i_glide_posenum>  (1) 
93

>  <i_i_glide_rotatable_bonds>  (1) 
0

>  <i_lp_mmshare_version>  (1) 
72125

>  <i_m_source_file_index>  (1) 
46

>  <i_f3d_flags>  (1) 
0

>  <num_sample>  (1) 
100

>  <b_lp_Chiralities_Consistent>  (1) 
1

>  <r_epik_Charging_Adjusted_Penalty>  (1) 
2.6035637255513002

>  <r_epik_Ionization_Penalty>  (1) 
1.3017818627756499

>  <r_epik_Ionization_Penalty_Charging>  (1) 
1.3017818627756499

>  <r_epik_Ionization_Penalty_Neutral>  (1) 
0

>  <r_epik_State_Penalty>  (1) 
1.3017818627756503

>  <r_glide_ring_energy>  (1) 
0

>  <r_i_docking_score>  (1) 
-4.1511759757129045

>  <r_i_glide_ecoul>  (1) 
-4.103447873672267

>  <r_i_glide_eff_state_penalty>  (1) 
1.3017818627756503

>  <r_i_glide_einternal>  (1) 
0

>  <r_i_glide_emodel>  (1) 
-29.052390362106976

>  <r_i_glide_emodel_strain>  (1) 
0

>  <r_i_glide_energy>  (1) 
-18.933509590194529

>  <r_i_glide_erotb>  (1) 
0

>  <r_i_glide_esite>  (1) 
-0.10000000000000001

>  <r_i_glide_evdw>  (1) 
-14.830061716522261

>  <r_i_glide_gscore>  (1) 
-5.4529578384885546

>  <r_i_glide_gscore_strain>  (1) 
0

>  <r_i_glide_hbond>  (1) 
-0.16133733453959634

>  <r_i_glide_ligand_efficiency>  (1) 
-0.4612417750792116

>  <r_i_glide_ligand_efficiency_ln>  (1) 
-1.2983685929161326

>  <r_i_glide_ligand_efficiency_sa>  (1) 
-0.95942155485801317

>  <r_i_glide_lipo>  (1) 
-0.79766981046976204

>  <r_i_glide_metal>  (1) 
-0

>  <r_i_glide_rewards>  (1) 
-3.0369304266022423

>  <r_lp_Energy>  (1) 
25.893000999999998

>  <s_epik_Chemistry_Notes>  (1) 
This compound contains an acetal/aminal-like group ( X-CH(R)-Y where X, Y are N, S, or O) that may be acid/base labile, releasing an aldehyde.

>  <s_epik_cmdline>  (1) 
J2VwaWtfcHl0aG9uJywgJy1waHQnLCAnMS4wJywgJy1waCcsICc3LjQnLCAnLXRuJywgJzgnLCAnLW1hJywgJzUwMCcsICctaW1hZScsICc8aW5maWxlLm1hZT4nLCAnLW9tYWUnLCAnPG91dGZpbGUubWFlPic=

>  <s_epik_input>  (1) 
TzFbQ0gyXU9jKGMxMilbY0hdbltjSF1bY0hdMg==

>  <s_glide_docking_method>  (1) 
confgen

>  <s_i_glide_gridfile>  (1) 
gpcr_drd2_6luq_protein_autoprepared_prepared

>  <s_lp_Force_Field>  (1) 
S-OPLS

>  <s_lp_Variant>  (1) 
Pocket2Mol_45_num_sample_100-2

>  <s_m_source_file>  (1) 
generated__ligand_Pocket2Mol_2026-05-06_prepared.sdf

>  <GenAI_Model>  (1) 
Pocket2Mol

>  <Protein>  (1) 
generic_title2

$$$$
Pocket2Mol_99_num_sample_100
     RDKit          3D

  0  0  0  0  0  0  0  0  0  0999 V3000
M  V30 BEGIN CTAB
M  V30 COUNTS 11 11 0 0 1
M  V30 BEGIN ATOM
M  V30 1 O 21.618500 8.512785 -9.491666 0
M  V30 2 C 20.896134 7.604938 -10.291953 0
M  V30 3 C 21.435262 7.909121 -11.676459 0
M  V30 4 C 21.924252 9.588088 -10.316149 0
M  V30 5 O 21.508599 9.314258 -11.611140 0
M  V30 6 H 21.034862 6.569271 -9.988111 0
M  V30 7 H 19.834894 7.839403 -10.244181 0
M  V30 8 H 22.429466 7.482502 -11.820267 0
M  V30 9 H 20.781867 7.563076 -12.477975 0
M  V30 10 H 21.434840 10.493418 -9.955310 0
M  V30 11 H 23.004607 9.739201 -10.306481 0
M  V30 END ATOM
M  V30 BEGIN BOND
M  V30 1 1 2 1
M  V30 2 1 3 2
M  V30 3 1 4 1
M  V30 4 1 5 3
M  V30 5 1 5 4
M  V30 6 1 6 2
M  V30 7 1 7 2
M  V30 8 1 8 3
M  V30 9 1 9 3
M  V30 10 1 10 4
M  V30 11 1 11 4
M  V30 END BOND
M  V30 END CTAB
M  END
>  <i_epik_Tot_Q>  (1) 
0

>  <i_epik_Tot_abs_Q>  (1) 
0

>  <i_i_glide_confnum>  (1) 
2

>  <i_i_glide_lignum>  (1) 
108

>  <i_i_glide_posenum>  (1) 
6

>  <i_i_glide_rotatable_bonds>  (1) 
0

>  <i_lp_mmshare_version>  (1) 
72125

>  <i_m_source_file_index>  (1) 
100

>  <i_f3d_flags>  (1) 
0

>  <num_sample>  (1) 
100

>  <b_lp_Chiralities_Consistent>  (1) 
1

>  <r_epik_Charging_Adjusted_Penalty>  (1) 
0

>  <r_epik_Ionization_Penalty>  (1) 
7.9724310449397378e-14

>  <r_epik_Ionization_Penalty_Charging>  (1) 
0

>  <r_epik_Ionization_Penalty_Neutral>  (1) 
7.9724310449397378e-14

>  <r_epik_State_Penalty>  (1) 
-0

>  <r_glide_ring_energy>  (1) 
1.1396681620093737e-05

>  <r_i_docking_score>  (1) 
-4.1439570045768246

>  <r_i_glide_ecoul>  (1) 
-0.69868656584677824

>  <r_i_glide_eff_state_penalty>  (1) 
-0

>  <r_i_glide_einternal>  (1) 
0

>  <r_i_glide_emodel>  (1) 
-16.198603588717688

>  <r_i_glide_emodel_strain>  (1) 
0

>  <r_i_glide_energy>  (1) 
-12.56801390270563

>  <r_i_glide_erotb>  (1) 
0

>  <r_i_glide_esite>  (1) 
0

>  <r_i_glide_evdw>  (1) 
-11.869327336858852

>  <r_i_glide_gscore>  (1) 
-4.1439570045768246

>  <r_i_glide_gscore_strain>  (1) 
0

>  <r_i_glide_hbond>  (1) 
0

>  <r_i_glide_ligand_efficiency>  (1) 
-0.82879140091536496

>  <r_i_glide_ligand_efficiency_ln>  (1) 
-1.5880649946989216

>  <r_i_glide_ligand_efficiency_sa>  (1) 
-1.417213360377757

>  <r_i_glide_lipo>  (1) 
-0.66000000000000003

>  <r_i_glide_metal>  (1) 
-0

>  <r_i_glide_rewards>  (1) 
-2.7856876528568648

>  <r_lp_Energy>  (1) 
-12.242958999999999

>  <r_lp_tautomer_probability>  (1) 
1

>  <s_epik_Chemistry_Notes>  (1) 
This compound contains an acetal/aminal-like group ( X-CH(R)-Y where X, Y are N, S, or O) that may be acid/base labile, releasing an aldehyde.

>  <s_epik_cmdline>  (1) 
J2VwaWtfcHl0aG9uJywgJy1waHQnLCAnMS4wJywgJy1waCcsICc3LjQnLCAnLXRuJywgJzgnLCAnLW1hJywgJzUwMCcsICctaW1hZScsICc8aW5maWxlLm1hZT4nLCAnLW9tYWUnLCAnPG91dGZpbGUubWFlPic=

>  <s_epik_input>  (1) 
TzFbQ0gyXVtDSDJdT1tDSDJdMQ==

>  <s_glide_docking_method>  (1) 
confgen

>  <s_i_glide_gridfile>  (1) 
gpcr_drd2_6luq_protein_autoprepared_prepared

>  <s_lp_Force_Field>  (1) 
S-OPLS

>  <s_lp_Variant>  (1) 
Pocket2Mol_99_num_sample_100-1

>  <s_m_source_file>  (1) 
generated__ligand_Pocket2Mol_2026-05-06_prepared.sdf

>  <GenAI_Model>  (1) 
Pocket2Mol

>  <Protein>  (1) 
generic_title2

$$$$
Pocket2Mol_21_num_sample_100
     RDKit          3D

  0  0  0  0  0  0  0  0  0  0999 V3000
M  V30 BEGIN CTAB
M  V30 COUNTS 12 12 0 0 1
M  V30 BEGIN ATOM
M  V30 1 N 10.234615 8.286614 -5.972653 0
M  V30 2 C 9.662995 7.793199 -7.091668 0
M  V30 3 C 10.290489 7.859834 -8.337614 0
M  V30 4 C 11.547358 8.464303 -8.384501 0
M  V30 5 N 12.234839 8.569301 -9.586522 0
M  V30 6 N 12.142045 8.969301 -7.287707 0
M  V30 7 C 11.434887 8.850191 -6.153536 0
M  V30 8 H 8.688711 7.339221 -6.983866 0
M  V30 9 H 9.818073 7.461230 -9.224391 0
M  V30 10 H 11.821184 8.266563 -10.454517 0
M  V30 11 H 13.111959 9.072244 -9.646146 0
M  V30 12 H 11.900119 9.255549 -5.267172 0
M  V30 END ATOM
M  V30 BEGIN BOND
M  V30 1 1 2 1
M  V30 2 2 3 2
M  V30 3 1 4 3
M  V30 4 1 5 4
M  V30 5 2 6 4
M  V30 6 2 7 1
M  V30 7 1 7 6
M  V30 8 1 8 2
M  V30 9 1 9 3
M  V30 10 1 10 5
M  V30 11 1 11 5
M  V30 12 1 12 7
M  V30 END BOND
M  V30 END CTAB
M  END
>  <i_epik_Tot_Q>  (1) 
0

>  <i_epik_Tot_abs_Q>  (1) 
0

>  <i_i_glide_confnum>  (1) 
1

>  <i_i_glide_lignum>  (1) 
25

>  <i_i_glide_posenum>  (1) 
220

>  <i_i_glide_rotatable_bonds>  (1) 
0

>  <i_lp_mmshare_version>  (1) 
72125

>  <i_m_source_file_index>  (1) 
22

>  <i_f3d_flags>  (1) 
0

>  <num_sample>  (1) 
100

>  <b_lp_Chiralities_Consistent>  (1) 
1

>  <r_epik_Charging_Adjusted_Penalty>  (1) 
0.011441366301234922

>  <r_epik_Ionization_Penalty>  (1) 
0.011523414685131987

>  <r_epik_Ionization_Penalty_Charging>  (1) 
0

>  <r_epik_Ionization_Penalty_Neutral>  (1) 
0.011523414685131987

>  <r_epik_State_Penalty>  (1) 
0.011441366301234922

>  <r_glide_ring_energy>  (1) 
0

>  <r_i_docking_score>  (1) 
-4.1370872449752074

>  <r_i_glide_ecoul>  (1) 
-2.570539049572881

>  <r_i_glide_eff_state_penalty>  (1) 
0.011441366301234922

>  <r_i_glide_einternal>  (1) 
0

>  <r_i_glide_emodel>  (1) 
-22.998669003549473

>  <r_i_glide_emodel_strain>  (1) 
0

>  <r_i_glide_energy>  (1) 
-18.054672235650802

>  <r_i_glide_erotb>  (1) 
0

>  <r_i_glide_esite>  (1) 
0

>  <r_i_glide_evdw>  (1) 
-15.484133186077921

>  <r_i_glide_gscore>  (1) 
-4.1485286112764426

>  <r_i_glide_gscore_strain>  (1) 
0

>  <r_i_glide_hbond>  (1) 
-0.13561744893574401

>  <r_i_glide_ligand_efficiency>  (1) 
-0.59101246356788673

>  <r_i_glide_ligand_efficiency_ln>  (1) 
-1.4043494321447236

>  <r_i_glide_ligand_efficiency_sa>  (1) 
-1.1305661709661412

>  <r_i_glide_lipo>  (1) 
-0.24948610680584729

>  <r_i_glide_metal>  (1) 
-0

>  <r_i_glide_rewards>  (1) 
-2.6036375387950232

>  <r_lp_Energy>  (1) 
9.3523319999999988

>  <r_lp_tautomer_probability>  (1) 
0.9999995832001739

>  <s_epik_cmdline>  (1) 
J2VwaWtfcHl0aG9uJywgJy1waHQnLCAnMS4wJywgJy1waCcsICc3LjQnLCAnLXRuJywgJzgnLCAnLW1hJywgJzUwMCcsICctaW1hZScsICc8aW5maWxlLm1hZT4nLCAnLW9tYWUnLCAnPG91dGZpbGUubWFlPic=

>  <s_epik_input>  (1) 
bjFbY0hdbltjSF1bY0hdYzFbTkgyXQ==

>  <s_glide_docking_method>  (1) 
confgen

>  <s_i_glide_gridfile>  (1) 
gpcr_drd2_6luq_protein_autoprepared_prepared

>  <s_lp_Force_Field>  (1) 
S-OPLS

>  <s_lp_Variant>  (1) 
Pocket2Mol_21_num_sample_100-1

>  <s_m_source_file>  (1) 
generated__ligand_Pocket2Mol_2026-05-06_prepared.sdf

>  <GenAI_Model>  (1) 
Pocket2Mol

>  <Protein>  (1) 
generic_title2

$$$$
Pocket2Mol_10_num_sample_100
     RDKit          3D

  0  0  0  0  0  0  0  0  0  0999 V3000
M  V30 BEGIN CTAB
M  V30 COUNTS 12 12 0 0 1
M  V30 BEGIN ATOM
M  V30 1 O 10.634794 8.781943 -6.053740 0
M  V30 2 C 11.738682 8.969298 -6.834032 0
M  V30 3 C 9.719436 8.169301 -6.849374 0
M  V30 4 C 11.543849 8.489302 -8.103461 0
M  V30 5 C 12.517270 8.508877 -9.250158 0
M  V30 6 C 10.218780 7.969533 -8.101569 0
M  V30 7 H 12.568157 9.453063 -6.339593 0
M  V30 8 H 8.771981 7.947832 -6.377528 0
M  V30 9 H 12.415368 7.604251 -9.849601 0
M  V30 10 H 12.326605 9.369281 -9.891656 0
M  V30 11 H 13.543559 8.567748 -8.886532 0
M  V30 12 H 9.691308 7.504006 -8.922673 0
M  V30 END ATOM
M  V30 BEGIN BOND
M  V30 1 1 2 1
M  V30 2 1 3 1
M  V30 3 2 4 2
M  V30 4 1 5 4
M  V30 5 2 6 3
M  V30 6 1 6 4
M  V30 7 1 7 2
M  V30 8 1 8 3
M  V30 9 1 9 5
M  V30 10 1 10 5
M  V30 11 1 11 5
M  V30 12 1 12 6
M  V30 END BOND
M  V30 END CTAB
M  END
>  <i_epik_Tot_Q>  (1) 
0

>  <i_epik_Tot_abs_Q>  (1) 
0

>  <i_i_glide_confnum>  (1) 
1

>  <i_i_glide_lignum>  (1) 
13

>  <i_i_glide_posenum>  (1) 
68

>  <i_i_glide_rotatable_bonds>  (1) 
0

>  <i_lp_mmshare_version>  (1) 
72125

>  <i_m_source_file_index>  (1) 
11

>  <i_f3d_flags>  (1) 
0

>  <num_sample>  (1) 
100

>  <b_lp_Chiralities_Consistent>  (1) 
1

>  <r_epik_Charging_Adjusted_Penalty>  (1) 
0

>  <r_epik_Ionization_Penalty>  (1) 
0

>  <r_epik_Ionization_Penalty_Charging>  (1) 
0

>  <r_epik_Ionization_Penalty_Neutral>  (1) 
0

>  <r_epik_State_Penalty>  (1) 
-0

>  <r_glide_ring_energy>  (1) 
0

>  <r_i_docking_score>  (1) 
-4.1346532272072132

>  <r_i_glide_ecoul>  (1) 
-0.77633172846525988

>  <r_i_glide_eff_state_penalty>  (1) 
-0

>  <r_i_glide_einternal>  (1) 
0

>  <r_i_glide_emodel>  (1) 
-18.201436013786346

>  <r_i_glide_emodel_strain>  (1) 
0

>  <r_i_glide_energy>  (1) 
-14.373361226558316

>  <r_i_glide_erotb>  (1) 
0

>  <r_i_glide_esite>  (1) 
0

>  <r_i_glide_evdw>  (1) 
-13.597029498093056

>  <r_i_glide_gscore>  (1) 
-4.1346532272072132

>  <r_i_glide_gscore_strain>  (1) 
0

>  <r_i_glide_hbond>  (1) 
0

>  <r_i_glide_ligand_efficiency>  (1) 
-0.68910887120120223

>  <r_i_glide_ligand_efficiency_ln>  (1) 
-1.4810205795954476

>  <r_i_glide_ligand_efficiency_sa>  (1) 
-1.2521939205630153

>  <r_i_glide_lipo>  (1) 
-0.69668532636610436

>  <r_i_glide_metal>  (1) 
-0

>  <r_i_glide_rewards>  (1) 
-2.6416666666666666

>  <r_lp_Energy>  (1) 
-1.206345

>  <r_lp_tautomer_probability>  (1) 
1

>  <s_epik_cmdline>  (1) 
J2VwaWtfcHl0aG9uJywgJy1waHQnLCAnMS4wJywgJy1waCcsICc3LjQnLCAnLXRuJywgJzgnLCAnLW1hJywgJzUwMCcsICctaW1hZScsICc8aW5maWxlLm1hZT4nLCAnLW9tYWUnLCAnPG91dGZpbGUubWFlPic=

>  <s_epik_input>  (1) 
W2NIXTFbY0hdb1tjSF1jMVtDSDNd

>  <s_glide_docking_method>  (1) 
confgen

>  <s_i_glide_gridfile>  (1) 
gpcr_drd2_6luq_protein_autoprepared_prepared

>  <s_lp_Force_Field>  (1) 
S-OPLS

>  <s_lp_Variant>  (1) 
Pocket2Mol_10_num_sample_100-1

>  <s_m_source_file>  (1) 
generated__ligand_Pocket2Mol_2026-05-06_prepared.sdf

>  <GenAI_Model>  (1) 
Pocket2Mol

>  <Protein>  (1) 
generic_title2

$$$$
Pocket2Mol_55_num_sample_100
     RDKit          3D

  0  0  0  0  0  0  0  0  0  0999 V3000
M  V30 BEGIN CTAB
M  V30 COUNTS 13 13 0 0 1
M  V30 BEGIN ATOM
M  V30 1 O 12.176838 9.369297 -6.691689 0
M  V30 2 C 11.389600 8.958401 -5.577867 0
M  V30 3 C 10.731545 7.645154 -5.995773 0
M  V30 4 C 11.868046 8.569306 -7.832607 0
M  V30 5 C 10.576651 7.836902 -7.486469 0
M  V30 6 H 11.995684 8.853100 -4.677823 0
M  V30 7 H 10.634745 9.722462 -5.390090 0
M  V30 8 H 11.398315 6.805534 -5.793463 0
M  V30 9 H 9.784535 7.457245 -5.491668 0
M  V30 10 H 11.776621 9.176413 -8.733843 0
M  V30 11 H 12.679521 7.856616 -7.985459 0
M  V30 12 H 9.712330 8.469168 -7.697440 0
M  V30 13 H 10.455449 6.900150 -8.031639 0
M  V30 END ATOM
M  V30 BEGIN BOND
M  V30 1 1 2 1
M  V30 2 1 3 2
M  V30 3 1 4 1
M  V30 4 1 5 3
M  V30 5 1 5 4
M  V30 6 1 6 2
M  V30 7 1 7 2
M  V30 8 1 8 3
M  V30 9 1 9 3
M  V30 10 1 10 4
M  V30 11 1 11 4
M  V30 12 1 12 5
M  V30 13 1 13 5
M  V30 END BOND
M  V30 END CTAB
M  END
>  <i_epik_Tot_Q>  (1) 
0

>  <i_epik_Tot_abs_Q>  (1) 
0

>  <i_i_glide_confnum>  (1) 
4

>  <i_i_glide_lignum>  (1) 
62

>  <i_i_glide_posenum>  (1) 
38

>  <i_i_glide_rotatable_bonds>  (1) 
0

>  <i_lp_mmshare_version>  (1) 
72125

>  <i_m_source_file_index>  (1) 
56

>  <i_f3d_flags>  (1) 
0

>  <num_sample>  (1) 
100

>  <b_lp_Chiralities_Consistent>  (1) 
1

>  <r_epik_Charging_Adjusted_Penalty>  (1) 
0

>  <r_epik_Ionization_Penalty>  (1) 
1.3889264151150229e-11

>  <r_epik_Ionization_Penalty_Charging>  (1) 
0

>  <r_epik_Ionization_Penalty_Neutral>  (1) 
1.3889264151150229e-11

>  <r_epik_State_Penalty>  (1) 
-0

>  <r_glide_ring_energy>  (1) 
0.22164722245690596

>  <r_i_docking_score>  (1) 
-4.1263009187516699

>  <r_i_glide_ecoul>  (1) 
-0.58270598925740325

>  <r_i_glide_eff_state_penalty>  (1) 
-0

>  <r_i_glide_einternal>  (1) 
0

>  <r_i_glide_emodel>  (1) 
-16.389400809555234

>  <r_i_glide_emodel_strain>  (1) 
0

>  <r_i_glide_energy>  (1) 
-12.920474675638356

>  <r_i_glide_erotb>  (1) 
0

>  <r_i_glide_esite>  (1) 
0

>  <r_i_glide_evdw>  (1) 
-12.337768686380953

>  <r_i_glide_gscore>  (1) 
-4.1263009187516699

>  <r_i_glide_gscore_strain>  (1) 
0

>  <r_i_glide_hbond>  (1) 
0

>  <r_i_glide_ligand_efficiency>  (1) 
-0.82526018375033394

>  <r_i_glide_ligand_efficiency_ln>  (1) 
-1.5812987536854746

>  <r_i_glide_ligand_efficiency_sa>  (1) 
-1.4111750639630622

>  <r_i_glide_lipo>  (1) 
-0.81367325271067847

>  <r_i_glide_metal>  (1) 
-0

>  <r_i_glide_rewards>  (1) 
-2.6083333333333334

>  <r_lp_Energy>  (1) 
3.9173999999999998

>  <r_lp_tautomer_probability>  (1) 
1

>  <s_epik_cmdline>  (1) 
J2VwaWtfcHl0aG9uJywgJy1waHQnLCAnMS4wJywgJy1waCcsICc3LjQnLCAnLXRuJywgJzgnLCAnLW1hJywgJzUwMCcsICctaW1hZScsICc8aW5maWxlLm1hZT4nLCAnLW9tYWUnLCAnPG91dGZpbGUubWFlPic=

>  <s_epik_input>  (1) 
TzFbQ0gyXVtDSDJdW0NIMl1bQ0gyXTE=

>  <s_glide_docking_method>  (1) 
confgen

>  <s_i_glide_gridfile>  (1) 
gpcr_drd2_6luq_protein_autoprepared_prepared

>  <s_lp_Force_Field>  (1) 
S-OPLS

>  <s_lp_Variant>  (1) 
Pocket2Mol_55_num_sample_100-1

>  <s_m_source_file>  (1) 
generated__ligand_Pocket2Mol_2026-05-06_prepared.sdf

>  <GenAI_Model>  (1) 
Pocket2Mol

>  <Protein>  (1) 
generic_title2

$$$$
Pocket2Mol_10_num_sample_100
     RDKit          3D

  0  0  0  0  0  0  0  0  0  0999 V3000
M  V30 BEGIN CTAB
M  V30 COUNTS 12 12 0 0 1
M  V30 BEGIN ATOM
M  V30 1 O 11.344014 8.104527 -9.839867 0
M  V30 2 C 10.225651 7.773358 -9.131098 0
M  V30 3 C 12.234975 8.569284 -8.927841 0
M  V30 4 C 10.389210 8.015372 -7.792274 0
M  V30 5 C 9.389322 7.781974 -6.691667 0
M  V30 6 C 11.707890 8.536848 -7.670760 0
M  V30 7 H 9.408273 7.384215 -9.723005 0
M  V30 8 H 13.186656 8.881650 -9.333063 0
M  V30 9 H 9.878857 7.766386 -5.718127 0
M  V30 10 H 8.635103 8.568718 -6.690337 0
M  V30 11 H 8.879435 6.828702 -6.836012 0
M  V30 12 H 12.210159 8.852072 -6.768414 0
M  V30 END ATOM
M  V30 BEGIN BOND
M  V30 1 1 2 1
M  V30 2 1 3 1
M  V30 3 2 4 2
M  V30 4 1 5 4
M  V30 5 2 6 3
M  V30 6 1 6 4
M  V30 7 1 7 2
M  V30 8 1 8 3
M  V30 9 1 9 5
M  V30 10 1 10 5
M  V30 11 1 11 5
M  V30 12 1 12 6
M  V30 END BOND
M  V30 END CTAB
M  END
>  <i_epik_Tot_Q>  (1) 
0

>  <i_epik_Tot_abs_Q>  (1) 
0

>  <i_i_glide_confnum>  (1) 
1

>  <i_i_glide_lignum>  (1) 
13

>  <i_i_glide_posenum>  (1) 
358

>  <i_i_glide_rotatable_bonds>  (1) 
0

>  <i_lp_mmshare_version>  (1) 
72125

>  <i_m_source_file_index>  (1) 
11

>  <i_f3d_flags>  (1) 
0

>  <num_sample>  (1) 
100

>  <b_lp_Chiralities_Consistent>  (1) 
1

>  <r_epik_Charging_Adjusted_Penalty>  (1) 
0

>  <r_epik_Ionization_Penalty>  (1) 
0

>  <r_epik_Ionization_Penalty_Charging>  (1) 
0

>  <r_epik_Ionization_Penalty_Neutral>  (1) 
0

>  <r_epik_State_Penalty>  (1) 
-0

>  <r_glide_ring_energy>  (1) 
0

>  <r_i_docking_score>  (1) 
-4.1185516650365042

>  <r_i_glide_ecoul>  (1) 
-1.2961703234723441

>  <r_i_glide_eff_state_penalty>  (1) 
-0

>  <r_i_glide_einternal>  (1) 
0

>  <r_i_glide_emodel>  (1) 
-18.346780681879302

>  <r_i_glide_emodel_strain>  (1) 
0

>  <r_i_glide_energy>  (1) 
-14.533613549729838

>  <r_i_glide_erotb>  (1) 
0

>  <r_i_glide_esite>  (1) 
0

>  <r_i_glide_evdw>  (1) 
-13.237443226257493

>  <r_i_glide_gscore>  (1) 
-4.1185516650365042

>  <r_i_glide_gscore_strain>  (1) 
0

>  <r_i_glide_hbond>  (1) 
0

>  <r_i_glide_ligand_efficiency>  (1) 
-0.68642527750608406

>  <r_i_glide_ligand_efficiency_ln>  (1) 
-1.475253047561192

>  <r_i_glide_ligand_efficiency_sa>  (1) 
-1.2473175071968214

>  <r_i_glide_lipo>  (1) 
-0.57892062186944471

>  <r_i_glide_metal>  (1) 
-0

>  <r_i_glide_rewards>  (1) 
-2.6833333333333336

>  <r_lp_Energy>  (1) 
-1.206345

>  <r_lp_tautomer_probability>  (1) 
1

>  <s_epik_cmdline>  (1) 
J2VwaWtfcHl0aG9uJywgJy1waHQnLCAnMS4wJywgJy1waCcsICc3LjQnLCAnLXRuJywgJzgnLCAnLW1hJywgJzUwMCcsICctaW1hZScsICc8aW5maWxlLm1hZT4nLCAnLW9tYWUnLCAnPG91dGZpbGUubWFlPic=

>  <s_epik_input>  (1) 
W2NIXTFbY0hdb1tjSF1jMVtDSDNd

>  <s_glide_docking_method>  (1) 
confgen

>  <s_i_glide_gridfile>  (1) 
gpcr_drd2_6luq_protein_autoprepared_prepared

>  <s_lp_Force_Field>  (1) 
S-OPLS

>  <s_lp_Variant>  (1) 
Pocket2Mol_10_num_sample_100-1

>  <s_m_source_file>  (1) 
generated__ligand_Pocket2Mol_2026-05-06_prepared.sdf

>  <GenAI_Model>  (1) 
Pocket2Mol

>  <Protein>  (1) 
generic_title2

$$$$
Pocket2Mol_44_num_sample_100
     RDKit          3D

  0  0  0  0  0  0  0  0  0  0999 V3000
M  V30 BEGIN CTAB
M  V30 COUNTS 8 8 0 0 1
M  V30 BEGIN ATOM
M  V30 1 N 12.642629 16.569301 -22.515029 0
M  V30 2 C 12.549499 17.819357 -21.891661 0
M  V30 3 C 11.434837 17.926312 -21.082450 0
M  V30 4 C 11.627998 15.769301 -22.212778 0
M  V30 5 S 10.484518 16.452834 -21.091667 0
M  V30 6 H 13.308421 18.566073 -22.076358 0
M  V30 7 H 11.118624 18.771977 -20.491205 0
M  V30 8 H 11.561629 14.778105 -22.639298 0
M  V30 END ATOM
M  V30 BEGIN BOND
M  V30 1 1 2 1
M  V30 2 2 3 2
M  V30 3 2 4 1
M  V30 4 1 5 3
M  V30 5 1 5 4
M  V30 6 1 6 2
M  V30 7 1 7 3
M  V30 8 1 8 4
M  V30 END BOND
M  V30 END CTAB
M  END
>  <i_epik_Tot_Q>  (1) 
0

>  <i_epik_Tot_abs_Q>  (1) 
0

>  <i_i_glide_confnum>  (1) 
1

>  <i_i_glide_lignum>  (1) 
49

>  <i_i_glide_posenum>  (1) 
265

>  <i_i_glide_rotatable_bonds>  (1) 
0

>  <i_lp_mmshare_version>  (1) 
72125

>  <i_m_source_file_index>  (1) 
45

>  <i_f3d_flags>  (1) 
0

>  <num_sample>  (1) 
100

>  <b_lp_Chiralities_Consistent>  (1) 
1

>  <r_epik_Charging_Adjusted_Penalty>  (1) 
0

>  <r_epik_Ionization_Penalty>  (1) 
1.4882382677604034e-05

>  <r_epik_Ionization_Penalty_Charging>  (1) 
0

>  <r_epik_Ionization_Penalty_Neutral>  (1) 
1.4882382677604034e-05

>  <r_epik_State_Penalty>  (1) 
-0

>  <r_glide_ring_energy>  (1) 
0

>  <r_i_docking_score>  (1) 
-4.1165387015398132

>  <r_i_glide_ecoul>  (1) 
0.25278229117189194

>  <r_i_glide_eff_state_penalty>  (1) 
-0

>  <r_i_glide_einternal>  (1) 
0

>  <r_i_glide_emodel>  (1) 
-19.518831439314944

>  <r_i_glide_emodel_strain>  (1) 
0

>  <r_i_glide_energy>  (1) 
-15.304412890525459

>  <r_i_glide_erotb>  (1) 
0

>  <r_i_glide_esite>  (1) 
0

>  <r_i_glide_evdw>  (1) 
-15.557195181697351

>  <r_i_glide_gscore>  (1) 
-4.1165387015398132

>  <r_i_glide_gscore_strain>  (1) 
0

>  <r_i_glide_hbond>  (1) 
0

>  <r_i_glide_ligand_efficiency>  (1) 
-0.82330774030796261

>  <r_i_glide_ligand_efficiency_ln>  (1) 
-1.577557634893056

>  <r_i_glide_ligand_efficiency_sa>  (1) 
-1.4078364326393606

>  <r_i_glide_lipo>  (1) 
-1.1265962861307288

>  <r_i_glide_metal>  (1) 
-0

>  <r_i_glide_rewards>  (1) 
-2.25

>  <r_lp_Energy>  (1) 
1.6688799999999999

>  <r_lp_tautomer_probability>  (1) 
1

>  <s_epik_cmdline>  (1) 
J2VwaWtfcHl0aG9uJywgJy1waHQnLCAnMS4wJywgJy1waCcsICc3LjQnLCAnLXRuJywgJzgnLCAnLW1hJywgJzUwMCcsICctaW1hZScsICc8aW5maWxlLm1hZT4nLCAnLW9tYWUnLCAnPG91dGZpbGUubWFlPic=

>  <s_epik_input>  (1) 
bjFbY0hdW2NIXXNbY0hdMQ==

>  <s_glide_docking_method>  (1) 
confgen

>  <s_i_glide_gridfile>  (1) 
gpcr_drd2_6luq_protein_autoprepared_prepared

>  <s_lp_Force_Field>  (1) 
S-OPLS

>  <s_lp_Variant>  (1) 
Pocket2Mol_44_num_sample_100-1

>  <s_m_source_file>  (1) 
generated__ligand_Pocket2Mol_2026-05-06_prepared.sdf

>  <GenAI_Model>  (1) 
Pocket2Mol

>  <Protein>  (1) 
generic_title2

$$$$
Pocket2Mol_55_num_sample_100
     RDKit          3D

  0  0  0  0  0  0  0  0  0  0999 V3000
M  V30 BEGIN CTAB
M  V30 COUNTS 13 13 0 0 1
M  V30 BEGIN ATOM
M  V30 1 O 11.107947 8.152381 -5.321258 0
M  V30 2 C 10.634839 6.969301 -5.965852 0
M  V30 3 C 10.381640 7.364305 -7.416625 0
M  V30 4 C 11.434842 9.147587 -6.291676 0
M  V30 5 C 11.434839 8.427520 -7.635697 0
M  V30 6 H 11.412237 6.207238 -5.910969 0
M  V30 7 H 9.742537 6.575118 -5.479522 0
M  V30 8 H 10.465455 6.524843 -8.106828 0
M  V30 9 H 9.385254 7.793556 -7.521784 0
M  V30 10 H 10.733132 9.981269 -6.265622 0
M  V30 11 H 12.428528 9.537349 -6.070829 0
M  V30 12 H 11.212658 9.089347 -8.472788 0
M  V30 13 H 12.405421 7.965142 -7.815352 0
M  V30 END ATOM
M  V30 BEGIN BOND
M  V30 1 1 2 1
M  V30 2 1 3 2
M  V30 3 1 4 1
M  V30 4 1 5 3
M  V30 5 1 5 4
M  V30 6 1 6 2
M  V30 7 1 7 2
M  V30 8 1 8 3
M  V30 9 1 9 3
M  V30 10 1 10 4
M  V30 11 1 11 4
M  V30 12 1 12 5
M  V30 13 1 13 5
M  V30 END BOND
M  V30 END CTAB
M  END
>  <i_epik_Tot_Q>  (1) 
0

>  <i_epik_Tot_abs_Q>  (1) 
0

>  <i_i_glide_confnum>  (1) 
3

>  <i_i_glide_lignum>  (1) 
62

>  <i_i_glide_posenum>  (1) 
190

>  <i_i_glide_rotatable_bonds>  (1) 
0

>  <i_lp_mmshare_version>  (1) 
72125

>  <i_m_source_file_index>  (1) 
56

>  <i_f3d_flags>  (1) 
0

>  <num_sample>  (1) 
100

>  <b_lp_Chiralities_Consistent>  (1) 
1

>  <r_epik_Charging_Adjusted_Penalty>  (1) 
0

>  <r_epik_Ionization_Penalty>  (1) 
1.3889264151150229e-11

>  <r_epik_Ionization_Penalty_Charging>  (1) 
0

>  <r_epik_Ionization_Penalty_Neutral>  (1) 
1.3889264151150229e-11

>  <r_epik_State_Penalty>  (1) 
-0

>  <r_glide_ring_energy>  (1) 
0.22161987042107956

>  <r_i_docking_score>  (1) 
-4.0876703278495539

>  <r_i_glide_ecoul>  (1) 
-0.70555493005562375

>  <r_i_glide_eff_state_penalty>  (1) 
-0

>  <r_i_glide_einternal>  (1) 
0

>  <r_i_glide_emodel>  (1) 
-16.454987159085238

>  <r_i_glide_emodel_strain>  (1) 
0

>  <r_i_glide_energy>  (1) 
-13.018537247573768

>  <r_i_glide_erotb>  (1) 
0

>  <r_i_glide_esite>  (1) 
0

>  <r_i_glide_evdw>  (1) 
-12.312982317518145

>  <r_i_glide_gscore>  (1) 
-4.0876703278495539

>  <r_i_glide_gscore_strain>  (1) 
0

>  <r_i_glide_hbond>  (1) 
0

>  <r_i_glide_ligand_efficiency>  (1) 
-0.81753406556991082

>  <r_i_glide_ligand_efficiency_ln>  (1) 
-1.5664945727858106

>  <r_i_glide_ligand_efficiency_sa>  (1) 
-1.3979635877133572

>  <r_i_glide_lipo>  (1) 
-0.80776932700541726

>  <r_i_glide_metal>  (1) 
-0

>  <r_i_glide_rewards>  (1) 
-2.5584186454598856

>  <r_lp_Energy>  (1) 
3.9173999999999998

>  <r_lp_tautomer_probability>  (1) 
1

>  <s_epik_cmdline>  (1) 
J2VwaWtfcHl0aG9uJywgJy1waHQnLCAnMS4wJywgJy1waCcsICc3LjQnLCAnLXRuJywgJzgnLCAnLW1hJywgJzUwMCcsICctaW1hZScsICc8aW5maWxlLm1hZT4nLCAnLW9tYWUnLCAnPG91dGZpbGUubWFlPic=

>  <s_epik_input>  (1) 
TzFbQ0gyXVtDSDJdW0NIMl1bQ0gyXTE=

>  <s_glide_docking_method>  (1) 
confgen

>  <s_i_glide_gridfile>  (1) 
gpcr_drd2_6luq_protein_autoprepared_prepared

>  <s_lp_Force_Field>  (1) 
S-OPLS

>  <s_lp_Variant>  (1) 
Pocket2Mol_55_num_sample_100-1

>  <s_m_source_file>  (1) 
generated__ligand_Pocket2Mol_2026-05-06_prepared.sdf

>  <GenAI_Model>  (1) 
Pocket2Mol

>  <Protein>  (1) 
generic_title2

$$$$
Pocket2Mol_5_num_sample_100
     RDKit          3D

  0  0  0  0  0  0  0  0  0  0999 V3000
M  V30 BEGIN CTAB
M  V30 COUNTS 16 16 0 0 1
M  V30 BEGIN ATOM
M  V30 1 C 10.840289 7.624326 -6.118750 0
M  V30 2 O 11.291537 8.763059 -6.847651 0
M  V30 3 C 11.639650 8.461915 -8.196642 0
M  V30 4 C 10.417085 7.916728 -8.954379 0
M  V30 5 C 9.834841 6.696739 -8.231663 0
M  V30 6 C 9.570587 7.050202 -6.764964 0
M  V30 7 H 11.625597 6.867969 -6.078445 0
M  V30 8 H 10.634841 7.924045 -5.091667 0
M  V30 9 H 12.000329 9.369301 -8.680205 0
M  V30 10 H 12.463012 7.747206 -8.216126 0
M  V30 11 H 9.653659 8.693260 -9.025062 0
M  V30 12 H 10.690004 7.654622 -9.976797 0
M  V30 13 H 8.911309 6.374140 -8.714278 0
M  V30 14 H 10.532594 5.860532 -8.291601 0
M  V30 15 H 9.231754 6.169305 -6.219529 0
M  V30 16 H 8.762600 7.781287 -6.703253 0
M  V30 END ATOM
M  V30 BEGIN BOND
M  V30 1 1 2 1
M  V30 2 1 3 2
M  V30 3 1 4 3
M  V30 4 1 5 4
M  V30 5 1 6 1
M  V30 6 1 6 5
M  V30 7 1 7 1
M  V30 8 1 8 1
M  V30 9 1 9 3
M  V30 10 1 10 3
M  V30 11 1 11 4
M  V30 12 1 12 4
M  V30 13 1 13 5
M  V30 14 1 14 5
M  V30 15 1 15 6
M  V30 16 1 16 6
M  V30 END BOND
M  V30 END CTAB
M  END
>  <i_epik_Tot_Q>  (1) 
0

>  <i_epik_Tot_abs_Q>  (1) 
0

>  <i_i_glide_confnum>  (1) 
1

>  <i_i_glide_lignum>  (1) 
6

>  <i_i_glide_posenum>  (1) 
329

>  <i_i_glide_rotatable_bonds>  (1) 
0

>  <i_lp_mmshare_version>  (1) 
72125

>  <i_m_source_file_index>  (1) 
6

>  <i_f3d_flags>  (1) 
0

>  <num_sample>  (1) 
100

>  <b_lp_Chiralities_Consistent>  (1) 
1

>  <r_epik_Charging_Adjusted_Penalty>  (1) 
0

>  <r_epik_Ionization_Penalty>  (1) 
1.5229185111393156e-11

>  <r_epik_Ionization_Penalty_Charging>  (1) 
0

>  <r_epik_Ionization_Penalty_Neutral>  (1) 
1.5229185111393156e-11

>  <r_epik_State_Penalty>  (1) 
-0

>  <r_glide_ring_energy>  (1) 
0

>  <r_i_docking_score>  (1) 
-4.0784003479812867

>  <r_i_glide_ecoul>  (1) 
-0.73502719584032117

>  <r_i_glide_eff_state_penalty>  (1) 
-0

>  <r_i_glide_einternal>  (1) 
0

>  <r_i_glide_emodel>  (1) 
-19.086984031712952

>  <r_i_glide_emodel_strain>  (1) 
0

>  <r_i_glide_energy>  (1) 
-15.215050459294462

>  <r_i_glide_erotb>  (1) 
0

>  <r_i_glide_esite>  (1) 
0

>  <r_i_glide_evdw>  (1) 
-14.480023263454141

>  <r_i_glide_gscore>  (1) 
-4.0784003479812867

>  <r_i_glide_gscore_strain>  (1) 
0

>  <r_i_glide_hbond>  (1) 
0

>  <r_i_glide_ligand_efficiency>  (1) 
-0.67973339133021449

>  <r_i_glide_ligand_efficiency_ln>  (1) 
-1.4608709643273812

>  <r_i_glide_ligand_efficiency_sa>  (1) 
-1.2351575430217603

>  <r_i_glide_lipo>  (1) 
-0.48581177209919862

>  <r_i_glide_metal>  (1) 
-0

>  <r_i_glide_rewards>  (1) 
-2.7583333333333333

>  <r_lp_Energy>  (1) 
2.9645999999999999

>  <r_lp_tautomer_probability>  (1) 
1

>  <s_epik_cmdline>  (1) 
J2VwaWtfcHl0aG9uJywgJy1waHQnLCAnMS4wJywgJy1waCcsICc3LjQnLCAnLXRuJywgJzgnLCAnLW1hJywgJzUwMCcsICctaW1hZScsICc8aW5maWxlLm1hZT4nLCAnLW9tYWUnLCAnPG91dGZpbGUubWFlPic=

>  <s_epik_input>  (1) 
W0NIMl0xT1tDSDJdW0NIMl1bQ0gyXVtDSDJdMQ==

>  <s_glide_docking_method>  (1) 
confgen

>  <s_i_glide_gridfile>  (1) 
gpcr_drd2_6luq_protein_autoprepared_prepared

>  <s_lp_Force_Field>  (1) 
S-OPLS

>  <s_lp_Variant>  (1) 
Pocket2Mol_5_num_sample_100-1

>  <s_m_source_file>  (1) 
generated__ligand_Pocket2Mol_2026-05-06_prepared.sdf

>  <GenAI_Model>  (1) 
Pocket2Mol

>  <Protein>  (1) 
generic_title2

$$$$
Pocket2Mol_5_num_sample_100
     RDKit          3D

  0  0  0  0  0  0  0  0  0  0999 V3000
M  V30 BEGIN CTAB
M  V30 COUNTS 16 16 0 0 1
M  V30 BEGIN ATOM
M  V30 1 C 10.070826 7.369300 -9.841239 0
M  V30 2 O 11.446171 7.704942 -10.009628 0
M  V30 3 C 11.887099 8.713076 -9.107316 0
M  V30 4 C 11.737721 8.230636 -7.655254 0
M  V30 5 C 10.290842 7.812022 -7.370295 0
M  V30 6 C 9.834839 6.804036 -8.430001 0
M  V30 7 H 9.445411 8.246458 -10.016575 0
M  V30 8 H 9.793501 6.628442 -10.591278 0
M  V30 9 H 12.932226 8.939447 -9.319173 0
M  V30 10 H 11.327081 9.633717 -9.274043 0
M  V30 11 H 12.399838 7.380252 -7.491668 0
M  V30 12 H 12.050251 9.012061 -6.962294 0
M  V30 13 H 10.202626 7.381081 -6.372454 0
M  V30 14 H 9.638432 8.686219 -7.394288 0
M  V30 15 H 8.778174 6.569300 -8.291666 0
M  V30 16 H 10.382725 5.868188 -8.313099 0
M  V30 END ATOM
M  V30 BEGIN BOND
M  V30 1 1 2 1
M  V30 2 1 3 2
M  V30 3 1 4 3
M  V30 4 1 5 4
M  V30 5 1 6 1
M  V30 6 1 6 5
M  V30 7 1 7 1
M  V30 8 1 8 1
M  V30 9 1 9 3
M  V30 10 1 10 3
M  V30 11 1 11 4
M  V30 12 1 12 4
M  V30 13 1 13 5
M  V30 14 1 14 5
M  V30 15 1 15 6
M  V30 16 1 16 6
M  V30 END BOND
M  V30 END CTAB
M  END
>  <i_epik_Tot_Q>  (1) 
0

>  <i_epik_Tot_abs_Q>  (1) 
0

>  <i_i_glide_confnum>  (1) 
1

>  <i_i_glide_lignum>  (1) 
6

>  <i_i_glide_posenum>  (1) 
127

>  <i_i_glide_rotatable_bonds>  (1) 
0

>  <i_lp_mmshare_version>  (1) 
72125

>  <i_m_source_file_index>  (1) 
6

>  <i_f3d_flags>  (1) 
0

>  <num_sample>  (1) 
100

>  <b_lp_Chiralities_Consistent>  (1) 
1

>  <r_epik_Charging_Adjusted_Penalty>  (1) 
0

>  <r_epik_Ionization_Penalty>  (1) 
1.5229185111393156e-11

>  <r_epik_Ionization_Penalty_Charging>  (1) 
0

>  <r_epik_Ionization_Penalty_Neutral>  (1) 
1.5229185111393156e-11

>  <r_epik_State_Penalty>  (1) 
-0

>  <r_glide_ring_energy>  (1) 
0

>  <r_i_docking_score>  (1) 
-4.0778593631005586

>  <r_i_glide_ecoul>  (1) 
-1.0181690863359318

>  <r_i_glide_eff_state_penalty>  (1) 
-0

>  <r_i_glide_einternal>  (1) 
0

>  <r_i_glide_emodel>  (1) 
-18.396058545853823

>  <r_i_glide_emodel_strain>  (1) 
0

>  <r_i_glide_energy>  (1) 
-14.524638571253872

>  <r_i_glide_erotb>  (1) 
0

>  <r_i_glide_esite>  (1) 
0

>  <r_i_glide_evdw>  (1) 
-13.50646948491794

>  <r_i_glide_gscore>  (1) 
-4.0778593631005586

>  <r_i_glide_gscore_strain>  (1) 
0

>  <r_i_glide_hbond>  (1) 
0

>  <r_i_glide_ligand_efficiency>  (1) 
-0.6796432271834264

>  <r_i_glide_ligand_efficiency_ln>  (1) 
-1.4606771851402087

>  <r_i_glide_ligand_efficiency_sa>  (1) 
-1.2349937038938965

>  <r_i_glide_lipo>  (1) 
-0.53334540170861677

>  <r_i_glide_metal>  (1) 
-0

>  <r_i_glide_rewards>  (1) 
-2.7164651241956554

>  <r_lp_Energy>  (1) 
2.9645999999999999

>  <r_lp_tautomer_probability>  (1) 
1

>  <s_epik_cmdline>  (1) 
J2VwaWtfcHl0aG9uJywgJy1waHQnLCAnMS4wJywgJy1waCcsICc3LjQnLCAnLXRuJywgJzgnLCAnLW1hJywgJzUwMCcsICctaW1hZScsICc8aW5maWxlLm1hZT4nLCAnLW9tYWUnLCAnPG91dGZpbGUubWFlPic=

>  <s_epik_input>  (1) 
W0NIMl0xT1tDSDJdW0NIMl1bQ0gyXVtDSDJdMQ==

>  <s_glide_docking_method>  (1) 
confgen

>  <s_i_glide_gridfile>  (1) 
gpcr_drd2_6luq_protein_autoprepared_prepared

>  <s_lp_Force_Field>  (1) 
S-OPLS

>  <s_lp_Variant>  (1) 
Pocket2Mol_5_num_sample_100-1

>  <s_m_source_file>  (1) 
generated__ligand_Pocket2Mol_2026-05-06_prepared.sdf

>  <GenAI_Model>  (1) 
Pocket2Mol

>  <Protein>  (1) 
generic_title2

$$$$
Pocket2Mol_6_num_sample_100
     RDKit          3D

  0  0  0  0  0  0  0  0  0  0999 V3000
M  V30 BEGIN CTAB
M  V30 COUNTS 14 14 0 0 1
M  V30 BEGIN ATOM
M  V30 1 C 9.851574 7.605454 -9.250963 0
M  V30 2 O 11.226785 7.520517 -9.608798 0
M  V30 3 C 9.712460 7.519516 -7.718932 0
M  V30 4 O 10.464267 8.569301 -7.122191 0
M  V30 5 C 11.976188 8.569300 -9.011563 0
M  V30 6 C 11.834837 8.475743 -7.481893 0
M  V30 7 H 9.426763 8.538343 -9.624520 0
M  V30 8 H 9.305192 6.791158 -9.727129 0
M  V30 9 H 8.667221 7.620117 -7.425490 0
M  V30 10 H 10.054023 6.550535 -7.351582 0
M  V30 11 H 13.022124 8.471370 -9.303212 0
M  V30 12 H 11.630683 9.537417 -9.377930 0
M  V30 13 H 12.234839 7.530728 -7.114782 0
M  V30 14 H 12.390087 9.278365 -6.996372 0
M  V30 END ATOM
M  V30 BEGIN BOND
M  V30 1 1 2 1
M  V30 2 1 3 1
M  V30 3 1 4 3
M  V30 4 1 5 2
M  V30 5 1 6 4
M  V30 6 1 6 5
M  V30 7 1 7 1
M  V30 8 1 8 1
M  V30 9 1 9 3
M  V30 10 1 10 3
M  V30 11 1 11 5
M  V30 12 1 12 5
M  V30 13 1 13 6
M  V30 14 1 14 6
M  V30 END BOND
M  V30 END CTAB
M  END
>  <i_epik_Tot_Q>  (1) 
0

>  <i_epik_Tot_abs_Q>  (1) 
0

>  <i_i_glide_confnum>  (1) 
2

>  <i_i_glide_lignum>  (1) 
7

>  <i_i_glide_posenum>  (1) 
120

>  <i_i_glide_rotatable_bonds>  (1) 
0

>  <i_lp_mmshare_version>  (1) 
72125

>  <i_m_source_file_index>  (1) 
7

>  <i_f3d_flags>  (1) 
0

>  <num_sample>  (1) 
100

>  <b_lp_Chiralities_Consistent>  (1) 
1

>  <r_epik_Charging_Adjusted_Penalty>  (1) 
0

>  <r_epik_Ionization_Penalty>  (1) 
8.3894707547109138e-13

>  <r_epik_Ionization_Penalty_Charging>  (1) 
0

>  <r_epik_Ionization_Penalty_Neutral>  (1) 
8.3894707547109138e-13

>  <r_epik_State_Penalty>  (1) 
-0

>  <r_glide_ring_energy>  (1) 
0.00013676017923054334

>  <r_i_docking_score>  (1) 
-4.0761199545552094

>  <r_i_glide_ecoul>  (1) 
-1.3660020894008533

>  <r_i_glide_eff_state_penalty>  (1) 
-0

>  <r_i_glide_einternal>  (1) 
0

>  <r_i_glide_emodel>  (1) 
-17.519519797377562

>  <r_i_glide_emodel_strain>  (1) 
0

>  <r_i_glide_energy>  (1) 
-13.831769123124573

>  <r_i_glide_erotb>  (1) 
0

>  <r_i_glide_esite>  (1) 
0

>  <r_i_glide_evdw>  (1) 
-12.46576703372372

>  <r_i_glide_gscore>  (1) 
-4.0761199545552094

>  <r_i_glide_gscore_strain>  (1) 
0

>  <r_i_glide_hbond>  (1) 
0

>  <r_i_glide_ligand_efficiency>  (1) 
-0.6793533257592016

>  <r_i_glide_ligand_efficiency_ln>  (1) 
-1.4600541341343747

>  <r_i_glide_ligand_efficiency_sa>  (1) 
-1.2344669180460461

>  <r_i_glide_lipo>  (1) 
-0.56459795612556218

>  <r_i_glide_metal>  (1) 
-0

>  <r_i_glide_rewards>  (1) 
-2.6833333333333336

>  <r_lp_Energy>  (1) 
4.9648199999999996

>  <r_lp_tautomer_probability>  (1) 
1

>  <s_epik_cmdline>  (1) 
J2VwaWtfcHl0aG9uJywgJy1waHQnLCAnMS4wJywgJy1waCcsICc3LjQnLCAnLXRuJywgJzgnLCAnLW1hJywgJzUwMCcsICctaW1hZScsICc8aW5maWxlLm1hZT4nLCAnLW9tYWUnLCAnPG91dGZpbGUubWFlPic=

>  <s_epik_input>  (1) 
W0NIMl0xT1tDSDJdW0NIMl1PW0NIMl0x

>  <s_glide_docking_method>  (1) 
confgen

>  <s_i_glide_gridfile>  (1) 
gpcr_drd2_6luq_protein_autoprepared_prepared

>  <s_lp_Force_Field>  (1) 
S-OPLS

>  <s_lp_Variant>  (1) 
Pocket2Mol_6_num_sample_100-1

>  <s_m_source_file>  (1) 
generated__ligand_Pocket2Mol_2026-05-06_prepared.sdf

>  <GenAI_Model>  (1) 
Pocket2Mol

>  <Protein>  (1) 
generic_title2

$$$$
Pocket2Mol_66_num_sample_100
     RDKit          3D

  0  0  0  0  0  0  0  0  0  0999 V3000
M  V30 BEGIN CTAB
M  V30 COUNTS 8 8 0 0 1
M  V30 BEGIN ATOM
M  V30 1 N 11.834839 6.766038 -3.384890 0
M  V30 2 C 11.834841 7.917736 -4.257698 0
M  V30 3 C 12.228290 8.968987 -3.641484 0
M  V30 4 C 12.476756 8.568121 -2.409630 0
M  V30 5 C 12.234878 7.279395 -2.291993 0
M  V30 6 H 11.524626 7.832664 -5.290040 0
M  V30 7 H 12.314843 9.967909 -4.038384 0
M  V30 8 H 12.655500 9.245293 -1.588473 0
M  V30 END ATOM
M  V30 BEGIN BOND
M  V30 1 1 2 1
M  V30 2 2 3 2
M  V30 3 1 4 3
M  V30 4 2 5 1
M  V30 5 2 5 4
M  V30 6 1 6 2
M  V30 7 1 7 3
M  V30 8 1 8 4
M  V30 END BOND
M  V30 END CTAB
M  END
>  <i_epik_Tot_Q>  (1) 
0

>  <i_epik_Tot_abs_Q>  (1) 
0

>  <i_i_glide_confnum>  (1) 
1

>  <i_i_glide_lignum>  (1) 
73

>  <i_i_glide_posenum>  (1) 
121

>  <i_i_glide_rotatable_bonds>  (1) 
0

>  <i_lp_mmshare_version>  (1) 
72125

>  <i_m_source_file_index>  (1) 
67

>  <i_f3d_flags>  (1) 
0

>  <num_sample>  (1) 
100

>  <b_lp_Chiralities_Consistent>  (1) 
1

>  <r_epik_Charging_Adjusted_Penalty>  (1) 
0

>  <r_epik_Ionization_Penalty>  (1) 
0

>  <r_epik_Ionization_Penalty_Charging>  (1) 
0

>  <r_epik_Ionization_Penalty_Neutral>  (1) 
0

>  <r_epik_State_Penalty>  (1) 
-0

>  <r_glide_ring_energy>  (1) 
0

>  <r_i_docking_score>  (1) 
-4.0670326216774892

>  <r_i_glide_ecoul>  (1) 
0.11469054731837555

>  <r_i_glide_eff_state_penalty>  (1) 
-0

>  <r_i_glide_einternal>  (1) 
0

>  <r_i_glide_emodel>  (1) 
-16.849772422958161

>  <r_i_glide_emodel_strain>  (1) 
0

>  <r_i_glide_energy>  (1) 
-13.168595903242855

>  <r_i_glide_erotb>  (1) 
0

>  <r_i_glide_esite>  (1) 
0

>  <r_i_glide_evdw>  (1) 
-13.28328645056123

>  <r_i_glide_gscore>  (1) 
-4.0670326216774892

>  <r_i_glide_gscore_strain>  (1) 
0

>  <r_i_glide_hbond>  (1) 
0

>  <r_i_glide_ligand_efficiency>  (1) 
-0.81340652433549787

>  <r_i_glide_ligand_efficiency_ln>  (1) 
-1.5585857024219192

>  <r_i_glide_ligand_efficiency_sa>  (1) 
-1.3909055914835946

>  <r_i_glide_lipo>  (1) 
-1.0417230593507982

>  <r_i_glide_metal>  (1) 
-0

>  <r_i_glide_rewards>  (1) 
-2.3783488218963855

>  <r_lp_Energy>  (1) 
4.860805

>  <r_lp_tautomer_probability>  (1) 
1

>  <s_epik_Chemistry_Notes>  (1) 
This compound has an imine and may undergo hydrolysis.

>  <s_epik_cmdline>  (1) 
J2VwaWtfcHl0aG9uJywgJy1waHQnLCAnMS4wJywgJy1waCcsICc3LjQnLCAnLXRuJywgJzgnLCAnLW1hJywgJzUwMCcsICctaW1hZScsICc8aW5maWxlLm1hZT4nLCAnLW9tYWUnLCAnPG91dGZpbGUubWFlPic=

>  <s_epik_input>  (1) 
TjE9Qz1bQ0hdW0NIXT1bQ0hdMQ==

>  <s_glide_docking_method>  (1) 
confgen

>  <s_i_glide_gridfile>  (1) 
gpcr_drd2_6luq_protein_autoprepared_prepared

>  <s_lp_Force_Field>  (1) 
S-OPLS

>  <s_lp_Variant>  (1) 
Pocket2Mol_66_num_sample_100-1

>  <s_m_source_file>  (1) 
generated__ligand_Pocket2Mol_2026-05-06_prepared.sdf

>  <GenAI_Model>  (1) 
Pocket2Mol

>  <Protein>  (1) 
generic_title2

$$$$
Pocket2Mol_5_num_sample_100
     RDKit          3D

  0  0  0  0  0  0  0  0  0  0999 V3000
M  V30 BEGIN CTAB
M  V30 COUNTS 16 16 0 0 1
M  V30 BEGIN ATOM
M  V30 1 C 11.416581 8.808082 -6.625889 0
M  V30 2 O 11.034881 7.631657 -5.919728 0
M  V30 3 C 9.834839 7.047036 -6.418055 0
M  V30 4 C 10.017022 6.616883 -7.881625 0
M  V30 5 C 10.464013 7.807673 -8.736933 0
M  V30 6 C 11.692022 8.469720 -8.101055 0
M  V30 7 H 10.634833 9.562600 -6.535144 0
M  V30 8 H 12.311453 9.224449 -6.163160 0
M  V30 9 H 9.583095 6.181978 -5.804291 0
M  V30 10 H 9.007839 7.753051 -6.322954 0
M  V30 11 H 10.759113 5.819718 -7.936494 0
M  V30 12 H 9.083761 6.206485 -8.269940 0
M  V30 13 H 10.685565 7.484133 -9.754293 0
M  V30 14 H 9.648631 8.529744 -8.808413 0
M  V30 15 H 11.960860 9.369301 -8.654666 0
M  V30 16 H 12.547114 7.795695 -8.164434 0
M  V30 END ATOM
M  V30 BEGIN BOND
M  V30 1 1 2 1
M  V30 2 1 3 2
M  V30 3 1 4 3
M  V30 4 1 5 4
M  V30 5 1 6 1
M  V30 6 1 6 5
M  V30 7 1 7 1
M  V30 8 1 8 1
M  V30 9 1 9 3
M  V30 10 1 10 3
M  V30 11 1 11 4
M  V30 12 1 12 4
M  V30 13 1 13 5
M  V30 14 1 14 5
M  V30 15 1 15 6
M  V30 16 1 16 6
M  V30 END BOND
M  V30 END CTAB
M  END
>  <i_epik_Tot_Q>  (1) 
0

>  <i_epik_Tot_abs_Q>  (1) 
0

>  <i_i_glide_confnum>  (1) 
1

>  <i_i_glide_lignum>  (1) 
6

>  <i_i_glide_posenum>  (1) 
365

>  <i_i_glide_rotatable_bonds>  (1) 
0

>  <i_lp_mmshare_version>  (1) 
72125

>  <i_m_source_file_index>  (1) 
6

>  <i_f3d_flags>  (1) 
0

>  <num_sample>  (1) 
100

>  <b_lp_Chiralities_Consistent>  (1) 
1

>  <r_epik_Charging_Adjusted_Penalty>  (1) 
0

>  <r_epik_Ionization_Penalty>  (1) 
1.5229185111393156e-11

>  <r_epik_Ionization_Penalty_Charging>  (1) 
0

>  <r_epik_Ionization_Penalty_Neutral>  (1) 
1.5229185111393156e-11

>  <r_epik_State_Penalty>  (1) 
-0

>  <r_glide_ring_energy>  (1) 
0

>  <r_i_docking_score>  (1) 
-4.0589187082263951

>  <r_i_glide_ecoul>  (1) 
-0.47220356671525154

>  <r_i_glide_eff_state_penalty>  (1) 
-0

>  <r_i_glide_einternal>  (1) 
0

>  <r_i_glide_emodel>  (1) 
-18.79909370237996

>  <r_i_glide_emodel_strain>  (1) 
0

>  <r_i_glide_energy>  (1) 
-14.945655522413576

>  <r_i_glide_erotb>  (1) 
0

>  <r_i_glide_esite>  (1) 
0

>  <r_i_glide_evdw>  (1) 
-14.473451955698325

>  <r_i_glide_gscore>  (1) 
-4.0589187082263951

>  <r_i_glide_gscore_strain>  (1) 
0

>  <r_i_glide_hbond>  (1) 
0

>  <r_i_glide_ligand_efficiency>  (1) 
-0.67648645137106589

>  <r_i_glide_ligand_efficiency_ln>  (1) 
-1.4538926984811913

>  <r_i_glide_ligand_efficiency_sa>  (1) 
-1.2292574615583018

>  <r_i_glide_lipo>  (1) 
-0.57274890876752427

>  <r_i_glide_metal>  (1) 
-0

>  <r_i_glide_rewards>  (1) 
-2.6916666666666664

>  <r_lp_Energy>  (1) 
2.9645999999999999

>  <r_lp_tautomer_probability>  (1) 
1

>  <s_epik_cmdline>  (1) 
J2VwaWtfcHl0aG9uJywgJy1waHQnLCAnMS4wJywgJy1waCcsICc3LjQnLCAnLXRuJywgJzgnLCAnLW1hJywgJzUwMCcsICctaW1hZScsICc8aW5maWxlLm1hZT4nLCAnLW9tYWUnLCAnPG91dGZpbGUubWFlPic=

>  <s_epik_input>  (1) 
W0NIMl0xT1tDSDJdW0NIMl1bQ0gyXVtDSDJdMQ==

>  <s_glide_docking_method>  (1) 
confgen

>  <s_i_glide_gridfile>  (1) 
gpcr_drd2_6luq_protein_autoprepared_prepared

>  <s_lp_Force_Field>  (1) 
S-OPLS

>  <s_lp_Variant>  (1) 
Pocket2Mol_5_num_sample_100-1

>  <s_m_source_file>  (1) 
generated__ligand_Pocket2Mol_2026-05-06_prepared.sdf

>  <GenAI_Model>  (1) 
Pocket2Mol

>  <Protein>  (1) 
generic_title2

$$$$
Pocket2Mol_4_num_sample_100
     RDKit          3D

  0  0  0  0  0  0  0  0  0  0999 V3000
M  V30 BEGIN CTAB
M  V30 COUNTS 9 9 0 0 1
M  V30 BEGIN ATOM
M  V30 1 N 9.822540 8.022252 -8.548673 0
M  V30 2 C 10.739505 8.169293 -9.544512 0
M  V30 3 C 11.913700 8.527133 -8.956389 0
M  V30 4 C 11.592091 8.569241 -7.559589 0
M  V30 5 N 10.315075 8.258634 -7.319076 0
M  V30 6 H 8.844151 7.769297 -8.691665 0
M  V30 7 H 10.484560 8.012583 -10.582443 0
M  V30 8 H 12.857697 8.731037 -9.440692 0
M  V30 9 H 12.235240 8.812703 -6.727120 0
M  V30 END ATOM
M  V30 BEGIN BOND
M  V30 1 1 2 1
M  V30 2 2 3 2
M  V30 3 1 4 3
M  V30 4 1 5 1
M  V30 5 2 5 4
M  V30 6 1 6 1
M  V30 7 1 7 2
M  V30 8 1 8 3
M  V30 9 1 9 4
M  V30 END BOND
M  V30 END CTAB
M  END
>  <i_epik_Tot_Q>  (1) 
0

>  <i_epik_Tot_abs_Q>  (1) 
0

>  <i_i_glide_confnum>  (1) 
1

>  <i_i_glide_lignum>  (1) 
5

>  <i_i_glide_posenum>  (1) 
390

>  <i_i_glide_rotatable_bonds>  (1) 
0

>  <i_lp_mmshare_version>  (1) 
72125

>  <i_m_source_file_index>  (1) 
5

>  <i_f3d_flags>  (1) 
0

>  <num_sample>  (1) 
100

>  <b_lp_Chiralities_Consistent>  (1) 
1

>  <r_epik_Charging_Adjusted_Penalty>  (1) 
0

>  <r_epik_Ionization_Penalty>  (1) 
1.0045315435319e-05

>  <r_epik_Ionization_Penalty_Charging>  (1) 
0

>  <r_epik_Ionization_Penalty_Neutral>  (1) 
1.0045315435319e-05

>  <r_epik_State_Penalty>  (1) 
-0

>  <r_glide_ring_energy>  (1) 
0

>  <r_i_docking_score>  (1) 
-4.0541482533288811

>  <r_i_glide_ecoul>  (1) 
-2.7559052924554011

>  <r_i_glide_eff_state_penalty>  (1) 
-0

>  <r_i_glide_einternal>  (1) 
0

>  <r_i_glide_emodel>  (1) 
-18.804248855817448

>  <r_i_glide_emodel_strain>  (1) 
0

>  <r_i_glide_energy>  (1) 
-13.968712478589143

>  <r_i_glide_erotb>  (1) 
0

>  <r_i_glide_esite>  (1) 
-0.096636266447197902

>  <r_i_glide_evdw>  (1) 
-11.212807186133743

>  <r_i_glide_gscore>  (1) 
-4.0541482533288811

>  <r_i_glide_gscore_strain>  (1) 
0

>  <r_i_glide_hbond>  (1) 
-0.16

>  <r_i_glide_ligand_efficiency>  (1) 
-0.81082965066577617

>  <r_i_glide_ligand_efficiency_ln>  (1) 
-1.553648099466427

>  <r_i_glide_ligand_efficiency_sa>  (1) 
-1.3864991994907463

>  <r_i_glide_lipo>  (1) 
-0.57348583370668604

>  <r_i_glide_metal>  (1) 
-0

>  <r_i_glide_rewards>  (1) 
-2.25

>  <r_lp_Energy>  (1) 
2.3130189999999997

>  <r_lp_tautomer_probability>  (1) 
1

>  <s_epik_cmdline>  (1) 
J2VwaWtfcHl0aG9uJywgJy1waHQnLCAnMS4wJywgJy1waCcsICc3LjQnLCAnLXRuJywgJzgnLCAnLW1hJywgJzUwMCcsICctaW1hZScsICc8aW5maWxlLm1hZT4nLCAnLW9tYWUnLCAnPG91dGZpbGUubWFlPic=

>  <s_epik_input>  (1) 
W25IXTFbY0hdW2NIXVtjSF1uMQ==

>  <s_glide_docking_method>  (1) 
confgen

>  <s_i_glide_gridfile>  (1) 
gpcr_drd2_6luq_protein_autoprepared_prepared

>  <s_lp_Force_Field>  (1) 
S-OPLS

>  <s_lp_Variant>  (1) 
Pocket2Mol_4_num_sample_100-1

>  <s_m_source_file>  (1) 
generated__ligand_Pocket2Mol_2026-05-06_prepared.sdf

>  <GenAI_Model>  (1) 
Pocket2Mol

>  <Protein>  (1) 
generic_title2

$$$$
Pocket2Mol_9_num_sample_100
     RDKit          3D

  0  0  0  0  0  0  0  0  0  0999 V3000
M  V30 BEGIN CTAB
M  V30 COUNTS 13 13 0 0 1
M  V30 BEGIN ATOM
M  V30 1 N 11.513940 8.244712 -9.357487 0 CHG=1
M  V30 2 C 11.388512 8.164525 -7.995953 0
M  V30 3 C 10.056074 7.952001 -7.730347 0
M  V30 4 C 10.322693 8.091456 -9.937414 0
M  V30 5 C 9.316227 7.783010 -6.448227 0
M  V30 6 N 9.445331 7.913805 -8.954665 0
M  V30 7 H 12.232832 8.261552 -7.329292 0
M  V30 8 H 10.114187 8.107833 -10.995108 0
M  V30 9 H 10.001584 7.847919 -5.602473 0
M  V30 10 H 8.560300 8.561454 -6.340552 0
M  V30 11 H 8.823764 6.810440 -6.419459 0
M  V30 12 H 8.435575 7.769306 -9.093721 0
M  V30 13 H 12.385287 8.398281 -9.852212 0
M  V30 END ATOM
M  V30 BEGIN BOND
M  V30 1 1 2 1
M  V30 2 2 3 2
M  V30 3 2 4 1
M  V30 4 1 5 3
M  V30 5 1 6 3
M  V30 6 1 6 4
M  V30 7 1 7 2
M  V30 8 1 8 4
M  V30 9 1 9 5
M  V30 10 1 10 5
M  V30 11 1 11 5
M  V30 12 1 12 6
M  V30 13 1 13 1
M  V30 END BOND
M  V30 END CTAB
M  END
>  <i_epik_Tot_Q>  (1) 
1

>  <i_epik_Tot_abs_Q>  (1) 
1

>  <i_i_glide_confnum>  (1) 
1

>  <i_i_glide_lignum>  (1) 
11

>  <i_i_glide_posenum>  (1) 
383

>  <i_i_glide_rotatable_bonds>  (1) 
0

>  <i_lp_mmshare_version>  (1) 
72125

>  <i_m_source_file_index>  (1) 
10

>  <i_f3d_flags>  (1) 
0

>  <num_sample>  (1) 
100

>  <b_lp_Chiralities_Consistent>  (1) 
1

>  <r_epik_Charging_Adjusted_Penalty>  (1) 
0.63910500234431922

>  <r_epik_Ionization_Penalty>  (1) 
0.82018112513013652

>  <r_epik_Ionization_Penalty_Charging>  (1) 
0

>  <r_epik_Ionization_Penalty_Neutral>  (1) 
0.82018112513013652

>  <r_epik_State_Penalty>  (1) 
0.63910500234431922

>  <r_glide_ring_energy>  (1) 
0

>  <r_i_docking_score>  (1) 
-4.0531373717677539

>  <r_i_glide_ecoul>  (1) 
-9.5797719625954159

>  <r_i_glide_eff_state_penalty>  (1) 
0.63910500234431922

>  <r_i_glide_einternal>  (1) 
0

>  <r_i_glide_emodel>  (1) 
-27.722695913039171

>  <r_i_glide_emodel_strain>  (1) 
0

>  <r_i_glide_energy>  (1) 
-18.820998499430161

>  <r_i_glide_erotb>  (1) 
0

>  <r_i_glide_esite>  (1) 
-0.14543012699710775

>  <r_i_glide_evdw>  (1) 
-9.2412265368347466

>  <r_i_glide_gscore>  (1) 
-4.6922423741120731

>  <r_i_glide_gscore_strain>  (1) 
0

>  <r_i_glide_hbond>  (1) 
-0.19303641588500681

>  <r_i_glide_ligand_efficiency>  (1) 
-0.67552289529462561

>  <r_i_glide_ligand_efficiency_ln>  (1) 
-1.451821840829461

>  <r_i_glide_ligand_efficiency_sa>  (1) 
-1.2275065639694538

>  <r_i_glide_lipo>  (1) 
-0.2047487099989089

>  <r_i_glide_metal>  (1) 
-0

>  <r_i_glide_rewards>  (1) 
-2.25

>  <r_lp_Energy>  (1) 
7.4764169999999996

>  <r_lp_tautomer_probability>  (1) 
1

>  <s_epik_cmdline>  (1) 
J2VwaWtfcHl0aG9uJywgJy1waHQnLCAnMS4wJywgJy1waCcsICc3LjQnLCAnLXRuJywgJzgnLCAnLW1hJywgJzUwMCcsICctaW1hZScsICc8aW5maWxlLm1hZT4nLCAnLW9tYWUnLCAnPG91dGZpbGUubWFlPic=

>  <s_epik_input>  (1) 
W25IXTFbY0hdbltjSF1jMVtDSDNd

>  <s_glide_docking_method>  (1) 
confgen

>  <s_i_glide_gridfile>  (1) 
gpcr_drd2_6luq_protein_autoprepared_prepared

>  <s_lp_Force_Field>  (1) 
S-OPLS

>  <s_lp_Variant>  (1) 
Pocket2Mol_9_num_sample_100-2

>  <s_m_source_file>  (1) 
generated__ligand_Pocket2Mol_2026-05-06_prepared.sdf

>  <GenAI_Model>  (1) 
Pocket2Mol

>  <Protein>  (1) 
generic_title2

$$$$
Pocket2Mol_6_num_sample_100
     RDKit          3D

  0  0  0  0  0  0  0  0  0  0999 V3000
M  V30 BEGIN CTAB
M  V30 COUNTS 14 14 0 0 1
M  V30 BEGIN ATOM
M  V30 1 C 11.567615 8.569297 -7.532201 0
M  V30 2 O 10.801487 8.337344 -6.356283 0
M  V30 3 C 10.741872 8.169290 -8.768450 0
M  V30 4 O 10.383440 6.798781 -8.657272 0
M  V30 5 C 10.422537 6.969309 -6.253872 0
M  V30 6 C 9.600045 6.569336 -7.492121 0
M  V30 7 H 11.834843 9.624551 -7.578363 0
M  V30 8 H 12.500180 8.004501 -7.491690 0
M  V30 9 H 9.847216 8.787922 -8.859497 0
M  V30 10 H 11.325684 8.313433 -9.677724 0
M  V30 11 H 11.308622 6.339143 -6.160382 0
M  V30 12 H 9.834839 6.827486 -5.347379 0
M  V30 13 H 9.331028 5.513971 -7.446866 0
M  V30 14 H 8.667793 7.134546 -7.539774 0
M  V30 END ATOM
M  V30 BEGIN BOND
M  V30 1 1 2 1
M  V30 2 1 3 1
M  V30 3 1 4 3
M  V30 4 1 5 2
M  V30 5 1 6 4
M  V30 6 1 6 5
M  V30 7 1 7 1
M  V30 8 1 8 1
M  V30 9 1 9 3
M  V30 10 1 10 3
M  V30 11 1 11 5
M  V30 12 1 12 5
M  V30 13 1 13 6
M  V30 14 1 14 6
M  V30 END BOND
M  V30 END CTAB
M  END
>  <i_epik_Tot_Q>  (1) 
0

>  <i_epik_Tot_abs_Q>  (1) 
0

>  <i_i_glide_confnum>  (1) 
1

>  <i_i_glide_lignum>  (1) 
7

>  <i_i_glide_posenum>  (1) 
34

>  <i_i_glide_rotatable_bonds>  (1) 
0

>  <i_lp_mmshare_version>  (1) 
72125

>  <i_m_source_file_index>  (1) 
7

>  <i_f3d_flags>  (1) 
0

>  <num_sample>  (1) 
100

>  <b_lp_Chiralities_Consistent>  (1) 
1

>  <r_epik_Charging_Adjusted_Penalty>  (1) 
0

>  <r_epik_Ionization_Penalty>  (1) 
8.3894707547109138e-13

>  <r_epik_Ionization_Penalty_Charging>  (1) 
0

>  <r_epik_Ionization_Penalty_Neutral>  (1) 
8.3894707547109138e-13

>  <r_epik_State_Penalty>  (1) 
-0

>  <r_glide_ring_energy>  (1) 
0

>  <r_i_docking_score>  (1) 
-4.0506128771490131

>  <r_i_glide_ecoul>  (1) 
-0.52824414025028799

>  <r_i_glide_eff_state_penalty>  (1) 
-0

>  <r_i_glide_einternal>  (1) 
0

>  <r_i_glide_emodel>  (1) 
-17.824207764305413

>  <r_i_glide_emodel_strain>  (1) 
0

>  <r_i_glide_energy>  (1) 
-14.159533874580763

>  <r_i_glide_erotb>  (1) 
0

>  <r_i_glide_esite>  (1) 
0

>  <r_i_glide_evdw>  (1) 
-13.631289734330474

>  <r_i_glide_gscore>  (1) 
-4.0506128771490131

>  <r_i_glide_gscore_strain>  (1) 
0

>  <r_i_glide_hbond>  (1) 
0

>  <r_i_glide_ligand_efficiency>  (1) 
-0.67510214619150222

>  <r_i_glide_ligand_efficiency_ln>  (1) 
-1.4509175743098819

>  <r_i_glide_ligand_efficiency_sa>  (1) 
-1.2267420121097523

>  <r_i_glide_lipo>  (1) 
-0.53981176939494635

>  <r_i_glide_metal>  (1) 
-0

>  <r_i_glide_rewards>  (1) 
-2.75

>  <r_lp_Energy>  (1) 
4.9648199999999996

>  <r_lp_tautomer_probability>  (1) 
1

>  <s_epik_cmdline>  (1) 
J2VwaWtfcHl0aG9uJywgJy1waHQnLCAnMS4wJywgJy1waCcsICc3LjQnLCAnLXRuJywgJzgnLCAnLW1hJywgJzUwMCcsICctaW1hZScsICc8aW5maWxlLm1hZT4nLCAnLW9tYWUnLCAnPG91dGZpbGUubWFlPic=

>  <s_epik_input>  (1) 
W0NIMl0xT1tDSDJdW0NIMl1PW0NIMl0x

>  <s_glide_docking_method>  (1) 
confgen

>  <s_i_glide_gridfile>  (1) 
gpcr_drd2_6luq_protein_autoprepared_prepared

>  <s_lp_Force_Field>  (1) 
S-OPLS

>  <s_lp_Variant>  (1) 
Pocket2Mol_6_num_sample_100-1

>  <s_m_source_file>  (1) 
generated__ligand_Pocket2Mol_2026-05-06_prepared.sdf

>  <GenAI_Model>  (1) 
Pocket2Mol

>  <Protein>  (1) 
generic_title2

$$$$
Pocket2Mol_5_num_sample_100
     RDKit          3D

  0  0  0  0  0  0  0  0  0  0999 V3000
M  V30 BEGIN CTAB
M  V30 COUNTS 16 16 0 0 1
M  V30 BEGIN ATOM
M  V30 1 C 11.553737 8.115449 -7.657091 0
M  V30 2 O 11.405947 7.405567 -8.882735 0
M  V30 3 C 10.046488 7.103600 -9.188813 0
M  V30 4 C 9.454317 6.187744 -8.105169 0
M  V30 5 C 9.579951 6.849220 -6.729286 0
M  V30 6 C 11.034783 7.261493 -6.487337 0
M  V30 7 H 12.608170 8.351731 -7.511745 0
M  V30 8 H 11.022004 9.065500 -7.710508 0
M  V30 9 H 9.468199 8.025190 -9.275465 0
M  V30 10 H 10.003191 6.611035 -10.160094 0
M  V30 11 H 8.406664 5.976193 -8.323426 0
M  V30 12 H 9.977445 5.230874 -8.107478 0
M  V30 13 H 8.931306 7.725928 -6.686938 0
M  V30 14 H 9.239184 6.169301 -5.948110 0
M  V30 15 H 11.653841 6.368724 -6.386773 0
M  V30 16 H 11.121026 7.811305 -5.549914 0
M  V30 END ATOM
M  V30 BEGIN BOND
M  V30 1 1 2 1
M  V30 2 1 3 2
M  V30 3 1 4 3
M  V30 4 1 5 4
M  V30 5 1 6 1
M  V30 6 1 6 5
M  V30 7 1 7 1
M  V30 8 1 8 1
M  V30 9 1 9 3
M  V30 10 1 10 3
M  V30 11 1 11 4
M  V30 12 1 12 4
M  V30 13 1 13 5
M  V30 14 1 14 5
M  V30 15 1 15 6
M  V30 16 1 16 6
M  V30 END BOND
M  V30 END CTAB
M  END
>  <i_epik_Tot_Q>  (1) 
0

>  <i_epik_Tot_abs_Q>  (1) 
0

>  <i_i_glide_confnum>  (1) 
2

>  <i_i_glide_lignum>  (1) 
6

>  <i_i_glide_posenum>  (1) 
80

>  <i_i_glide_rotatable_bonds>  (1) 
0

>  <i_lp_mmshare_version>  (1) 
72125

>  <i_m_source_file_index>  (1) 
6

>  <i_f3d_flags>  (1) 
0

>  <num_sample>  (1) 
100

>  <b_lp_Chiralities_Consistent>  (1) 
1

>  <r_epik_Charging_Adjusted_Penalty>  (1) 
0

>  <r_epik_Ionization_Penalty>  (1) 
1.5229185111393156e-11

>  <r_epik_Ionization_Penalty_Charging>  (1) 
0

>  <r_epik_Ionization_Penalty_Neutral>  (1) 
1.5229185111393156e-11

>  <r_epik_State_Penalty>  (1) 
-0

>  <r_glide_ring_energy>  (1) 
0.00023819064548269558

>  <r_i_docking_score>  (1) 
-4.0381448286350698

>  <r_i_glide_ecoul>  (1) 
-0.76062651350634902

>  <r_i_glide_eff_state_penalty>  (1) 
-0

>  <r_i_glide_einternal>  (1) 
0

>  <r_i_glide_emodel>  (1) 
-18.282286798912732

>  <r_i_glide_emodel_strain>  (1) 
0

>  <r_i_glide_energy>  (1) 
-14.448570832303565

>  <r_i_glide_erotb>  (1) 
0

>  <r_i_glide_esite>  (1) 
0

>  <r_i_glide_evdw>  (1) 
-13.687944318797216

>  <r_i_glide_gscore>  (1) 
-4.0381448286350698

>  <r_i_glide_gscore_strain>  (1) 
0

>  <r_i_glide_hbond>  (1) 
0

>  <r_i_glide_ligand_efficiency>  (1) 
-0.67302413810584494

>  <r_i_glide_ligand_efficiency_ln>  (1) 
-1.4464515561405622

>  <r_i_glide_ligand_efficiency_sa>  (1) 
-1.2229660208252331

>  <r_i_glide_lipo>  (1) 
-0.44798696900259027

>  <r_i_glide_metal>  (1) 
-0

>  <r_i_glide_rewards>  (1) 
-2.7916666666666665

>  <r_lp_Energy>  (1) 
2.9645999999999999

>  <r_lp_tautomer_probability>  (1) 
1

>  <s_epik_cmdline>  (1) 
J2VwaWtfcHl0aG9uJywgJy1waHQnLCAnMS4wJywgJy1waCcsICc3LjQnLCAnLXRuJywgJzgnLCAnLW1hJywgJzUwMCcsICctaW1hZScsICc8aW5maWxlLm1hZT4nLCAnLW9tYWUnLCAnPG91dGZpbGUubWFlPic=

>  <s_epik_input>  (1) 
W0NIMl0xT1tDSDJdW0NIMl1bQ0gyXVtDSDJdMQ==

>  <s_glide_docking_method>  (1) 
confgen

>  <s_i_glide_gridfile>  (1) 
gpcr_drd2_6luq_protein_autoprepared_prepared

>  <s_lp_Force_Field>  (1) 
S-OPLS

>  <s_lp_Variant>  (1) 
Pocket2Mol_5_num_sample_100-1

>  <s_m_source_file>  (1) 
generated__ligand_Pocket2Mol_2026-05-06_prepared.sdf

>  <GenAI_Model>  (1) 
Pocket2Mol

>  <Protein>  (1) 
generic_title2

$$$$
Pocket2Mol_4_num_sample_100
     RDKit          3D

  0  0  0  0  0  0  0  0  0  0999 V3000
M  V30 BEGIN CTAB
M  V30 COUNTS 9 9 0 0 1
M  V30 BEGIN ATOM
M  V30 1 N 9.434837 7.597782 -7.776409 0
M  V30 2 C 10.064187 6.399155 -7.630996 0
M  V30 3 C 11.034714 6.569328 -6.691698 0
M  V30 4 C 10.904534 7.947270 -6.317917 0
M  V30 5 N 9.927015 8.567525 -6.984207 0
M  V30 6 H 8.650579 7.769301 -8.404713 0
M  V30 7 H 9.772633 5.528425 -8.200417 0
M  V30 8 H 11.729898 5.829722 -6.322531 0
M  V30 9 H 11.479832 8.506731 -5.595025 0
M  V30 END ATOM
M  V30 BEGIN BOND
M  V30 1 1 2 1
M  V30 2 2 3 2
M  V30 3 1 4 3
M  V30 4 1 5 1
M  V30 5 2 5 4
M  V30 6 1 6 1
M  V30 7 1 7 2
M  V30 8 1 8 3
M  V30 9 1 9 4
M  V30 END BOND
M  V30 END CTAB
M  END
>  <i_epik_Tot_Q>  (1) 
0

>  <i_epik_Tot_abs_Q>  (1) 
0

>  <i_i_glide_confnum>  (1) 
1

>  <i_i_glide_lignum>  (1) 
5

>  <i_i_glide_posenum>  (1) 
175

>  <i_i_glide_rotatable_bonds>  (1) 
0

>  <i_lp_mmshare_version>  (1) 
72125

>  <i_m_source_file_index>  (1) 
5

>  <i_f3d_flags>  (1) 
0

>  <num_sample>  (1) 
100

>  <b_lp_Chiralities_Consistent>  (1) 
1

>  <r_epik_Charging_Adjusted_Penalty>  (1) 
0

>  <r_epik_Ionization_Penalty>  (1) 
1.0045315435319e-05

>  <r_epik_Ionization_Penalty_Charging>  (1) 
0

>  <r_epik_Ionization_Penalty_Neutral>  (1) 
1.0045315435319e-05

>  <r_epik_State_Penalty>  (1) 
-0

>  <r_glide_ring_energy>  (1) 
0

>  <r_i_docking_score>  (1) 
-4.0321781632917597

>  <r_i_glide_ecoul>  (1) 
-2.9061207990041535

>  <r_i_glide_eff_state_penalty>  (1) 
-0

>  <r_i_glide_einternal>  (1) 
0

>  <r_i_glide_emodel>  (1) 
-19.159154395546317

>  <r_i_glide_emodel_strain>  (1) 
0

>  <r_i_glide_energy>  (1) 
-14.349822577931308

>  <r_i_glide_erotb>  (1) 
0

>  <r_i_glide_esite>  (1) 
-0.10000000000000001

>  <r_i_glide_evdw>  (1) 
-11.443701778927155

>  <r_i_glide_gscore>  (1) 
-4.0321781632917597

>  <r_i_glide_gscore_strain>  (1) 
0

>  <r_i_glide_hbond>  (1) 
-0.16

>  <r_i_glide_ligand_efficiency>  (1) 
-0.80643563265835194

>  <r_i_glide_ligand_efficiency_ln>  (1) 
-1.5452286272373954

>  <r_i_glide_ligand_efficiency_sa>  (1) 
-1.3789855343887865

>  <r_i_glide_lipo>  (1) 
-0.51407495449477913

>  <r_i_glide_metal>  (1) 
-0

>  <r_i_glide_rewards>  (1) 
-2.25

>  <r_lp_Energy>  (1) 
2.3130189999999997

>  <r_lp_tautomer_probability>  (1) 
1

>  <s_epik_cmdline>  (1) 
J2VwaWtfcHl0aG9uJywgJy1waHQnLCAnMS4wJywgJy1waCcsICc3LjQnLCAnLXRuJywgJzgnLCAnLW1hJywgJzUwMCcsICctaW1hZScsICc8aW5maWxlLm1hZT4nLCAnLW9tYWUnLCAnPG91dGZpbGUubWFlPic=

>  <s_epik_input>  (1) 
W25IXTFbY0hdW2NIXVtjSF1uMQ==

>  <s_glide_docking_method>  (1) 
confgen

>  <s_i_glide_gridfile>  (1) 
gpcr_drd2_6luq_protein_autoprepared_prepared

>  <s_lp_Force_Field>  (1) 
S-OPLS

>  <s_lp_Variant>  (1) 
Pocket2Mol_4_num_sample_100-1

>  <s_m_source_file>  (1) 
generated__ligand_Pocket2Mol_2026-05-06_prepared.sdf

>  <GenAI_Model>  (1) 
Pocket2Mol

>  <Protein>  (1) 
generic_title2

$$$$
Pocket2Mol_33_num_sample_100
     RDKit          3D

  0  0  0  0  0  0  0  0  0  0999 V3000
M  V30 BEGIN CTAB
M  V30 COUNTS 12 12 0 0 1
M  V30 BEGIN ATOM
M  V30 1 N 12.202139 7.050794 -2.395082 0
M  V30 2 C 11.834982 6.969301 -3.655470 0
M  V30 3 C 11.834839 8.105270 -4.256631 0
M  V30 4 C 12.234839 9.277855 -3.383365 0
M  V30 5 C 12.455619 8.441097 -1.969597 0
M  V30 6 H 11.570691 5.998363 -4.050792 0
M  V30 7 H 13.150242 9.748867 -3.743098 0
M  V30 8 H 11.434273 10.014269 -3.308818 0
M  V30 9 H 13.467241 8.567504 -1.585383 0
M  V30 10 H 11.746703 8.747050 -1.200489 0
M  V30 11 H 11.559033 8.245723 -5.291842 0
M  V30 12 H 12.037267 6.313831 -1.722434 0
M  V30 END ATOM
M  V30 BEGIN BOND
M  V30 1 1 2 1
M  V30 2 2 3 2
M  V30 3 1 4 3
M  V30 4 1 5 1
M  V30 5 1 5 4
M  V30 6 1 6 2
M  V30 7 1 7 4
M  V30 8 1 8 4
M  V30 9 1 9 5
M  V30 10 1 10 5
M  V30 11 1 11 3
M  V30 12 1 12 1
M  V30 END BOND
M  V30 END CTAB
M  END
>  <i_epik_Tot_Q>  (1) 
0

>  <i_epik_Tot_abs_Q>  (1) 
0

>  <i_i_glide_confnum>  (1) 
1

>  <i_i_glide_lignum>  (1) 
37

>  <i_i_glide_posenum>  (1) 
36

>  <i_i_glide_rotatable_bonds>  (1) 
0

>  <i_lp_mmshare_version>  (1) 
72125

>  <i_m_source_file_index>  (1) 
34

>  <i_f3d_flags>  (1) 
0

>  <num_sample>  (1) 
100

>  <b_lp_Chiralities_Consistent>  (1) 
1

>  <r_epik_Charging_Adjusted_Penalty>  (1) 
1.6042444336516156e-06

>  <r_epik_Ionization_Penalty>  (1) 
0.0023556498582944039

>  <r_epik_Ionization_Penalty_Charging>  (1) 
1.6042444336516156e-06

>  <r_epik_Ionization_Penalty_Neutral>  (1) 
0.0023540456138607521

>  <r_epik_State_Penalty>  (1) 
-0

>  <r_glide_ring_energy>  (1) 
0

>  <r_i_docking_score>  (1) 
-4.0297043176027216

>  <r_i_glide_ecoul>  (1) 
-0.95617528950213049

>  <r_i_glide_eff_state_penalty>  (1) 
-0

>  <r_i_glide_einternal>  (1) 
0

>  <r_i_glide_emodel>  (1) 
-18.11168644562796

>  <r_i_glide_emodel_strain>  (1) 
0

>  <r_i_glide_energy>  (1) 
-14.083127192778372

>  <r_i_glide_erotb>  (1) 
0

>  <r_i_glide_esite>  (1) 
0

>  <r_i_glide_evdw>  (1) 
-13.126951903276241

>  <r_i_glide_gscore>  (1) 
-4.0297043176027216

>  <r_i_glide_gscore_strain>  (1) 
0

>  <r_i_glide_hbond>  (1) 
0

>  <r_i_glide_ligand_efficiency>  (1) 
-0.80594086352054428

>  <r_i_glide_ligand_efficiency_ln>  (1) 
-1.5442805894713882

>  <r_i_glide_ligand_efficiency_sa>  (1) 
-1.3781394910639775

>  <r_i_glide_lipo>  (1) 
-0.9799304290135904

>  <r_i_glide_metal>  (1) 
-0

>  <r_i_glide_rewards>  (1) 
-2.25

>  <r_lp_Energy>  (1) 
2.9163329999999998

>  <r_lp_tautomer_probability>  (1) 
1

>  <s_epik_Chemistry_Notes>  (1) 
This compound has an imine and may undergo hydrolysis.

>  <s_epik_cmdline>  (1) 
J2VwaWtfcHl0aG9uJywgJy1waHQnLCAnMS4wJywgJy1waCcsICc3LjQnLCAnLXRuJywgJzgnLCAnLW1hJywgJzUwMCcsICctaW1hZScsICc8aW5maWxlLm1hZT4nLCAnLW9tYWUnLCAnPG91dGZpbGUubWFlPic=

>  <s_epik_input>  (1) 
W05IXTFbQ0hdPVtDSF1bQ0gyXVtDSDJdMQ==

>  <s_glide_docking_method>  (1) 
confgen

>  <s_i_glide_gridfile>  (1) 
gpcr_drd2_6luq_protein_autoprepared_prepared

>  <s_lp_Force_Field>  (1) 
S-OPLS

>  <s_lp_Variant>  (1) 
Pocket2Mol_33_num_sample_100-1

>  <s_m_source_file>  (1) 
generated__ligand_Pocket2Mol_2026-05-06_prepared.sdf

>  <GenAI_Model>  (1) 
Pocket2Mol

>  <Protein>  (1) 
generic_title2

$$$$
Pocket2Mol_99_num_sample_100
     RDKit          3D

  0  0  0  0  0  0  0  0  0  0999 V3000
M  V30 BEGIN CTAB
M  V30 COUNTS 11 11 0 0 1
M  V30 BEGIN ATOM
M  V30 1 O 11.333571 9.775094 -4.716395 0
M  V30 2 C 11.129453 9.044441 -5.902999 0
M  V30 3 C 11.034865 7.617057 -5.371057 0
M  V30 4 C 12.173990 8.969273 -3.971150 0
M  V30 5 O 11.834839 7.641980 -4.199998 0
M  V30 6 H 10.234866 9.365802 -6.436460 0
M  V30 7 H 11.991851 9.160128 -6.561820 0
M  V30 8 H 10.010445 7.368929 -5.093689 0
M  V30 9 H 11.387272 6.876149 -6.089405 0
M  V30 10 H 13.204590 9.135395 -4.290467 0
M  V30 11 H 12.091168 9.209250 -2.910277 0
M  V30 END ATOM
M  V30 BEGIN BOND
M  V30 1 1 2 1
M  V30 2 1 3 2
M  V30 3 1 4 1
M  V30 4 1 5 3
M  V30 5 1 5 4
M  V30 6 1 6 2
M  V30 7 1 7 2
M  V30 8 1 8 3
M  V30 9 1 9 3
M  V30 10 1 10 4
M  V30 11 1 11 4
M  V30 END BOND
M  V30 END CTAB
M  END
>  <i_epik_Tot_Q>  (1) 
0

>  <i_epik_Tot_abs_Q>  (1) 
0

>  <i_i_glide_confnum>  (1) 
1

>  <i_i_glide_lignum>  (1) 
108

>  <i_i_glide_posenum>  (1) 
290

>  <i_i_glide_rotatable_bonds>  (1) 
0

>  <i_lp_mmshare_version>  (1) 
72125

>  <i_m_source_file_index>  (1) 
100

>  <i_f3d_flags>  (1) 
0

>  <num_sample>  (1) 
100

>  <b_lp_Chiralities_Consistent>  (1) 
1

>  <r_epik_Charging_Adjusted_Penalty>  (1) 
0

>  <r_epik_Ionization_Penalty>  (1) 
7.9724310449397378e-14

>  <r_epik_Ionization_Penalty_Charging>  (1) 
0

>  <r_epik_Ionization_Penalty_Neutral>  (1) 
7.9724310449397378e-14

>  <r_epik_State_Penalty>  (1) 
-0

>  <r_glide_ring_energy>  (1) 
0

>  <r_i_docking_score>  (1) 
-4.0242896847536347

>  <r_i_glide_ecoul>  (1) 
-0.68392502522054643

>  <r_i_glide_eff_state_penalty>  (1) 
-0

>  <r_i_glide_einternal>  (1) 
0

>  <r_i_glide_emodel>  (1) 
-16.340008518424213

>  <r_i_glide_emodel_strain>  (1) 
0

>  <r_i_glide_energy>  (1) 
-12.814261362540471

>  <r_i_glide_erotb>  (1) 
0

>  <r_i_glide_esite>  (1) 
0

>  <r_i_glide_evdw>  (1) 
-12.130336337319925

>  <r_i_glide_gscore>  (1) 
-4.0242896847536347

>  <r_i_glide_gscore_strain>  (1) 
0

>  <r_i_glide_hbond>  (1) 
0

>  <r_i_glide_ligand_efficiency>  (1) 
-0.80485793695072694

>  <r_i_glide_ligand_efficiency_ln>  (1) 
-1.5422055706241162

>  <r_i_glide_ligand_efficiency_sa>  (1) 
-1.3762877126775726

>  <r_i_glide_lipo>  (1) 
-0.57351744743788957

>  <r_i_glide_metal>  (1) 
-0

>  <r_i_glide_rewards>  (1) 
-2.7416666666666667

>  <r_lp_Energy>  (1) 
-12.242958999999999

>  <r_lp_tautomer_probability>  (1) 
1

>  <s_epik_Chemistry_Notes>  (1) 
This compound contains an acetal/aminal-like group ( X-CH(R)-Y where X, Y are N, S, or O) that may be acid/base labile, releasing an aldehyde.

>  <s_epik_cmdline>  (1) 
J2VwaWtfcHl0aG9uJywgJy1waHQnLCAnMS4wJywgJy1waCcsICc3LjQnLCAnLXRuJywgJzgnLCAnLW1hJywgJzUwMCcsICctaW1hZScsICc8aW5maWxlLm1hZT4nLCAnLW9tYWUnLCAnPG91dGZpbGUubWFlPic=

>  <s_epik_input>  (1) 
TzFbQ0gyXVtDSDJdT1tDSDJdMQ==

>  <s_glide_docking_method>  (1) 
confgen

>  <s_i_glide_gridfile>  (1) 
gpcr_drd2_6luq_protein_autoprepared_prepared

>  <s_lp_Force_Field>  (1) 
S-OPLS

>  <s_lp_Variant>  (1) 
Pocket2Mol_99_num_sample_100-1

>  <s_m_source_file>  (1) 
generated__ligand_Pocket2Mol_2026-05-06_prepared.sdf

>  <GenAI_Model>  (1) 
Pocket2Mol

>  <Protein>  (1) 
generic_title2

$$$$
Pocket2Mol_66_num_sample_100
     RDKit          3D

  0  0  0  0  0  0  0  0  0  0999 V3000
M  V30 BEGIN CTAB
M  V30 COUNTS 8 8 0 0 1
M  V30 BEGIN ATOM
M  V30 1 N 11.034832 8.012560 -5.835277 0
M  V30 2 C 11.034838 6.647563 -6.307651 0
M  V30 3 C 10.310578 6.515766 -7.355296 0
M  V30 4 C 9.834837 7.719990 -7.593471 0
M  V30 5 C 10.275899 8.569283 -6.691667 0
M  V30 6 H 11.591275 5.879891 -5.788828 0
M  V30 7 H 10.115394 5.609766 -7.910467 0
M  V30 8 H 9.038770 7.916992 -8.298442 0
M  V30 END ATOM
M  V30 BEGIN BOND
M  V30 1 1 2 1
M  V30 2 2 3 2
M  V30 3 1 4 3
M  V30 4 2 5 1
M  V30 5 2 5 4
M  V30 6 1 6 2
M  V30 7 1 7 3
M  V30 8 1 8 4
M  V30 END BOND
M  V30 END CTAB
M  END
>  <i_epik_Tot_Q>  (1) 
0

>  <i_epik_Tot_abs_Q>  (1) 
0

>  <i_i_glide_confnum>  (1) 
1

>  <i_i_glide_lignum>  (1) 
73

>  <i_i_glide_posenum>  (1) 
313

>  <i_i_glide_rotatable_bonds>  (1) 
0

>  <i_lp_mmshare_version>  (1) 
72125

>  <i_m_source_file_index>  (1) 
67

>  <i_f3d_flags>  (1) 
0

>  <num_sample>  (1) 
100

>  <b_lp_Chiralities_Consistent>  (1) 
1

>  <r_epik_Charging_Adjusted_Penalty>  (1) 
0

>  <r_epik_Ionization_Penalty>  (1) 
0

>  <r_epik_Ionization_Penalty_Charging>  (1) 
0

>  <r_epik_Ionization_Penalty_Neutral>  (1) 
0

>  <r_epik_State_Penalty>  (1) 
-0

>  <r_glide_ring_energy>  (1) 
0

>  <r_i_docking_score>  (1) 
-4.017842805454614

>  <r_i_glide_ecoul>  (1) 
-1.0813966316236774

>  <r_i_glide_eff_state_penalty>  (1) 
-0

>  <r_i_glide_einternal>  (1) 
0

>  <r_i_glide_emodel>  (1) 
-17.353936265488276

>  <r_i_glide_emodel_strain>  (1) 
0

>  <r_i_glide_energy>  (1) 
-13.717282721940805

>  <r_i_glide_erotb>  (1) 
0

>  <r_i_glide_esite>  (1) 
0

>  <r_i_glide_evdw>  (1) 
-12.635886090317127

>  <r_i_glide_gscore>  (1) 
-4.017842805454614

>  <r_i_glide_gscore_strain>  (1) 
0

>  <r_i_glide_hbond>  (1) 
0

>  <r_i_glide_ligand_efficiency>  (1) 
-0.80356856109092278

>  <r_i_glide_ligand_efficiency_ln>  (1) 
-1.5397349698605185

>  <r_i_glide_ligand_efficiency_sa>  (1) 
-1.3740829109710819

>  <r_i_glide_lipo>  (1) 
-0.65378986192375599

>  <r_i_glide_metal>  (1) 
-0

>  <r_i_glide_rewards>  (1) 
-2.5700491442714499

>  <r_lp_Energy>  (1) 
4.860805

>  <r_lp_tautomer_probability>  (1) 
1

>  <s_epik_Chemistry_Notes>  (1) 
This compound has an imine and may undergo hydrolysis.

>  <s_epik_cmdline>  (1) 
J2VwaWtfcHl0aG9uJywgJy1waHQnLCAnMS4wJywgJy1waCcsICc3LjQnLCAnLXRuJywgJzgnLCAnLW1hJywgJzUwMCcsICctaW1hZScsICc8aW5maWxlLm1hZT4nLCAnLW9tYWUnLCAnPG91dGZpbGUubWFlPic=

>  <s_epik_input>  (1) 
TjE9Qz1bQ0hdW0NIXT1bQ0hdMQ==

>  <s_glide_docking_method>  (1) 
confgen

>  <s_i_glide_gridfile>  (1) 
gpcr_drd2_6luq_protein_autoprepared_prepared

>  <s_lp_Force_Field>  (1) 
S-OPLS

>  <s_lp_Variant>  (1) 
Pocket2Mol_66_num_sample_100-1

>  <s_m_source_file>  (1) 
generated__ligand_Pocket2Mol_2026-05-06_prepared.sdf

>  <GenAI_Model>  (1) 
Pocket2Mol

>  <Protein>  (1) 
generic_title2

$$$$
Pocket2Mol_45_num_sample_100
     RDKit          3D

  0  0  0  0  0  0  0  0  0  0999 V3000
M  V30 BEGIN CTAB
M  V30 COUNTS 15 16 0 0 1
M  V30 BEGIN ATOM
M  V30 1 C 12.483658 8.660818 -2.097306 0
M  V30 2 O 12.234814 9.747530 -3.046258 0
M  V30 3 C 11.836852 9.030750 -4.096011 0
M  V30 4 C 11.834839 7.714451 -3.891667 0
M  V30 5 C 11.424577 6.831879 -4.899171 0
M  V30 6 N 11.031918 7.339006 -6.092328 0 CHG=1
M  V30 7 C 11.023504 8.673576 -6.345864 0
M  V30 8 C 11.434837 9.575415 -5.331730 0
M  V30 9 O 12.235179 7.340986 -2.674114 0
M  V30 10 H 11.835750 8.799063 -1.229726 0
M  V30 11 H 13.519305 8.716817 -1.761759 0
M  V30 12 H 11.392726 5.769301 -4.797088 0
M  V30 13 H 10.690924 8.969301 -7.330492 0
M  V30 14 H 11.434858 10.641457 -5.498008 0
M  V30 15 H 10.728961 6.695239 -6.826472 0
M  V30 END ATOM
M  V30 BEGIN BOND
M  V30 1 1 2 1
M  V30 2 1 3 2
M  V30 3 2 4 3
M  V30 4 1 5 4
M  V30 5 2 6 5
M  V30 6 1 7 6
M  V30 7 1 8 3
M  V30 8 2 8 7
M  V30 9 1 9 1
M  V30 10 1 9 4
M  V30 11 1 10 1
M  V30 12 1 11 1
M  V30 13 1 12 5
M  V30 14 1 13 7
M  V30 15 1 14 8
M  V30 16 1 15 6
M  V30 END BOND
M  V30 END CTAB
M  END
>  <i_epik_Tot_Q>  (1) 
1

>  <i_epik_Tot_abs_Q>  (1) 
1

>  <i_i_glide_confnum>  (1) 
1

>  <i_i_glide_lignum>  (1) 
51

>  <i_i_glide_posenum>  (1) 
381

>  <i_i_glide_rotatable_bonds>  (1) 
0

>  <i_lp_mmshare_version>  (1) 
72125

>  <i_m_source_file_index>  (1) 
46

>  <i_f3d_flags>  (1) 
0

>  <num_sample>  (1) 
100

>  <b_lp_Chiralities_Consistent>  (1) 
1

>  <r_epik_Charging_Adjusted_Penalty>  (1) 
2.6035637255513002

>  <r_epik_Ionization_Penalty>  (1) 
1.3017818627756499

>  <r_epik_Ionization_Penalty_Charging>  (1) 
1.3017818627756499

>  <r_epik_Ionization_Penalty_Neutral>  (1) 
0

>  <r_epik_State_Penalty>  (1) 
1.3017818627756503

>  <r_glide_ring_energy>  (1) 
0

>  <r_i_docking_score>  (1) 
-4.0097485150734231

>  <r_i_glide_ecoul>  (1) 
-0.84537448012738092

>  <r_i_glide_eff_state_penalty>  (1) 
1.3017818627756503

>  <r_i_glide_einternal>  (1) 
0

>  <r_i_glide_emodel>  (1) 
-27.91344721544106

>  <r_i_glide_emodel_strain>  (1) 
0

>  <r_i_glide_energy>  (1) 
-18.057008893016157

>  <r_i_glide_erotb>  (1) 
0

>  <r_i_glide_esite>  (1) 
0

>  <r_i_glide_evdw>  (1) 
-17.211634412888777

>  <r_i_glide_gscore>  (1) 
-5.3115303778490732

>  <r_i_glide_gscore_strain>  (1) 
0

>  <r_i_glide_hbond>  (1) 
0

>  <r_i_glide_ligand_efficiency>  (1) 
-0.44552761278593589

>  <r_i_glide_ligand_efficiency_ln>  (1) 
-1.2541341460643223

>  <r_i_glide_ligand_efficiency_sa>  (1) 
-0.92673478007895804

>  <r_i_glide_lipo>  (1) 
-1.3736963668376814

>  <r_i_glide_metal>  (1) 
-0

>  <r_i_glide_rewards>  (1) 
-2.9504461183478456

>  <r_lp_Energy>  (1) 
25.893000999999998

>  <s_epik_Chemistry_Notes>  (1) 
This compound contains an acetal/aminal-like group ( X-CH(R)-Y where X, Y are N, S, or O) that may be acid/base labile, releasing an aldehyde.

>  <s_epik_cmdline>  (1) 
J2VwaWtfcHl0aG9uJywgJy1waHQnLCAnMS4wJywgJy1waCcsICc3LjQnLCAnLXRuJywgJzgnLCAnLW1hJywgJzUwMCcsICctaW1hZScsICc8aW5maWxlLm1hZT4nLCAnLW9tYWUnLCAnPG91dGZpbGUubWFlPic=

>  <s_epik_input>  (1) 
TzFbQ0gyXU9jKGMxMilbY0hdbltjSF1bY0hdMg==

>  <s_glide_docking_method>  (1) 
confgen

>  <s_i_glide_gridfile>  (1) 
gpcr_drd2_6luq_protein_autoprepared_prepared

>  <s_lp_Force_Field>  (1) 
S-OPLS

>  <s_lp_Variant>  (1) 
Pocket2Mol_45_num_sample_100-2

>  <s_m_source_file>  (1) 
generated__ligand_Pocket2Mol_2026-05-06_prepared.sdf

>  <GenAI_Model>  (1) 
Pocket2Mol

>  <Protein>  (1) 
generic_title2

$$$$
Pocket2Mol_77_num_sample_100
     RDKit          3D

  0  0  0  0  0  0  0  0  0  0999 V3000
M  V30 BEGIN CTAB
M  V30 COUNTS 11 11 0 0 1
M  V30 BEGIN ATOM
M  V30 1 C 10.960435 6.804395 -5.605789 0
M  V30 2 O 11.422540 8.195012 -5.384196 0
M  V30 3 C 9.827492 6.728080 -6.738494 0
M  V30 4 C 9.842764 8.169301 -6.979775 0
M  V30 5 C 10.668373 8.867859 -6.269188 0
M  V30 6 H 10.580694 6.401806 -4.665376 0
M  V30 7 H 11.813850 6.185934 -5.886566 0
M  V30 8 H 8.859183 6.390804 -6.366542 0
M  V30 9 H 10.128796 6.161924 -7.620071 0
M  V30 10 H 9.184881 8.602287 -7.720898 0
M  V30 11 H 10.835331 9.934548 -6.289716 0
M  V30 END ATOM
M  V30 BEGIN BOND
M  V30 1 1 2 1
M  V30 2 1 3 1
M  V30 3 1 4 3
M  V30 4 1 5 2
M  V30 5 2 5 4
M  V30 6 1 6 1
M  V30 7 1 7 1
M  V30 8 1 8 3
M  V30 9 1 9 3
M  V30 10 1 10 4
M  V30 11 1 11 5
M  V30 END BOND
M  V30 END CTAB
M  END
>  <i_epik_Tot_Q>  (1) 
0

>  <i_epik_Tot_abs_Q>  (1) 
0

>  <i_i_glide_confnum>  (1) 
1

>  <i_i_glide_lignum>  (1) 
84

>  <i_i_glide_posenum>  (1) 
199

>  <i_i_glide_rotatable_bonds>  (1) 
0

>  <i_lp_mmshare_version>  (1) 
72125

>  <i_m_source_file_index>  (1) 
78

>  <i_f3d_flags>  (1) 
0

>  <num_sample>  (1) 
100

>  <b_lp_Chiralities_Consistent>  (1) 
1

>  <r_epik_Charging_Adjusted_Penalty>  (1) 
0

>  <r_epik_Ionization_Penalty>  (1) 
0

>  <r_epik_Ionization_Penalty_Charging>  (1) 
0

>  <r_epik_Ionization_Penalty_Neutral>  (1) 
0

>  <r_epik_State_Penalty>  (1) 
-0

>  <r_glide_ring_energy>  (1) 
0

>  <r_i_docking_score>  (1) 
-3.9978540201275825

>  <r_i_glide_ecoul>  (1) 
-0.85787376200278853

>  <r_i_glide_eff_state_penalty>  (1) 
-0

>  <r_i_glide_einternal>  (1) 
0

>  <r_i_glide_emodel>  (1) 
-16.51624380751484

>  <r_i_glide_emodel_strain>  (1) 
0

>  <r_i_glide_energy>  (1) 
-13.053782529992144

>  <r_i_glide_erotb>  (1) 
0

>  <r_i_glide_esite>  (1) 
0

>  <r_i_glide_evdw>  (1) 
-12.195908767989355

>  <r_i_glide_gscore>  (1) 
-3.9978540201275825

>  <r_i_glide_gscore_strain>  (1) 
0

>  <r_i_glide_hbond>  (1) 
0

>  <r_i_glide_ligand_efficiency>  (1) 
-0.7995708040255165

>  <r_i_glide_ligand_efficiency_ln>  (1) 
-1.5320747817288967

>  <r_i_glide_ligand_efficiency_sa>  (1) 
-1.3672468425485804

>  <r_i_glide_lipo>  (1) 
-0.66331601987939137

>  <r_i_glide_metal>  (1) 
-0

>  <r_i_glide_rewards>  (1) 
-2.5960614975483045

>  <r_lp_Energy>  (1) 
-3.1771669999999999

>  <r_lp_tautomer_probability>  (1) 
1

>  <s_epik_cmdline>  (1) 
J2VwaWtfcHl0aG9uJywgJy1waHQnLCAnMS4wJywgJy1waCcsICc3LjQnLCAnLXRuJywgJzgnLCAnLW1hJywgJzUwMCcsICctaW1hZScsICc8aW5maWxlLm1hZT4nLCAnLW9tYWUnLCAnPG91dGZpbGUubWFlPic=

>  <s_epik_input>  (1) 
W0NIMl0xT1tDSF09W0NIXVtDSDJdMQ==

>  <s_glide_docking_method>  (1) 
confgen

>  <s_i_glide_gridfile>  (1) 
gpcr_drd2_6luq_protein_autoprepared_prepared

>  <s_lp_Force_Field>  (1) 
S-OPLS

>  <s_lp_Variant>  (1) 
Pocket2Mol_77_num_sample_100-1

>  <s_m_source_file>  (1) 
generated__ligand_Pocket2Mol_2026-05-06_prepared.sdf

>  <GenAI_Model>  (1) 
Pocket2Mol

>  <Protein>  (1) 
generic_title2

$$$$
Pocket2Mol_2_num_sample_100
     RDKit          3D

  0  0  0  0  0  0  0  0  0  0999 V3000
M  V30 BEGIN CTAB
M  V30 COUNTS 10 10 0 0 1
M  V30 BEGIN ATOM
M  V30 1 N 9.434839 7.676607 -8.291667 0
M  V30 2 C 9.637494 7.044172 -7.091665 0
M  V30 3 C 10.975103 7.132315 -6.813520 0
M  V30 4 C 11.594894 7.847124 -7.891666 0
M  V30 5 C 10.614070 8.169301 -8.791469 0
M  V30 6 H 8.520201 7.769300 -8.751077 0
M  V30 7 H 8.816519 6.593553 -6.550765 0
M  V30 8 H 11.457307 6.729543 -5.935126 0
M  V30 9 H 12.641382 8.094549 -7.993452 0
M  V30 10 H 10.646185 8.699153 -9.732034 0
M  V30 END ATOM
M  V30 BEGIN BOND
M  V30 1 1 2 1
M  V30 2 2 3 2
M  V30 3 1 4 3
M  V30 4 1 5 1
M  V30 5 2 5 4
M  V30 6 1 6 1
M  V30 7 1 7 2
M  V30 8 1 8 3
M  V30 9 1 9 4
M  V30 10 1 10 5
M  V30 END BOND
M  V30 END CTAB
M  END
>  <i_epik_Tot_Q>  (1) 
0

>  <i_epik_Tot_abs_Q>  (1) 
0

>  <i_i_glide_confnum>  (1) 
1

>  <i_i_glide_lignum>  (1) 
3

>  <i_i_glide_posenum>  (1) 
327

>  <i_i_glide_rotatable_bonds>  (1) 
0

>  <i_lp_mmshare_version>  (1) 
72125

>  <i_m_source_file_index>  (1) 
3

>  <i_f3d_flags>  (1) 
0

>  <num_sample>  (1) 
100

>  <b_lp_Chiralities_Consistent>  (1) 
1

>  <r_epik_Charging_Adjusted_Penalty>  (1) 
0

>  <r_epik_Ionization_Penalty>  (1) 
4.7655302421719939e-09

>  <r_epik_Ionization_Penalty_Charging>  (1) 
0

>  <r_epik_Ionization_Penalty_Neutral>  (1) 
4.7655302421719939e-09

>  <r_epik_State_Penalty>  (1) 
-0

>  <r_glide_ring_energy>  (1) 
0

>  <r_i_docking_score>  (1) 
-3.9916851828090882

>  <r_i_glide_ecoul>  (1) 
-3.8645530305506188

>  <r_i_glide_eff_state_penalty>  (1) 
-0

>  <r_i_glide_einternal>  (1) 
0

>  <r_i_glide_emodel>  (1) 
-18.214721887465956

>  <r_i_glide_emodel_strain>  (1) 
0

>  <r_i_glide_energy>  (1) 
-13.677031008154401

>  <r_i_glide_erotb>  (1) 
0

>  <r_i_glide_esite>  (1) 
-0.10000000000000001

>  <r_i_glide_evdw>  (1) 
-9.8124779776037823

>  <r_i_glide_gscore>  (1) 
-3.9916851828090882

>  <r_i_glide_gscore_strain>  (1) 
0

>  <r_i_glide_hbond>  (1) 
-0.16

>  <r_i_glide_ligand_efficiency>  (1) 
-0.79833703656181765

>  <r_i_glide_ligand_efficiency_ln>  (1) 
-1.5297107334068043

>  <r_i_glide_ligand_efficiency_sa>  (1) 
-1.3651371298618631

>  <r_i_glide_lipo>  (1) 
-0.41137832934630647

>  <r_i_glide_metal>  (1) 
-0

>  <r_i_glide_rewards>  (1) 
-2.25

>  <r_lp_Energy>  (1) 
2.9132020000000001

>  <r_lp_tautomer_probability>  (1) 
1

>  <s_epik_cmdline>  (1) 
J2VwaWtfcHl0aG9uJywgJy1waHQnLCAnMS4wJywgJy1waCcsICc3LjQnLCAnLXRuJywgJzgnLCAnLW1hJywgJzUwMCcsICctaW1hZScsICc8aW5maWxlLm1hZT4nLCAnLW9tYWUnLCAnPG91dGZpbGUubWFlPic=

>  <s_epik_input>  (1) 
W25IXTFbY0hdW2NIXVtjSF1bY0hdMQ==

>  <s_glide_docking_method>  (1) 
confgen

>  <s_i_glide_gridfile>  (1) 
gpcr_drd2_6luq_protein_autoprepared_prepared

>  <s_lp_Force_Field>  (1) 
S-OPLS

>  <s_lp_Variant>  (1) 
Pocket2Mol_2_num_sample_100-1

>  <s_m_source_file>  (1) 
generated__ligand_Pocket2Mol_2026-05-06_prepared.sdf

>  <GenAI_Model>  (1) 
Pocket2Mol

>  <Protein>  (1) 
generic_title2

$$$$
Pocket2Mol_44_num_sample_100
     RDKit          3D

  0  0  0  0  0  0  0  0  0  0999 V3000
M  V30 BEGIN CTAB
M  V30 COUNTS 8 8 0 0 1
M  V30 BEGIN ATOM
M  V30 1 N 10.815845 8.679286 -6.237946 0
M  V30 2 C 9.675563 8.169326 -6.875597 0
M  V30 3 C 9.840415 8.050088 -8.241305 0
M  V30 4 C 11.802060 8.938325 -7.087710 0
M  V30 5 S 11.435251 8.569299 -8.749029 0
M  V30 6 H 8.799403 7.924670 -6.291665 0
M  V30 7 H 9.124527 7.692348 -8.970278 0
M  V30 8 H 12.739245 9.343735 -6.736135 0
M  V30 END ATOM
M  V30 BEGIN BOND
M  V30 1 1 2 1
M  V30 2 2 3 2
M  V30 3 2 4 1
M  V30 4 1 5 3
M  V30 5 1 5 4
M  V30 6 1 6 2
M  V30 7 1 7 3
M  V30 8 1 8 4
M  V30 END BOND
M  V30 END CTAB
M  END
>  <i_epik_Tot_Q>  (1) 
0

>  <i_epik_Tot_abs_Q>  (1) 
0

>  <i_i_glide_confnum>  (1) 
1

>  <i_i_glide_lignum>  (1) 
49

>  <i_i_glide_posenum>  (1) 
240

>  <i_i_glide_rotatable_bonds>  (1) 
0

>  <i_lp_mmshare_version>  (1) 
72125

>  <i_m_source_file_index>  (1) 
45

>  <i_f3d_flags>  (1) 
0

>  <num_sample>  (1) 
100

>  <b_lp_Chiralities_Consistent>  (1) 
1

>  <r_epik_Charging_Adjusted_Penalty>  (1) 
0

>  <r_epik_Ionization_Penalty>  (1) 
1.4882382677604034e-05

>  <r_epik_Ionization_Penalty_Charging>  (1) 
0

>  <r_epik_Ionization_Penalty_Neutral>  (1) 
1.4882382677604034e-05

>  <r_epik_State_Penalty>  (1) 
-0

>  <r_glide_ring_energy>  (1) 
0

>  <r_i_docking_score>  (1) 
-3.9913193103514573

>  <r_i_glide_ecoul>  (1) 
-1.6062044247164367

>  <r_i_glide_eff_state_penalty>  (1) 
-0

>  <r_i_glide_einternal>  (1) 
0

>  <r_i_glide_emodel>  (1) 
-19.590916424497081

>  <r_i_glide_emodel_strain>  (1) 
0

>  <r_i_glide_energy>  (1) 
-15.504694635936023

>  <r_i_glide_erotb>  (1) 
0

>  <r_i_glide_esite>  (1) 
0

>  <r_i_glide_evdw>  (1) 
-13.898490211219586

>  <r_i_glide_gscore>  (1) 
-3.9913193103514573

>  <r_i_glide_gscore_strain>  (1) 
0

>  <r_i_glide_hbond>  (1) 
0

>  <r_i_glide_ligand_efficiency>  (1) 
-0.79826386207029143

>  <r_i_glide_ligand_efficiency_ln>  (1) 
-1.5295705221927771

>  <r_i_glide_ligand_efficiency_sa>  (1) 
-1.365012003241443

>  <r_i_glide_lipo>  (1) 
-0.488797469416346

>  <r_i_glide_metal>  (1) 
-0

>  <r_i_glide_rewards>  (1) 
-2.5666666666666664

>  <r_lp_Energy>  (1) 
1.6688799999999999

>  <r_lp_tautomer_probability>  (1) 
1

>  <s_epik_cmdline>  (1) 
J2VwaWtfcHl0aG9uJywgJy1waHQnLCAnMS4wJywgJy1waCcsICc3LjQnLCAnLXRuJywgJzgnLCAnLW1hJywgJzUwMCcsICctaW1hZScsICc8aW5maWxlLm1hZT4nLCAnLW9tYWUnLCAnPG91dGZpbGUubWFlPic=

>  <s_epik_input>  (1) 
bjFbY0hdW2NIXXNbY0hdMQ==

>  <s_glide_docking_method>  (1) 
confgen

>  <s_i_glide_gridfile>  (1) 
gpcr_drd2_6luq_protein_autoprepared_prepared

>  <s_lp_Force_Field>  (1) 
S-OPLS

>  <s_lp_Variant>  (1) 
Pocket2Mol_44_num_sample_100-1

>  <s_m_source_file>  (1) 
generated__ligand_Pocket2Mol_2026-05-06_prepared.sdf

>  <GenAI_Model>  (1) 
Pocket2Mol

>  <Protein>  (1) 
generic_title2

$$$$
Pocket2Mol_55_num_sample_100
     RDKit          3D

  0  0  0  0  0  0  0  0  0  0999 V3000
M  V30 BEGIN CTAB
M  V30 COUNTS 13 13 0 0 1
M  V30 BEGIN ATOM
M  V30 1 O 11.237148 8.061431 -5.287669 0
M  V30 2 C 11.099871 8.805119 -6.485421 0
M  V30 3 C 9.826912 8.230476 -7.095615 0
M  V30 4 C 10.938655 6.707025 -5.600208 0
M  V30 5 C 9.862311 6.767230 -6.689578 0
M  V30 6 H 11.031496 9.875776 -6.291667 0
M  V30 7 H 11.960931 8.624597 -7.131380 0
M  V30 8 H 8.951552 8.707236 -6.652553 0
M  V30 9 H 9.769687 8.372209 -8.175411 0
M  V30 10 H 11.835002 6.213214 -5.977940 0
M  V30 11 H 10.604480 6.168071 -4.713156 0
M  V30 12 H 10.122228 6.120491 -7.528254 0
M  V30 13 H 8.890014 6.449661 -6.309233 0
M  V30 END ATOM
M  V30 BEGIN BOND
M  V30 1 1 2 1
M  V30 2 1 3 2
M  V30 3 1 4 1
M  V30 4 1 5 3
M  V30 5 1 5 4
M  V30 6 1 6 2
M  V30 7 1 7 2
M  V30 8 1 8 3
M  V30 9 1 9 3
M  V30 10 1 10 4
M  V30 11 1 11 4
M  V30 12 1 12 5
M  V30 13 1 13 5
M  V30 END BOND
M  V30 END CTAB
M  END
>  <i_epik_Tot_Q>  (1) 
0

>  <i_epik_Tot_abs_Q>  (1) 
0

>  <i_i_glide_confnum>  (1) 
2

>  <i_i_glide_lignum>  (1) 
62

>  <i_i_glide_posenum>  (1) 
362

>  <i_i_glide_rotatable_bonds>  (1) 
0

>  <i_lp_mmshare_version>  (1) 
72125

>  <i_m_source_file_index>  (1) 
56

>  <i_f3d_flags>  (1) 
0

>  <num_sample>  (1) 
100

>  <b_lp_Chiralities_Consistent>  (1) 
1

>  <r_epik_Charging_Adjusted_Penalty>  (1) 
0

>  <r_epik_Ionization_Penalty>  (1) 
1.3889264151150229e-11

>  <r_epik_Ionization_Penalty_Charging>  (1) 
0

>  <r_epik_Ionization_Penalty_Neutral>  (1) 
1.3889264151150229e-11

>  <r_epik_State_Penalty>  (1) 
-0

>  <r_glide_ring_energy>  (1) 
9.8467329014132268e-05

>  <r_i_docking_score>  (1) 
-3.9906111661653312

>  <r_i_glide_ecoul>  (1) 
-0.89299126573821663

>  <r_i_glide_eff_state_penalty>  (1) 
-0

>  <r_i_glide_einternal>  (1) 
0

>  <r_i_glide_emodel>  (1) 
-16.929022480372534

>  <r_i_glide_emodel_strain>  (1) 
0.00063436942428651832

>  <r_i_glide_energy>  (1) 
-13.574803280658827

>  <r_i_glide_erotb>  (1) 
0

>  <r_i_glide_esite>  (1) 
0

>  <r_i_glide_evdw>  (1) 
-12.681812014920611

>  <r_i_glide_gscore>  (1) 
-3.9906111661653312

>  <r_i_glide_gscore_strain>  (1) 
0

>  <r_i_glide_hbond>  (1) 
0

>  <r_i_glide_ligand_efficiency>  (1) 
-0.79812223323306619

>  <r_i_glide_ligand_efficiency_ln>  (1) 
-1.5292991441374681

>  <r_i_glide_ligand_efficiency_sa>  (1) 
-1.3647698213364321

>  <r_i_glide_lipo>  (1) 
-0.66133767132103349

>  <r_i_glide_metal>  (1) 
-0

>  <r_i_glide_rewards>  (1) 
-2.5612342042375347

>  <r_lp_Energy>  (1) 
3.9173999999999998

>  <r_lp_tautomer_probability>  (1) 
1

>  <s_epik_cmdline>  (1) 
J2VwaWtfcHl0aG9uJywgJy1waHQnLCAnMS4wJywgJy1waCcsICc3LjQnLCAnLXRuJywgJzgnLCAnLW1hJywgJzUwMCcsICctaW1hZScsICc8aW5maWxlLm1hZT4nLCAnLW9tYWUnLCAnPG91dGZpbGUubWFlPic=

>  <s_epik_input>  (1) 
TzFbQ0gyXVtDSDJdW0NIMl1bQ0gyXTE=

>  <s_glide_docking_method>  (1) 
confgen

>  <s_i_glide_gridfile>  (1) 
gpcr_drd2_6luq_protein_autoprepared_prepared

>  <s_lp_Force_Field>  (1) 
S-OPLS

>  <s_lp_Variant>  (1) 
Pocket2Mol_55_num_sample_100-1

>  <s_m_source_file>  (1) 
generated__ligand_Pocket2Mol_2026-05-06_prepared.sdf

>  <GenAI_Model>  (1) 
Pocket2Mol

>  <Protein>  (1) 
generic_title2

$$$$
Pocket2Mol_22_num_sample_100
     RDKit          3D

  0  0  0  0  0  0  0  0  0  0999 V3000
M  V30 BEGIN CTAB
M  V30 COUNTS 9 9 0 0 1
M  V30 BEGIN ATOM
M  V30 1 C 10.207426 7.770711 -9.067545 0
M  V30 2 O 11.250669 8.080741 -9.895285 0
M  V30 3 C 12.234842 8.569292 -9.083336 0
M  V30 4 C 10.516749 8.049398 -7.767627 0
M  V30 5 C 11.834839 8.569298 -7.777778 0
M  V30 6 H 9.331745 7.369148 -9.559259 0
M  V30 7 H 13.141241 8.869634 -9.588963 0
M  V30 8 H 9.869839 7.898550 -6.915493 0
M  V30 9 H 12.420308 8.904959 -6.935111 0
M  V30 END ATOM
M  V30 BEGIN BOND
M  V30 1 1 2 1
M  V30 2 1 3 2
M  V30 3 2 4 1
M  V30 4 2 5 3
M  V30 5 1 5 4
M  V30 6 1 6 1
M  V30 7 1 7 3
M  V30 8 1 8 4
M  V30 9 1 9 5
M  V30 END BOND
M  V30 END CTAB
M  END
>  <i_epik_Tot_Q>  (1) 
0

>  <i_epik_Tot_abs_Q>  (1) 
0

>  <i_i_glide_confnum>  (1) 
1

>  <i_i_glide_lignum>  (1) 
26

>  <i_i_glide_posenum>  (1) 
391

>  <i_i_glide_rotatable_bonds>  (1) 
0

>  <i_lp_mmshare_version>  (1) 
72125

>  <i_m_source_file_index>  (1) 
23

>  <i_f3d_flags>  (1) 
0

>  <num_sample>  (1) 
100

>  <b_lp_Chiralities_Consistent>  (1) 
1

>  <r_epik_Charging_Adjusted_Penalty>  (1) 
0

>  <r_epik_Ionization_Penalty>  (1) 
0

>  <r_epik_Ionization_Penalty_Charging>  (1) 
0

>  <r_epik_Ionization_Penalty_Neutral>  (1) 
0

>  <r_epik_State_Penalty>  (1) 
-0

>  <r_glide_ring_energy>  (1) 
0

>  <r_i_docking_score>  (1) 
-3.9831136720572156

>  <r_i_glide_ecoul>  (1) 
-1.3300701368839873

>  <r_i_glide_eff_state_penalty>  (1) 
-0

>  <r_i_glide_einternal>  (1) 
0

>  <r_i_glide_emodel>  (1) 
-14.871101883757003

>  <r_i_glide_emodel_strain>  (1) 
0

>  <r_i_glide_energy>  (1) 
-11.745981129919294

>  <r_i_glide_erotb>  (1) 
0

>  <r_i_glide_esite>  (1) 
0

>  <r_i_glide_evdw>  (1) 
-10.415910993035306

>  <r_i_glide_gscore>  (1) 
-3.9831136720572156

>  <r_i_glide_gscore_strain>  (1) 
0

>  <r_i_glide_hbond>  (1) 
0

>  <r_i_glide_ligand_efficiency>  (1) 
-0.79662273441144316

>  <r_i_glide_ligand_efficiency_ln>  (1) 
-1.5264259222560852

>  <r_i_glide_ligand_efficiency_sa>  (1) 
-1.3622057144193864

>  <r_i_glide_lipo>  (1) 
-0.59614093520618516

>  <r_i_glide_metal>  (1) 
-0

>  <r_i_glide_rewards>  (1) 
-2.666666666666667

>  <r_lp_Energy>  (1) 
2.5980879999999997

>  <r_lp_tautomer_probability>  (1) 
1

>  <s_epik_cmdline>  (1) 
J2VwaWtfcHl0aG9uJywgJy1waHQnLCAnMS4wJywgJy1waCcsICc3LjQnLCAnLXRuJywgJzgnLCAnLW1hJywgJzUwMCcsICctaW1hZScsICc8aW5maWxlLm1hZT4nLCAnLW9tYWUnLCAnPG91dGZpbGUubWFlPic=

>  <s_epik_input>  (1) 
W2NIXTFvW2NIXVtjSF1bY0hdMQ==

>  <s_glide_docking_method>  (1) 
confgen

>  <s_i_glide_gridfile>  (1) 
gpcr_drd2_6luq_protein_autoprepared_prepared

>  <s_lp_Force_Field>  (1) 
S-OPLS

>  <s_lp_Variant>  (1) 
Pocket2Mol_22_num_sample_100-1

>  <s_m_source_file>  (1) 
generated__ligand_Pocket2Mol_2026-05-06_prepared.sdf

>  <GenAI_Model>  (1) 
Pocket2Mol

>  <Protein>  (1) 
generic_title2

$$$$
Pocket2Mol_2_num_sample_100
     RDKit          3D

  0  0  0  0  0  0  0  0  0  0999 V3000
M  V30 BEGIN CTAB
M  V30 COUNTS 10 10 0 0 1
M  V30 BEGIN ATOM
M  V30 1 N 12.234745 6.880275 -2.301692 0
M  V30 2 C 11.834837 6.742435 -3.606329 0
M  V30 3 C 11.834839 7.995418 -4.159585 0
M  V30 4 C 12.248196 8.916620 -3.142938 0
M  V30 5 C 12.489746 8.195982 -2.004858 0
M  V30 6 H 12.326521 6.114495 -1.647698 0
M  V30 7 H 11.589093 5.773496 -4.018758 0
M  V30 8 H 11.565678 8.227623 -5.179857 0
M  V30 9 H 12.356496 9.984752 -3.237769 0
M  V30 10 H 12.816837 8.497398 -1.021061 0
M  V30 END ATOM
M  V30 BEGIN BOND
M  V30 1 1 2 1
M  V30 2 2 3 2
M  V30 3 1 4 3
M  V30 4 1 5 1
M  V30 5 2 5 4
M  V30 6 1 6 1
M  V30 7 1 7 2
M  V30 8 1 8 3
M  V30 9 1 9 4
M  V30 10 1 10 5
M  V30 END BOND
M  V30 END CTAB
M  END
>  <i_epik_Tot_Q>  (1) 
0

>  <i_epik_Tot_abs_Q>  (1) 
0

>  <i_i_glide_confnum>  (1) 
1

>  <i_i_glide_lignum>  (1) 
3

>  <i_i_glide_posenum>  (1) 
271

>  <i_i_glide_rotatable_bonds>  (1) 
0

>  <i_lp_mmshare_version>  (1) 
72125

>  <i_m_source_file_index>  (1) 
3

>  <i_f3d_flags>  (1) 
0

>  <num_sample>  (1) 
100

>  <b_lp_Chiralities_Consistent>  (1) 
1

>  <r_epik_Charging_Adjusted_Penalty>  (1) 
0

>  <r_epik_Ionization_Penalty>  (1) 
4.7655302421719939e-09

>  <r_epik_Ionization_Penalty_Charging>  (1) 
0

>  <r_epik_Ionization_Penalty_Neutral>  (1) 
4.7655302421719939e-09

>  <r_epik_State_Penalty>  (1) 
-0

>  <r_glide_ring_energy>  (1) 
0

>  <r_i_docking_score>  (1) 
-3.9779240283973354

>  <r_i_glide_ecoul>  (1) 
-1.0096427338468978

>  <r_i_glide_eff_state_penalty>  (1) 
-0

>  <r_i_glide_einternal>  (1) 
0

>  <r_i_glide_emodel>  (1) 
-17.518710288014596

>  <r_i_glide_emodel_strain>  (1) 
0

>  <r_i_glide_energy>  (1) 
-12.996662893097035

>  <r_i_glide_erotb>  (1) 
0

>  <r_i_glide_esite>  (1) 
0

>  <r_i_glide_evdw>  (1) 
-11.987020159250138

>  <r_i_glide_gscore>  (1) 
-3.9779240283973354

>  <r_i_glide_gscore_strain>  (1) 
0

>  <r_i_glide_hbond>  (1) 
0

>  <r_i_glide_ligand_efficiency>  (1) 
-0.7955848056794671

>  <r_i_glide_ligand_efficiency_ln>  (1) 
-1.5244371247318556

>  <r_i_glide_ligand_efficiency_sa>  (1) 
-1.3604308812533428

>  <r_i_glide_lipo>  (1) 
-0.9771266103577938

>  <r_i_glide_metal>  (1) 
-0

>  <r_i_glide_rewards>  (1) 
-2.25

>  <r_lp_Energy>  (1) 
2.9132020000000001

>  <r_lp_tautomer_probability>  (1) 
1

>  <s_epik_cmdline>  (1) 
J2VwaWtfcHl0aG9uJywgJy1waHQnLCAnMS4wJywgJy1waCcsICc3LjQnLCAnLXRuJywgJzgnLCAnLW1hJywgJzUwMCcsICctaW1hZScsICc8aW5maWxlLm1hZT4nLCAnLW9tYWUnLCAnPG91dGZpbGUubWFlPic=

>  <s_epik_input>  (1) 
W25IXTFbY0hdW2NIXVtjSF1bY0hdMQ==

>  <s_glide_docking_method>  (1) 
confgen

>  <s_i_glide_gridfile>  (1) 
gpcr_drd2_6luq_protein_autoprepared_prepared

>  <s_lp_Force_Field>  (1) 
S-OPLS

>  <s_lp_Variant>  (1) 
Pocket2Mol_2_num_sample_100-1

>  <s_m_source_file>  (1) 
generated__ligand_Pocket2Mol_2026-05-06_prepared.sdf

>  <GenAI_Model>  (1) 
Pocket2Mol

>  <Protein>  (1) 
generic_title2

$$$$
Pocket2Mol_45_num_sample_100
     RDKit          3D

  0  0  0  0  0  0  0  0  0  0999 V3000
M  V30 BEGIN CTAB
M  V30 COUNTS 15 16 0 0 1
M  V30 BEGIN ATOM
M  V30 1 C 9.783372 7.610868 -7.261458 0
M  V30 2 O 10.165745 6.569172 -6.306499 0
M  V30 3 C 10.888149 7.304471 -5.460826 0
M  V30 4 C 10.992248 8.589593 -5.800091 0
M  V30 5 C 11.717060 9.491084 -5.003245 0
M  V30 6 N 12.315160 9.028075 -3.874488 0 CHG=1
M  V30 7 C 12.234838 7.723735 -3.491680 0
M  V30 8 C 11.500210 6.809275 -4.291672 0
M  V30 9 O 10.355082 8.916672 -6.924661 0
M  V30 10 H 8.693934 7.692994 -7.273975 0
M  V30 11 H 10.110717 7.322671 -8.260693 0
M  V30 12 H 11.834754 10.542470 -5.220187 0
M  V30 13 H 12.745779 7.459781 -2.575808 0
M  V30 14 H 11.413881 5.769459 -4.015775 0
M  V30 15 H 12.842277 9.681045 -3.291082 0
M  V30 END ATOM
M  V30 BEGIN BOND
M  V30 1 1 2 1
M  V30 2 1 3 2
M  V30 3 2 4 3
M  V30 4 1 5 4
M  V30 5 2 6 5
M  V30 6 1 7 6
M  V30 7 1 8 3
M  V30 8 2 8 7
M  V30 9 1 9 1
M  V30 10 1 9 4
M  V30 11 1 10 1
M  V30 12 1 11 1
M  V30 13 1 12 5
M  V30 14 1 13 7
M  V30 15 1 14 8
M  V30 16 1 15 6
M  V30 END BOND
M  V30 END CTAB
M  END
>  <i_epik_Tot_Q>  (1) 
1

>  <i_epik_Tot_abs_Q>  (1) 
1

>  <i_i_glide_confnum>  (1) 
1

>  <i_i_glide_lignum>  (1) 
51

>  <i_i_glide_posenum>  (1) 
61

>  <i_i_glide_rotatable_bonds>  (1) 
0

>  <i_lp_mmshare_version>  (1) 
72125

>  <i_m_source_file_index>  (1) 
46

>  <i_f3d_flags>  (1) 
0

>  <num_sample>  (1) 
100

>  <b_lp_Chiralities_Consistent>  (1) 
1

>  <r_epik_Charging_Adjusted_Penalty>  (1) 
2.6035637255513002

>  <r_epik_Ionization_Penalty>  (1) 
1.3017818627756499

>  <r_epik_Ionization_Penalty_Charging>  (1) 
1.3017818627756499

>  <r_epik_Ionization_Penalty_Neutral>  (1) 
0

>  <r_epik_State_Penalty>  (1) 
1.3017818627756503

>  <r_glide_ring_energy>  (1) 
0

>  <r_i_docking_score>  (1) 
-3.96280489814154

>  <r_i_glide_ecoul>  (1) 
-1.459645375594101

>  <r_i_glide_eff_state_penalty>  (1) 
1.3017818627756503

>  <r_i_glide_einternal>  (1) 
0

>  <r_i_glide_emodel>  (1) 
-27.996141549763863

>  <r_i_glide_emodel_strain>  (1) 
0

>  <r_i_glide_energy>  (1) 
-18.226815007184985

>  <r_i_glide_erotb>  (1) 
0

>  <r_i_glide_esite>  (1) 
-0.05627014180930643

>  <r_i_glide_evdw>  (1) 
-16.767169631590885

>  <r_i_glide_gscore>  (1) 
-5.2645867609171901

>  <r_i_glide_gscore_strain>  (1) 
0

>  <r_i_glide_hbond>  (1) 
0

>  <r_i_glide_ligand_efficiency>  (1) 
-0.44031165534906003

>  <r_i_glide_ligand_efficiency_ln>  (1) 
-1.2394515312537622

>  <r_i_glide_ligand_efficiency_sa>  (1) 
-0.91588515139278526

>  <r_i_glide_lipo>  (1) 
-1.4615715522757837

>  <r_i_glide_metal>  (1) 
-0

>  <r_i_glide_rewards>  (1) 
-2.6894397789134405

>  <r_lp_Energy>  (1) 
25.893000999999998

>  <s_epik_Chemistry_Notes>  (1) 
This compound contains an acetal/aminal-like group ( X-CH(R)-Y where X, Y are N, S, or O) that may be acid/base labile, releasing an aldehyde.

>  <s_epik_cmdline>  (1) 
J2VwaWtfcHl0aG9uJywgJy1waHQnLCAnMS4wJywgJy1waCcsICc3LjQnLCAnLXRuJywgJzgnLCAnLW1hJywgJzUwMCcsICctaW1hZScsICc8aW5maWxlLm1hZT4nLCAnLW9tYWUnLCAnPG91dGZpbGUubWFlPic=

>  <s_epik_input>  (1) 
TzFbQ0gyXU9jKGMxMilbY0hdbltjSF1bY0hdMg==

>  <s_glide_docking_method>  (1) 
confgen

>  <s_i_glide_gridfile>  (1) 
gpcr_drd2_6luq_protein_autoprepared_prepared

>  <s_lp_Force_Field>  (1) 
S-OPLS

>  <s_lp_Variant>  (1) 
Pocket2Mol_45_num_sample_100-2

>  <s_m_source_file>  (1) 
generated__ligand_Pocket2Mol_2026-05-06_prepared.sdf

>  <GenAI_Model>  (1) 
Pocket2Mol

>  <Protein>  (1) 
generic_title2

$$$$
Pocket2Mol_1_num_sample_100
     RDKit          3D

  0  0  0  0  0  0  0  0  0  0999 V3000
M  V30 BEGIN CTAB
M  V30 COUNTS 10 10 0 0 1
M  V30 BEGIN ATOM
M  V30 1 N 10.559806 8.869378 -6.291771 0
M  V30 2 C 11.034762 7.854403 -5.516581 0
M  V30 3 C 10.634839 6.669305 -5.859300 0
M  V30 4 C 9.834848 8.169314 -7.121649 0
M  V30 5 C 9.736193 6.596646 -7.017484 0
M  V30 6 H 11.693772 8.082089 -4.691248 0
M  V30 7 H 10.928523 5.769304 -5.338294 0
M  V30 8 H 9.258272 8.628617 -7.929411 0
M  V30 9 H 8.728755 6.255890 -6.774372 0
M  V30 10 H 10.169351 6.086715 -7.877817 0
M  V30 END ATOM
M  V30 BEGIN BOND
M  V30 1 1 2 1
M  V30 2 2 3 2
M  V30 3 2 4 1
M  V30 4 1 5 3
M  V30 5 1 5 4
M  V30 6 1 6 2
M  V30 7 1 7 3
M  V30 8 1 8 4
M  V30 9 1 9 5
M  V30 10 1 10 5
M  V30 END BOND
M  V30 END CTAB
M  END
>  <i_epik_Tot_Q>  (1) 
0

>  <i_epik_Tot_abs_Q>  (1) 
0

>  <i_i_glide_confnum>  (1) 
1

>  <i_i_glide_lignum>  (1) 
2

>  <i_i_glide_posenum>  (1) 
205

>  <i_i_glide_rotatable_bonds>  (1) 
0

>  <i_lp_mmshare_version>  (1) 
72125

>  <i_m_source_file_index>  (1) 
2

>  <i_f3d_flags>  (1) 
0

>  <num_sample>  (1) 
100

>  <b_lp_Chiralities_Consistent>  (1) 
1

>  <r_epik_Charging_Adjusted_Penalty>  (1) 
0

>  <r_epik_Ionization_Penalty>  (1) 
0

>  <r_epik_Ionization_Penalty_Charging>  (1) 
0

>  <r_epik_Ionization_Penalty_Neutral>  (1) 
0

>  <r_epik_State_Penalty>  (1) 
-0

>  <r_glide_ring_energy>  (1) 
0

>  <r_i_docking_score>  (1) 
-3.9446333418902655

>  <r_i_glide_ecoul>  (1) 
-1.5944524642309958

>  <r_i_glide_eff_state_penalty>  (1) 
-0

>  <r_i_glide_einternal>  (1) 
0

>  <r_i_glide_emodel>  (1) 
-18.054061802881012

>  <r_i_glide_emodel_strain>  (1) 
0

>  <r_i_glide_energy>  (1) 
-14.361930969106966

>  <r_i_glide_erotb>  (1) 
0

>  <r_i_glide_esite>  (1) 
-0.029393497992842011

>  <r_i_glide_evdw>  (1) 
-12.767478504875971

>  <r_i_glide_gscore>  (1) 
-3.9446333418902655

>  <r_i_glide_gscore_strain>  (1) 
0

>  <r_i_glide_hbond>  (1) 
0

>  <r_i_glide_ligand_efficiency>  (1) 
-0.78892666837805314

>  <r_i_glide_ligand_efficiency_ln>  (1) 
-1.5116793249204714

>  <r_i_glide_ligand_efficiency_sa>  (1) 
-1.349045626618254

>  <r_i_glide_lipo>  (1) 
-0.50436471568564234

>  <r_i_glide_metal>  (1) 
-0

>  <r_i_glide_rewards>  (1) 
-2.5333333333333332

>  <r_lp_Energy>  (1) 
-2.9532909999999997

>  <r_lp_tautomer_probability>  (1) 
1

>  <s_epik_Chemistry_Notes>  (1) 
This compound has an imine and may undergo hydrolysis.

>  <s_epik_cmdline>  (1) 
J2VwaWtfcHl0aG9uJywgJy1waHQnLCAnMS4wJywgJy1waCcsICc3LjQnLCAnLXRuJywgJzgnLCAnLW1hJywgJzUwMCcsICctaW1hZScsICc8aW5maWxlLm1hZT4nLCAnLW9tYWUnLCAnPG91dGZpbGUubWFlPic=

>  <s_epik_input>  (1) 
TjE9W0NIXVtDSDJdW0NIXT1bQ0hdMQ==

>  <s_glide_docking_method>  (1) 
confgen

>  <s_i_glide_gridfile>  (1) 
gpcr_drd2_6luq_protein_autoprepared_prepared

>  <s_lp_Force_Field>  (1) 
S-OPLS

>  <s_lp_Variant>  (1) 
Pocket2Mol_1_num_sample_100-1

>  <s_m_source_file>  (1) 
generated__ligand_Pocket2Mol_2026-05-06_prepared.sdf

>  <GenAI_Model>  (1) 
Pocket2Mol

>  <Protein>  (1) 
generic_title2

$$$$
Pocket2Mol_45_num_sample_100
     RDKit          3D

  0  0  0  0  0  0  0  0  0  0999 V3000
M  V30 BEGIN CTAB
M  V30 COUNTS 15 16 0 0 1
M  V30 BEGIN ATOM
M  V30 1 C 9.725244 7.462177 -7.327991 0
M  V30 2 O 10.277330 8.785507 -7.029029 0
M  V30 3 C 10.911165 8.503594 -5.890019 0
M  V30 4 C 10.821799 7.229055 -5.511809 0
M  V30 5 C 11.434861 6.781373 -4.328864 0
M  V30 6 N 12.122646 7.674217 -3.572888 0 CHG=1
M  V30 7 C 12.234915 8.984241 -3.921094 0
M  V30 8 C 11.620255 9.442923 -5.115627 0
M  V30 9 O 10.114065 6.457442 -6.337610 0
M  V30 10 H 10.068193 7.141245 -8.312276 0
M  V30 11 H 8.634839 7.530378 -7.354733 0
M  V30 12 H 11.398737 5.769301 -3.966304 0
M  V30 13 H 12.802636 9.610187 -3.247492 0
M  V30 14 H 11.690571 10.477460 -5.421518 0
M  V30 15 H 12.567573 7.352254 -2.711730 0
M  V30 END ATOM
M  V30 BEGIN BOND
M  V30 1 1 2 1
M  V30 2 1 3 2
M  V30 3 2 4 3
M  V30 4 1 5 4
M  V30 5 2 6 5
M  V30 6 1 7 6
M  V30 7 1 8 3
M  V30 8 2 8 7
M  V30 9 1 9 1
M  V30 10 1 9 4
M  V30 11 1 10 1
M  V30 12 1 11 1
M  V30 13 1 12 5
M  V30 14 1 13 7
M  V30 15 1 14 8
M  V30 16 1 15 6
M  V30 END BOND
M  V30 END CTAB
M  END
>  <i_epik_Tot_Q>  (1) 
1

>  <i_epik_Tot_abs_Q>  (1) 
1

>  <i_i_glide_confnum>  (1) 
1

>  <i_i_glide_lignum>  (1) 
51

>  <i_i_glide_posenum>  (1) 
246

>  <i_i_glide_rotatable_bonds>  (1) 
0

>  <i_lp_mmshare_version>  (1) 
72125

>  <i_m_source_file_index>  (1) 
46

>  <i_f3d_flags>  (1) 
0

>  <num_sample>  (1) 
100

>  <b_lp_Chiralities_Consistent>  (1) 
1

>  <r_epik_Charging_Adjusted_Penalty>  (1) 
2.6035637255513002

>  <r_epik_Ionization_Penalty>  (1) 
1.3017818627756499

>  <r_epik_Ionization_Penalty_Charging>  (1) 
1.3017818627756499

>  <r_epik_Ionization_Penalty_Neutral>  (1) 
0

>  <r_epik_State_Penalty>  (1) 
1.3017818627756503

>  <r_glide_ring_energy>  (1) 
0

>  <r_i_docking_score>  (1) 
-3.9321702904375506

>  <r_i_glide_ecoul>  (1) 
-1.3607117790901915

>  <r_i_glide_eff_state_penalty>  (1) 
1.3017818627756503

>  <r_i_glide_einternal>  (1) 
0

>  <r_i_glide_emodel>  (1) 
-28.253976480183809

>  <r_i_glide_emodel_strain>  (1) 
0

>  <r_i_glide_energy>  (1) 
-18.541497606710859

>  <r_i_glide_erotb>  (1) 
0

>  <r_i_glide_esite>  (1) 
-0.056595085802654078

>  <r_i_glide_evdw>  (1) 
-17.180785827620667

>  <r_i_glide_gscore>  (1) 
-5.2339521532132007

>  <r_i_glide_gscore_strain>  (1) 
0

>  <r_i_glide_hbond>  (1) 
0

>  <r_i_glide_ligand_efficiency>  (1) 
-0.43690781004861673

>  <r_i_glide_ligand_efficiency_ln>  (1) 
-1.2298699060150644

>  <r_i_glide_ligand_efficiency_sa>  (1) 
-0.90880486784716197

>  <r_i_glide_lipo>  (1) 
-1.4793664756837401

>  <r_i_glide_metal>  (1) 
-0

>  <r_i_glide_rewards>  (1) 
-2.6348445334822443

>  <r_lp_Energy>  (1) 
25.893000999999998

>  <s_epik_Chemistry_Notes>  (1) 
This compound contains an acetal/aminal-like group ( X-CH(R)-Y where X, Y are N, S, or O) that may be acid/base labile, releasing an aldehyde.

>  <s_epik_cmdline>  (1) 
J2VwaWtfcHl0aG9uJywgJy1waHQnLCAnMS4wJywgJy1waCcsICc3LjQnLCAnLXRuJywgJzgnLCAnLW1hJywgJzUwMCcsICctaW1hZScsICc8aW5maWxlLm1hZT4nLCAnLW9tYWUnLCAnPG91dGZpbGUubWFlPic=

>  <s_epik_input>  (1) 
TzFbQ0gyXU9jKGMxMilbY0hdbltjSF1bY0hdMg==

>  <s_glide_docking_method>  (1) 
confgen

>  <s_i_glide_gridfile>  (1) 
gpcr_drd2_6luq_protein_autoprepared_prepared

>  <s_lp_Force_Field>  (1) 
S-OPLS

>  <s_lp_Variant>  (1) 
Pocket2Mol_45_num_sample_100-2

>  <s_m_source_file>  (1) 
generated__ligand_Pocket2Mol_2026-05-06_prepared.sdf

>  <GenAI_Model>  (1) 
Pocket2Mol

>  <Protein>  (1) 
generic_title2

$$$$
Pocket2Mol_6_num_sample_100
     RDKit          3D

  0  0  0  0  0  0  0  0  0  0999 V3000
M  V30 BEGIN CTAB
M  V30 COUNTS 14 14 0 0 1
M  V30 BEGIN ATOM
M  V30 1 C 9.444221 7.752245 -6.693685 0
M  V30 2 O 10.064173 8.969301 -6.292743 0
M  V30 3 C 9.834837 7.437135 -8.148990 0
M  V30 4 O 11.252044 7.353452 -8.245684 0
M  V30 5 C 11.474889 8.886981 -6.392861 0
M  V30 6 C 11.869026 8.569180 -7.847420 0
M  V30 7 H 9.737081 6.939073 -6.026933 0
M  V30 8 H 8.363859 7.862943 -6.606824 0
M  V30 9 H 9.396024 6.488869 -8.459735 0
M  V30 10 H 9.451710 8.202126 -8.826297 0
M  V30 11 H 11.914694 9.833722 -6.077836 0
M  V30 12 H 11.834833 8.117039 -5.710458 0
M  V30 13 H 11.573876 9.374227 -8.520151 0
M  V30 14 H 12.950493 8.464153 -7.933074 0
M  V30 END ATOM
M  V30 BEGIN BOND
M  V30 1 1 2 1
M  V30 2 1 3 1
M  V30 3 1 4 3
M  V30 4 1 5 2
M  V30 5 1 6 4
M  V30 6 1 6 5
M  V30 7 1 7 1
M  V30 8 1 8 1
M  V30 9 1 9 3
M  V30 10 1 10 3
M  V30 11 1 11 5
M  V30 12 1 12 5
M  V30 13 1 13 6
M  V30 14 1 14 6
M  V30 END BOND
M  V30 END CTAB
M  END
>  <i_epik_Tot_Q>  (1) 
0

>  <i_epik_Tot_abs_Q>  (1) 
0

>  <i_i_glide_confnum>  (1) 
2

>  <i_i_glide_lignum>  (1) 
7

>  <i_i_glide_posenum>  (1) 
91

>  <i_i_glide_rotatable_bonds>  (1) 
0

>  <i_lp_mmshare_version>  (1) 
72125

>  <i_m_source_file_index>  (1) 
7

>  <i_f3d_flags>  (1) 
0

>  <num_sample>  (1) 
100

>  <b_lp_Chiralities_Consistent>  (1) 
1

>  <r_epik_Charging_Adjusted_Penalty>  (1) 
0

>  <r_epik_Ionization_Penalty>  (1) 
8.3894707547109138e-13

>  <r_epik_Ionization_Penalty_Charging>  (1) 
0

>  <r_epik_Ionization_Penalty_Neutral>  (1) 
8.3894707547109138e-13

>  <r_epik_State_Penalty>  (1) 
-0

>  <r_glide_ring_energy>  (1) 
0.00013676017923054334

>  <r_i_docking_score>  (1) 
-3.9276767881074388

>  <r_i_glide_ecoul>  (1) 
-1.1826137322185812

>  <r_i_glide_eff_state_penalty>  (1) 
-0

>  <r_i_glide_einternal>  (1) 
0

>  <r_i_glide_emodel>  (1) 
-17.568525275229206

>  <r_i_glide_emodel_strain>  (1) 
0

>  <r_i_glide_energy>  (1) 
-14.015074227400177

>  <r_i_glide_erotb>  (1) 
0

>  <r_i_glide_esite>  (1) 
0

>  <r_i_glide_evdw>  (1) 
-12.832460495181596

>  <r_i_glide_gscore>  (1) 
-3.9276767881074388

>  <r_i_glide_gscore_strain>  (1) 
0

>  <r_i_glide_hbond>  (1) 
0

>  <r_i_glide_ligand_efficiency>  (1) 
-0.65461279801790651

>  <r_i_glide_ligand_efficiency_ln>  (1) 
-1.4068822301491017

>  <r_i_glide_ligand_efficiency_sa>  (1) 
-1.1895103956098041

>  <r_i_glide_lipo>  (1) 
-0.51699503684890513

>  <r_i_glide_metal>  (1) 
-0

>  <r_i_glide_rewards>  (1) 
-2.5916666666666668

>  <r_lp_Energy>  (1) 
4.9648199999999996

>  <r_lp_tautomer_probability>  (1) 
1

>  <s_epik_cmdline>  (1) 
J2VwaWtfcHl0aG9uJywgJy1waHQnLCAnMS4wJywgJy1waCcsICc3LjQnLCAnLXRuJywgJzgnLCAnLW1hJywgJzUwMCcsICctaW1hZScsICc8aW5maWxlLm1hZT4nLCAnLW9tYWUnLCAnPG91dGZpbGUubWFlPic=

>  <s_epik_input>  (1) 
W0NIMl0xT1tDSDJdW0NIMl1PW0NIMl0x

>  <s_glide_docking_method>  (1) 
confgen

>  <s_i_glide_gridfile>  (1) 
gpcr_drd2_6luq_protein_autoprepared_prepared

>  <s_lp_Force_Field>  (1) 
S-OPLS

>  <s_lp_Variant>  (1) 
Pocket2Mol_6_num_sample_100-1

>  <s_m_source_file>  (1) 
generated__ligand_Pocket2Mol_2026-05-06_prepared.sdf

>  <GenAI_Model>  (1) 
Pocket2Mol

>  <Protein>  (1) 
generic_title2

$$$$
Pocket2Mol_9_num_sample_100
     RDKit          3D

  0  0  0  0  0  0  0  0  0  0999 V3000
M  V30 BEGIN CTAB
M  V30 COUNTS 12 12 0 0 1
M  V30 BEGIN ATOM
M  V30 1 N 11.622439 8.058328 -9.438881 0
M  V30 2 C 11.437213 7.818806 -8.046876 0
M  V30 3 C 10.089958 7.671064 -7.741714 0
M  V30 4 C 10.362378 8.033931 -9.862404 0
M  V30 5 C 9.394758 7.409647 -6.450922 0
M  V30 6 N 9.441971 7.819868 -8.940458 0
M  V30 7 H 12.285158 7.771738 -7.380554 0
M  V30 8 H 10.110100 8.183168 -10.901461 0
M  V30 9 H 10.113184 7.328671 -5.633087 0
M  V30 10 H 8.704468 8.218249 -6.215275 0
M  V30 11 H 8.831928 6.477711 -6.495202 0
M  V30 12 H 8.415777 7.769413 -9.094420 0
M  V30 END ATOM
M  V30 BEGIN BOND
M  V30 1 1 2 1
M  V30 2 2 3 2
M  V30 3 2 4 1
M  V30 4 1 5 3
M  V30 5 1 6 3
M  V30 6 1 6 4
M  V30 7 1 7 2
M  V30 8 1 8 4
M  V30 9 1 9 5
M  V30 10 1 10 5
M  V30 11 1 11 5
M  V30 12 1 12 6
M  V30 END BOND
M  V30 END CTAB
M  END
>  <i_epik_Tot_Q>  (1) 
0

>  <i_epik_Tot_abs_Q>  (1) 
0

>  <i_i_glide_confnum>  (1) 
1

>  <i_i_glide_lignum>  (1) 
10

>  <i_i_glide_posenum>  (1) 
84

>  <i_i_glide_rotatable_bonds>  (1) 
0

>  <i_lp_mmshare_version>  (1) 
72125

>  <i_m_source_file_index>  (1) 
10

>  <i_f3d_flags>  (1) 
0

>  <num_sample>  (1) 
100

>  <b_lp_Chiralities_Consistent>  (1) 
1

>  <r_epik_Charging_Adjusted_Penalty>  (1) 
0.90509379346265462

>  <r_epik_Ionization_Penalty>  (1) 
0.31828505333430857

>  <r_epik_Ionization_Penalty_Charging>  (1) 
0.31828499876078775

>  <r_epik_Ionization_Penalty_Neutral>  (1) 
5.457352079622119e-08

>  <r_epik_State_Penalty>  (1) 
0.58680879470186686

>  <r_glide_ring_energy>  (1) 
0

>  <r_i_docking_score>  (1) 
-3.9253379406552393

>  <r_i_glide_ecoul>  (1) 
-8.8821993233193535

>  <r_i_glide_eff_state_penalty>  (1) 
0.58680879470186686

>  <r_i_glide_einternal>  (1) 
0

>  <r_i_glide_emodel>  (1) 
-24.065483618253229

>  <r_i_glide_emodel_strain>  (1) 
0

>  <r_i_glide_energy>  (1) 
-18.028894377860329

>  <r_i_glide_erotb>  (1) 
0

>  <r_i_glide_esite>  (1) 
-0.14312917932640287

>  <r_i_glide_evdw>  (1) 
-9.1466950545409755

>  <r_i_glide_gscore>  (1) 
-4.5121467353571063

>  <r_i_glide_gscore_strain>  (1) 
0

>  <r_i_glide_hbond>  (1) 
-0.14661126521371276

>  <r_i_glide_ligand_efficiency>  (1) 
-0.65422299010920659

>  <r_i_glide_ligand_efficiency_ln>  (1) 
-1.4060444618965073

>  <r_i_glide_ligand_efficiency_sa>  (1) 
-1.1888020676316566

>  <r_i_glide_lipo>  (1) 
-0.18274163959203793

>  <r_i_glide_metal>  (1) 
-0

>  <r_i_glide_rewards>  (1) 
-2.25

>  <r_lp_Energy>  (1) 
2.6351399999999998

>  <r_lp_tautomer_probability>  (1) 
0.49999999999999867

>  <s_epik_cmdline>  (1) 
J2VwaWtfcHl0aG9uJywgJy1waHQnLCAnMS4wJywgJy1waCcsICc3LjQnLCAnLXRuJywgJzgnLCAnLW1hJywgJzUwMCcsICctaW1hZScsICc8aW5maWxlLm1hZT4nLCAnLW9tYWUnLCAnPG91dGZpbGUubWFlPic=

>  <s_epik_input>  (1) 
W25IXTFbY0hdbltjSF1jMVtDSDNd

>  <s_glide_docking_method>  (1) 
confgen

>  <s_i_glide_gridfile>  (1) 
gpcr_drd2_6luq_protein_autoprepared_prepared

>  <s_lp_Force_Field>  (1) 
S-OPLS

>  <s_lp_Variant>  (1) 
Pocket2Mol_9_num_sample_100-1

>  <s_m_source_file>  (1) 
generated__ligand_Pocket2Mol_2026-05-06_prepared.sdf

>  <GenAI_Model>  (1) 
Pocket2Mol

>  <Protein>  (1) 
generic_title2

$$$$
Pocket2Mol_99_num_sample_100
     RDKit          3D

  0  0  0  0  0  0  0  0  0  0999 V3000
M  V30 BEGIN CTAB
M  V30 COUNTS 11 11 0 0 1
M  V30 BEGIN ATOM
M  V30 1 O 11.409551 7.899871 -5.077246 0
M  V30 2 C 10.634713 7.040132 -5.895199 0
M  V30 3 C 9.998611 7.980595 -6.914814 0
M  V30 4 C 11.434847 9.131155 -5.715806 0
M  V30 5 O 10.997817 8.969301 -7.017360 0
M  V30 6 H 11.299987 6.330688 -6.389807 0
M  V30 7 H 9.897821 6.479644 -5.319653 0
M  V30 8 H 9.786085 7.499813 -7.870343 0
M  V30 9 H 9.075197 8.418259 -6.530163 0
M  V30 10 H 10.760041 9.812068 -5.193969 0
M  V30 11 H 12.441277 9.550862 -5.700914 0
M  V30 END ATOM
M  V30 BEGIN BOND
M  V30 1 1 2 1
M  V30 2 1 3 2
M  V30 3 1 4 1
M  V30 4 1 5 3
M  V30 5 1 5 4
M  V30 6 1 6 2
M  V30 7 1 7 2
M  V30 8 1 8 3
M  V30 9 1 9 3
M  V30 10 1 10 4
M  V30 11 1 11 4
M  V30 END BOND
M  V30 END CTAB
M  END
>  <i_epik_Tot_Q>  (1) 
0

>  <i_epik_Tot_abs_Q>  (1) 
0

>  <i_i_glide_confnum>  (1) 
3

>  <i_i_glide_lignum>  (1) 
108

>  <i_i_glide_posenum>  (1) 
137

>  <i_i_glide_rotatable_bonds>  (1) 
0

>  <i_lp_mmshare_version>  (1) 
72125

>  <i_m_source_file_index>  (1) 
100

>  <i_f3d_flags>  (1) 
0

>  <num_sample>  (1) 
100

>  <b_lp_Chiralities_Consistent>  (1) 
1

>  <r_epik_Charging_Adjusted_Penalty>  (1) 
0

>  <r_epik_Ionization_Penalty>  (1) 
7.9724310449397378e-14

>  <r_epik_Ionization_Penalty_Charging>  (1) 
0

>  <r_epik_Ionization_Penalty_Neutral>  (1) 
7.9724310449397378e-14

>  <r_epik_State_Penalty>  (1) 
-0

>  <r_glide_ring_energy>  (1) 
0.2805525668492585

>  <r_i_docking_score>  (1) 
-3.9163469405919846

>  <r_i_glide_ecoul>  (1) 
-0.72596810303371218

>  <r_i_glide_eff_state_penalty>  (1) 
-0

>  <r_i_glide_einternal>  (1) 
0

>  <r_i_glide_emodel>  (1) 
-16.10723831712399

>  <r_i_glide_emodel_strain>  (1) 
0

>  <r_i_glide_energy>  (1) 
-12.676061595537778

>  <r_i_glide_erotb>  (1) 
0

>  <r_i_glide_esite>  (1) 
0

>  <r_i_glide_evdw>  (1) 
-11.950093492504065

>  <r_i_glide_gscore>  (1) 
-3.9163469405919846

>  <r_i_glide_gscore_strain>  (1) 
0

>  <r_i_glide_hbond>  (1) 
0

>  <r_i_glide_ligand_efficiency>  (1) 
-0.78326938811839697

>  <r_i_glide_ligand_efficiency_ln>  (1) 
-1.5008392887718838

>  <r_i_glide_ligand_efficiency_sa>  (1) 
-1.3393718134506329

>  <r_i_glide_lipo>  (1) 
-0.2682803838450577

>  <r_i_glide_metal>  (1) 
-0

>  <r_i_glide_rewards>  (1) 
-2.9416666666666664

>  <r_lp_Energy>  (1) 
-12.242958999999999

>  <r_lp_tautomer_probability>  (1) 
1

>  <s_epik_Chemistry_Notes>  (1) 
This compound contains an acetal/aminal-like group ( X-CH(R)-Y where X, Y are N, S, or O) that may be acid/base labile, releasing an aldehyde.

>  <s_epik_cmdline>  (1) 
J2VwaWtfcHl0aG9uJywgJy1waHQnLCAnMS4wJywgJy1waCcsICc3LjQnLCAnLXRuJywgJzgnLCAnLW1hJywgJzUwMCcsICctaW1hZScsICc8aW5maWxlLm1hZT4nLCAnLW9tYWUnLCAnPG91dGZpbGUubWFlPic=

>  <s_epik_input>  (1) 
TzFbQ0gyXVtDSDJdT1tDSDJdMQ==

>  <s_glide_docking_method>  (1) 
confgen

>  <s_i_glide_gridfile>  (1) 
gpcr_drd2_6luq_protein_autoprepared_prepared

>  <s_lp_Force_Field>  (1) 
S-OPLS

>  <s_lp_Variant>  (1) 
Pocket2Mol_99_num_sample_100-1

>  <s_m_source_file>  (1) 
generated__ligand_Pocket2Mol_2026-05-06_prepared.sdf

>  <GenAI_Model>  (1) 
Pocket2Mol

>  <Protein>  (1) 
generic_title2

$$$$
Pocket2Mol_66_num_sample_100
     RDKit          3D

  0  0  0  0  0  0  0  0  0  0999 V3000
M  V30 BEGIN CTAB
M  V30 COUNTS 8 8 0 0 1
M  V30 BEGIN ATOM
M  V30 1 N 11.834813 8.887422 -6.961636 0
M  V30 2 C 11.431468 8.569298 -8.312824 0
M  V30 3 C 10.234835 8.112841 -8.347469 0
M  V30 4 C 9.834839 8.113093 -7.091670 0
M  V30 5 C 10.789134 8.569302 -6.309103 0
M  V30 6 H 12.106095 8.718578 -9.143802 0
M  V30 7 H 9.677797 7.785945 -9.214809 0
M  V30 8 H 8.913567 7.658146 -6.753928 0
M  V30 END ATOM
M  V30 BEGIN BOND
M  V30 1 1 2 1
M  V30 2 2 3 2
M  V30 3 1 4 3
M  V30 4 2 5 1
M  V30 5 2 5 4
M  V30 6 1 6 2
M  V30 7 1 7 3
M  V30 8 1 8 4
M  V30 END BOND
M  V30 END CTAB
M  END
>  <i_epik_Tot_Q>  (1) 
0

>  <i_epik_Tot_abs_Q>  (1) 
0

>  <i_i_glide_confnum>  (1) 
1

>  <i_i_glide_lignum>  (1) 
73

>  <i_i_glide_posenum>  (1) 
135

>  <i_i_glide_rotatable_bonds>  (1) 
0

>  <i_lp_mmshare_version>  (1) 
72125

>  <i_m_source_file_index>  (1) 
67

>  <i_f3d_flags>  (1) 
0

>  <num_sample>  (1) 
100

>  <b_lp_Chiralities_Consistent>  (1) 
1

>  <r_epik_Charging_Adjusted_Penalty>  (1) 
0

>  <r_epik_Ionization_Penalty>  (1) 
0

>  <r_epik_Ionization_Penalty_Charging>  (1) 
0

>  <r_epik_Ionization_Penalty_Neutral>  (1) 
0

>  <r_epik_State_Penalty>  (1) 
-0

>  <r_glide_ring_energy>  (1) 
0

>  <r_i_docking_score>  (1) 
-3.9015478172985034

>  <r_i_glide_ecoul>  (1) 
-1.0904220728659404

>  <r_i_glide_eff_state_penalty>  (1) 
-0

>  <r_i_glide_einternal>  (1) 
0

>  <r_i_glide_emodel>  (1) 
-17.319327371713772

>  <r_i_glide_emodel_strain>  (1) 
3.979039320256561e-13

>  <r_i_glide_energy>  (1) 
-13.787935432777157

>  <r_i_glide_erotb>  (1) 
0

>  <r_i_glide_esite>  (1) 
0

>  <r_i_glide_evdw>  (1) 
-12.697513359911216

>  <r_i_glide_gscore>  (1) 
-3.9015478172985034

>  <r_i_glide_gscore_strain>  (1) 
0

>  <r_i_glide_hbond>  (1) 
0

>  <r_i_glide_ligand_efficiency>  (1) 
-0.78030956345970071

>  <r_i_glide_ligand_efficiency_ln>  (1) 
-1.4951679052057285

>  <r_i_glide_ligand_efficiency_sa>  (1) 
-1.3343105844778818

>  <r_i_glide_lipo>  (1) 
-0.52810883837305123

>  <r_i_glide_metal>  (1) 
-0

>  <r_i_glide_rewards>  (1) 
-2.5750000000000002

>  <r_lp_Energy>  (1) 
4.860805

>  <r_lp_tautomer_probability>  (1) 
1

>  <s_epik_Chemistry_Notes>  (1) 
This compound has an imine and may undergo hydrolysis.

>  <s_epik_cmdline>  (1) 
J2VwaWtfcHl0aG9uJywgJy1waHQnLCAnMS4wJywgJy1waCcsICc3LjQnLCAnLXRuJywgJzgnLCAnLW1hJywgJzUwMCcsICctaW1hZScsICc8aW5maWxlLm1hZT4nLCAnLW9tYWUnLCAnPG91dGZpbGUubWFlPic=

>  <s_epik_input>  (1) 
TjE9Qz1bQ0hdW0NIXT1bQ0hdMQ==

>  <s_glide_docking_method>  (1) 
confgen

>  <s_i_glide_gridfile>  (1) 
gpcr_drd2_6luq_protein_autoprepared_prepared

>  <s_lp_Force_Field>  (1) 
S-OPLS

>  <s_lp_Variant>  (1) 
Pocket2Mol_66_num_sample_100-1

>  <s_m_source_file>  (1) 
generated__ligand_Pocket2Mol_2026-05-06_prepared.sdf

>  <GenAI_Model>  (1) 
Pocket2Mol

>  <Protein>  (1) 
generic_title2

$$$$
Pocket2Mol_9_num_sample_100
     RDKit          3D

  0  0  0  0  0  0  0  0  0  0999 V3000
M  V30 BEGIN CTAB
M  V30 COUNTS 13 13 0 0 1
M  V30 BEGIN ATOM
M  V30 1 N 9.441369 7.896015 -8.845773 0 CHG=1
M  V30 2 C 10.460879 8.085790 -9.740321 0
M  V30 3 C 11.618283 8.196205 -9.009210 0
M  V30 4 C 9.921681 7.885101 -7.598846 0
M  V30 5 C 13.034677 8.410011 -9.423056 0
M  V30 6 N 11.243047 8.067168 -7.695621 0
M  V30 7 H 10.293461 8.127642 -10.807697 0
M  V30 8 H 9.355608 7.755098 -6.692525 0
M  V30 9 H 13.106426 8.484859 -10.508579 0
M  V30 10 H 13.422380 9.331186 -8.987075 0
M  V30 11 H 13.656319 7.577373 -9.092539 0
M  V30 12 H 11.877493 8.104330 -6.906327 0
M  V30 13 H 8.465176 7.780590 -9.091679 0
M  V30 END ATOM
M  V30 BEGIN BOND
M  V30 1 1 2 1
M  V30 2 2 3 2
M  V30 3 2 4 1
M  V30 4 1 5 3
M  V30 5 1 6 3
M  V30 6 1 6 4
M  V30 7 1 7 2
M  V30 8 1 8 4
M  V30 9 1 9 5
M  V30 10 1 10 5
M  V30 11 1 11 5
M  V30 12 1 12 6
M  V30 13 1 13 1
M  V30 END BOND
M  V30 END CTAB
M  END
>  <i_epik_Tot_Q>  (1) 
1

>  <i_epik_Tot_abs_Q>  (1) 
1

>  <i_i_glide_confnum>  (1) 
1

>  <i_i_glide_lignum>  (1) 
11

>  <i_i_glide_posenum>  (1) 
395

>  <i_i_glide_rotatable_bonds>  (1) 
0

>  <i_lp_mmshare_version>  (1) 
72125

>  <i_m_source_file_index>  (1) 
10

>  <i_f3d_flags>  (1) 
0

>  <num_sample>  (1) 
100

>  <b_lp_Chiralities_Consistent>  (1) 
1

>  <r_epik_Charging_Adjusted_Penalty>  (1) 
0.63910500234431922

>  <r_epik_Ionization_Penalty>  (1) 
0.82018112513013652

>  <r_epik_Ionization_Penalty_Charging>  (1) 
0

>  <r_epik_Ionization_Penalty_Neutral>  (1) 
0.82018112513013652

>  <r_epik_State_Penalty>  (1) 
0.63910500234431922

>  <r_glide_ring_energy>  (1) 
0

>  <r_i_docking_score>  (1) 
-3.8983435025593334

>  <r_i_glide_ecoul>  (1) 
-8.829002900790055

>  <r_i_glide_eff_state_penalty>  (1) 
0.63910500234431922

>  <r_i_glide_einternal>  (1) 
0

>  <r_i_glide_emodel>  (1) 
-24.282352938034279

>  <r_i_glide_emodel_strain>  (1) 
0

>  <r_i_glide_energy>  (1) 
-15.674316438613634

>  <r_i_glide_erotb>  (1) 
0

>  <r_i_glide_esite>  (1) 
-0.160712466533563

>  <r_i_glide_evdw>  (1) 
-6.8453135378235794

>  <r_i_glide_gscore>  (1) 
-4.5374485049036526

>  <r_i_glide_gscore_strain>  (1) 
0

>  <r_i_glide_hbond>  (1) 
-0.20000000000000001

>  <r_i_glide_ligand_efficiency>  (1) 
-0.64972391709322219

>  <r_i_glide_ligand_efficiency_ln>  (1) 
-1.3963751338639707

>  <r_i_glide_ligand_efficiency_sa>  (1) 
-1.1806267094056562

>  <r_i_glide_lipo>  (1) 
-0.26011992636040243

>  <r_i_glide_metal>  (1) 
-0

>  <r_i_glide_rewards>  (1) 
-2.25

>  <r_lp_Energy>  (1) 
7.4764169999999996

>  <r_lp_tautomer_probability>  (1) 
1

>  <s_epik_cmdline>  (1) 
J2VwaWtfcHl0aG9uJywgJy1waHQnLCAnMS4wJywgJy1waCcsICc3LjQnLCAnLXRuJywgJzgnLCAnLW1hJywgJzUwMCcsICctaW1hZScsICc8aW5maWxlLm1hZT4nLCAnLW9tYWUnLCAnPG91dGZpbGUubWFlPic=

>  <s_epik_input>  (1) 
W25IXTFbY0hdbltjSF1jMVtDSDNd

>  <s_glide_docking_method>  (1) 
confgen

>  <s_i_glide_gridfile>  (1) 
gpcr_drd2_6luq_protein_autoprepared_prepared

>  <s_lp_Force_Field>  (1) 
S-OPLS

>  <s_lp_Variant>  (1) 
Pocket2Mol_9_num_sample_100-2

>  <s_m_source_file>  (1) 
generated__ligand_Pocket2Mol_2026-05-06_prepared.sdf

>  <GenAI_Model>  (1) 
Pocket2Mol

>  <Protein>  (1) 
generic_title2

$$$$
Pocket2Mol_9_num_sample_100
     RDKit          3D

  0  0  0  0  0  0  0  0  0  0999 V3000
M  V30 BEGIN CTAB
M  V30 COUNTS 13 13 0 0 1
M  V30 BEGIN ATOM
M  V30 1 N 7.893275 6.169151 -11.091648 0 CHG=1
M  V30 2 C 7.327156 4.987851 -11.491162 0
M  V30 3 C 8.268638 4.336462 -12.260858 0
M  V30 4 C 9.128375 6.274245 -11.573864 0
M  V30 5 C 8.239224 3.023360 -12.966470 0
M  V30 6 N 9.365916 5.168026 -12.283162 0
M  V30 7 H 6.323186 4.702366 -11.204993 0
M  V30 8 H 9.808632 7.093629 -11.416512 0
M  V30 9 H 7.339060 2.469053 -12.696269 0
M  V30 10 H 8.243759 3.173162 -14.045923 0
M  V30 11 H 9.108979 2.424129 -12.692803 0
M  V30 12 H 10.236874 4.968505 -12.766887 0
M  V30 13 H 7.434839 6.872640 -10.485691 0
M  V30 END ATOM
M  V30 BEGIN BOND
M  V30 1 1 2 1
M  V30 2 2 3 2
M  V30 3 2 4 1
M  V30 4 1 5 3
M  V30 5 1 6 3
M  V30 6 1 6 4
M  V30 7 1 7 2
M  V30 8 1 8 4
M  V30 9 1 9 5
M  V30 10 1 10 5
M  V30 11 1 11 5
M  V30 12 1 12 6
M  V30 13 1 13 1
M  V30 END BOND
M  V30 END CTAB
M  END
>  <i_epik_Tot_Q>  (1) 
1

>  <i_epik_Tot_abs_Q>  (1) 
1

>  <i_i_glide_confnum>  (1) 
1

>  <i_i_glide_lignum>  (1) 
11

>  <i_i_glide_posenum>  (1) 
245

>  <i_i_glide_rotatable_bonds>  (1) 
0

>  <i_lp_mmshare_version>  (1) 
72125

>  <i_m_source_file_index>  (1) 
10

>  <i_f3d_flags>  (1) 
0

>  <num_sample>  (1) 
100

>  <b_lp_Chiralities_Consistent>  (1) 
1

>  <r_epik_Charging_Adjusted_Penalty>  (1) 
0.63910500234431922

>  <r_epik_Ionization_Penalty>  (1) 
0.82018112513013652

>  <r_epik_Ionization_Penalty_Charging>  (1) 
0

>  <r_epik_Ionization_Penalty_Neutral>  (1) 
0.82018112513013652

>  <r_epik_State_Penalty>  (1) 
0.63910500234431922

>  <r_glide_ring_energy>  (1) 
0

>  <r_i_docking_score>  (1) 
-3.888230152805507

>  <r_i_glide_ecoul>  (1) 
-8.7954830564169697

>  <r_i_glide_eff_state_penalty>  (1) 
0.63910500234431922

>  <r_i_glide_einternal>  (1) 
0

>  <r_i_glide_emodel>  (1) 
-24.222879684260683

>  <r_i_glide_emodel_strain>  (1) 
1.274991223709776e-11

>  <r_i_glide_energy>  (1) 
-15.634029316379845

>  <r_i_glide_erotb>  (1) 
0

>  <r_i_glide_esite>  (1) 
-0.12888951458794673

>  <r_i_glide_evdw>  (1) 
-6.8385462599628761

>  <r_i_glide_gscore>  (1) 
-4.5273351551498262

>  <r_i_glide_gscore_strain>  (1) 
0

>  <r_i_glide_hbond>  (1) 
-0.1991952642947557

>  <r_i_glide_ligand_efficiency>  (1) 
-0.64803835880091787

>  <r_i_glide_ligand_efficiency_ln>  (1) 
-1.3927525618389451

>  <r_i_glide_ligand_efficiency_sa>  (1) 
-1.1775638467222909

>  <r_i_glide_lipo>  (1) 
-0.28800060480643419

>  <r_i_glide_metal>  (1) 
-0

>  <r_i_glide_rewards>  (1) 
-2.25

>  <r_lp_Energy>  (1) 
7.4764169999999996

>  <r_lp_tautomer_probability>  (1) 
1

>  <s_epik_cmdline>  (1) 
J2VwaWtfcHl0aG9uJywgJy1waHQnLCAnMS4wJywgJy1waCcsICc3LjQnLCAnLXRuJywgJzgnLCAnLW1hJywgJzUwMCcsICctaW1hZScsICc8aW5maWxlLm1hZT4nLCAnLW9tYWUnLCAnPG91dGZpbGUubWFlPic=

>  <s_epik_input>  (1) 
W25IXTFbY0hdbltjSF1jMVtDSDNd

>  <s_glide_docking_method>  (1) 
confgen

>  <s_i_glide_gridfile>  (1) 
gpcr_drd2_6luq_protein_autoprepared_prepared

>  <s_lp_Force_Field>  (1) 
S-OPLS

>  <s_lp_Variant>  (1) 
Pocket2Mol_9_num_sample_100-2

>  <s_m_source_file>  (1) 
generated__ligand_Pocket2Mol_2026-05-06_prepared.sdf

>  <GenAI_Model>  (1) 
Pocket2Mol

>  <Protein>  (1) 
generic_title2

$$$$
Pocket2Mol_6_num_sample_100
     RDKit          3D

  0  0  0  0  0  0  0  0  0  0999 V3000
M  V30 BEGIN CTAB
M  V30 COUNTS 14 14 0 0 1
M  V30 BEGIN ATOM
M  V30 1 C 10.932762 6.617378 -5.766510 0
M  V30 2 O 10.674701 6.169185 -7.090339 0
M  V30 3 C 11.038320 8.151472 -5.778561 0
M  V30 4 O 9.834839 8.698798 -6.291554 0
M  V30 5 C 9.449209 6.699294 -7.576983 0
M  V30 6 C 9.564843 8.230327 -7.602941 0
M  V30 7 H 10.145890 6.284039 -5.087040 0
M  V30 8 H 11.861662 6.168757 -5.416865 0
M  V30 9 H 11.204233 8.532442 -4.770400 0
M  V30 10 H 11.881849 8.477675 -6.388211 0
M  V30 11 H 9.256708 6.316252 -8.579348 0
M  V30 12 H 8.620042 6.381550 -6.943938 0
M  V30 13 H 10.350074 8.550874 -8.288737 0
M  V30 14 H 8.634856 8.682326 -7.943140 0
M  V30 END ATOM
M  V30 BEGIN BOND
M  V30 1 1 2 1
M  V30 2 1 3 1
M  V30 3 1 4 3
M  V30 4 1 5 2
M  V30 5 1 6 4
M  V30 6 1 6 5
M  V30 7 1 7 1
M  V30 8 1 8 1
M  V30 9 1 9 3
M  V30 10 1 10 3
M  V30 11 1 11 5
M  V30 12 1 12 5
M  V30 13 1 13 6
M  V30 14 1 14 6
M  V30 END BOND
M  V30 END CTAB
M  END
>  <i_epik_Tot_Q>  (1) 
0

>  <i_epik_Tot_abs_Q>  (1) 
0

>  <i_i_glide_confnum>  (1) 
2

>  <i_i_glide_lignum>  (1) 
7

>  <i_i_glide_posenum>  (1) 
105

>  <i_i_glide_rotatable_bonds>  (1) 
0

>  <i_lp_mmshare_version>  (1) 
72125

>  <i_m_source_file_index>  (1) 
7

>  <i_f3d_flags>  (1) 
0

>  <num_sample>  (1) 
100

>  <b_lp_Chiralities_Consistent>  (1) 
1

>  <r_epik_Charging_Adjusted_Penalty>  (1) 
0

>  <r_epik_Ionization_Penalty>  (1) 
8.3894707547109138e-13

>  <r_epik_Ionization_Penalty_Charging>  (1) 
0

>  <r_epik_Ionization_Penalty_Neutral>  (1) 
8.3894707547109138e-13

>  <r_epik_State_Penalty>  (1) 
-0

>  <r_glide_ring_energy>  (1) 
0.00013676017923054334

>  <r_i_docking_score>  (1) 
-3.8841225240132951

>  <r_i_glide_ecoul>  (1) 
-0.86813135211172665

>  <r_i_glide_eff_state_penalty>  (1) 
-0

>  <r_i_glide_einternal>  (1) 
0

>  <r_i_glide_emodel>  (1) 
-17.461984389688496

>  <r_i_glide_emodel_strain>  (1) 
0

>  <r_i_glide_energy>  (1) 
-13.947937792310018

>  <r_i_glide_erotb>  (1) 
0

>  <r_i_glide_esite>  (1) 
0

>  <r_i_glide_evdw>  (1) 
-13.079806440198292

>  <r_i_glide_gscore>  (1) 
-3.8841225240132951

>  <r_i_glide_gscore_strain>  (1) 
0

>  <r_i_glide_hbond>  (1) 
0

>  <r_i_glide_ligand_efficiency>  (1) 
-0.64735375400221584

>  <r_i_glide_ligand_efficiency_ln>  (1) 
-1.391281221332183

>  <r_i_glide_ligand_efficiency_sa>  (1) 
-1.1763198372446177

>  <r_i_glide_lipo>  (1) 
-0.52889781649263068

>  <r_i_glide_metal>  (1) 
-0

>  <r_i_glide_rewards>  (1) 
-2.5710146826939906

>  <r_lp_Energy>  (1) 
4.9648199999999996

>  <r_lp_tautomer_probability>  (1) 
1

>  <s_epik_cmdline>  (1) 
J2VwaWtfcHl0aG9uJywgJy1waHQnLCAnMS4wJywgJy1waCcsICc3LjQnLCAnLXRuJywgJzgnLCAnLW1hJywgJzUwMCcsICctaW1hZScsICc8aW5maWxlLm1hZT4nLCAnLW9tYWUnLCAnPG91dGZpbGUubWFlPic=

>  <s_epik_input>  (1) 
W0NIMl0xT1tDSDJdW0NIMl1PW0NIMl0x

>  <s_glide_docking_method>  (1) 
confgen

>  <s_i_glide_gridfile>  (1) 
gpcr_drd2_6luq_protein_autoprepared_prepared

>  <s_lp_Force_Field>  (1) 
S-OPLS

>  <s_lp_Variant>  (1) 
Pocket2Mol_6_num_sample_100-1

>  <s_m_source_file>  (1) 
generated__ligand_Pocket2Mol_2026-05-06_prepared.sdf

>  <GenAI_Model>  (1) 
Pocket2Mol

>  <Protein>  (1) 
generic_title2

$$$$
Pocket2Mol_9_num_sample_100
     RDKit          3D

  0  0  0  0  0  0  0  0  0  0999 V3000
M  V30 BEGIN CTAB
M  V30 COUNTS 12 12 0 0 1
M  V30 BEGIN ATOM
M  V30 1 N 12.494557 7.640678 -2.715169 0
M  V30 2 C 12.491632 8.949713 -3.275397 0
M  V30 3 C 11.834839 8.961748 -4.500412 0
M  V30 4 C 11.834839 6.969301 -3.650764 0
M  V30 5 C 11.559547 10.063719 -5.468408 0
M  V30 6 N 11.434839 7.666427 -4.691672 0
M  V30 7 H 12.959034 9.769299 -2.752226 0
M  V30 8 H 11.637168 5.910632 -3.561927 0
M  V30 9 H 11.040692 10.887690 -4.977289 0
M  V30 10 H 12.487110 10.448624 -5.891673 0
M  V30 11 H 10.932566 9.720248 -6.291659 0
M  V30 12 H 10.921494 7.309825 -5.486277 0
M  V30 END ATOM
M  V30 BEGIN BOND
M  V30 1 1 2 1
M  V30 2 2 3 2
M  V30 3 2 4 1
M  V30 4 1 5 3
M  V30 5 1 6 3
M  V30 6 1 6 4
M  V30 7 1 7 2
M  V30 8 1 8 4
M  V30 9 1 9 5
M  V30 10 1 10 5
M  V30 11 1 11 5
M  V30 12 1 12 6
M  V30 END BOND
M  V30 END CTAB
M  END
>  <i_epik_Tot_Q>  (1) 
0

>  <i_epik_Tot_abs_Q>  (1) 
0

>  <i_i_glide_confnum>  (1) 
1

>  <i_i_glide_lignum>  (1) 
10

>  <i_i_glide_posenum>  (1) 
380

>  <i_i_glide_rotatable_bonds>  (1) 
0

>  <i_lp_mmshare_version>  (1) 
72125

>  <i_m_source_file_index>  (1) 
10

>  <i_f3d_flags>  (1) 
0

>  <num_sample>  (1) 
100

>  <b_lp_Chiralities_Consistent>  (1) 
1

>  <r_epik_Charging_Adjusted_Penalty>  (1) 
0.90509379346265462

>  <r_epik_Ionization_Penalty>  (1) 
0.31828505333430857

>  <r_epik_Ionization_Penalty_Charging>  (1) 
0.31828499876078775

>  <r_epik_Ionization_Penalty_Neutral>  (1) 
5.457352079622119e-08

>  <r_epik_State_Penalty>  (1) 
0.58680879470186686

>  <r_glide_ring_energy>  (1) 
0

>  <r_i_docking_score>  (1) 
-3.8734246951575764

>  <r_i_glide_ecoul>  (1) 
-1.4047137252205069

>  <r_i_glide_eff_state_penalty>  (1) 
0.58680879470186686

>  <r_i_glide_einternal>  (1) 
0

>  <r_i_glide_emodel>  (1) 
-22.165295982311754

>  <r_i_glide_emodel_strain>  (1) 
0.039698283856763439

>  <r_i_glide_energy>  (1) 
-16.237857319237047

>  <r_i_glide_erotb>  (1) 
0

>  <r_i_glide_esite>  (1) 
0

>  <r_i_glide_evdw>  (1) 
-14.833143594016541

>  <r_i_glide_gscore>  (1) 
-4.4602334898594433

>  <r_i_glide_gscore_strain>  (1) 
0

>  <r_i_glide_hbond>  (1) 
0

>  <r_i_glide_ligand_efficiency>  (1) 
-0.64557078252626277

>  <r_i_glide_ligand_efficiency_ln>  (1) 
-1.387449290618368

>  <r_i_glide_ligand_efficiency_sa>  (1) 
-1.173079963059231

>  <r_i_glide_lipo>  (1) 
-0.96278354983195846

>  <r_i_glide_metal>  (1) 
-0

>  <r_i_glide_rewards>  (1) 
-2.5450857015435817

>  <r_lp_Energy>  (1) 
2.6351399999999998

>  <r_lp_tautomer_probability>  (1) 
0.49999999999999867

>  <s_epik_cmdline>  (1) 
J2VwaWtfcHl0aG9uJywgJy1waHQnLCAnMS4wJywgJy1waCcsICc3LjQnLCAnLXRuJywgJzgnLCAnLW1hJywgJzUwMCcsICctaW1hZScsICc8aW5maWxlLm1hZT4nLCAnLW9tYWUnLCAnPG91dGZpbGUubWFlPic=

>  <s_epik_input>  (1) 
W25IXTFbY0hdbltjSF1jMVtDSDNd

>  <s_glide_docking_method>  (1) 
confgen

>  <s_i_glide_gridfile>  (1) 
gpcr_drd2_6luq_protein_autoprepared_prepared

>  <s_lp_Force_Field>  (1) 
S-OPLS

>  <s_lp_Variant>  (1) 
Pocket2Mol_9_num_sample_100-1

>  <s_m_source_file>  (1) 
generated__ligand_Pocket2Mol_2026-05-06_prepared.sdf

>  <GenAI_Model>  (1) 
Pocket2Mol

>  <Protein>  (1) 
generic_title2

$$$$
Pocket2Mol_91_num_sample_100
     RDKit          3D

  0  0  0  0  0  0  0  0  0  0999 V3000
M  V30 BEGIN CTAB
M  V30 COUNTS 21 22 0 0 1
M  V30 BEGIN ATOM
M  V30 1 C 9.437152 5.122738 -12.492285 0
M  V30 2 O 8.607433 6.267238 -12.485763 0
M  V30 3 C 8.949132 4.169453 -11.421828 0
M  V30 4 O 8.354382 4.863112 -10.341299 0
M  V30 5 C 9.008758 7.353397 -11.803583 0
M  V30 6 C 9.103310 5.838785 -9.730789 0
M  V30 7 C 9.516754 5.672611 -8.398387 0
M  V30 8 O 9.029507 8.478604 -12.291667 0
M  V30 9 C 9.439718 7.051404 -10.392792 0
M  V30 10 C 10.248983 6.705112 -7.776446 0
M  V30 11 C 10.170998 8.019940 -9.674878 0
M  V30 12 N 10.657624 6.569288 -6.454536 0
M  V30 13 N 10.587033 7.853297 -8.399295 0
M  V30 14 H 9.418020 4.642030 -13.470144 0
M  V30 15 H 10.476317 5.401764 -12.305397 0
M  V30 16 H 8.189106 3.517344 -11.852821 0
M  V30 17 H 9.755381 3.531328 -11.065342 0
M  V30 18 H 9.265450 4.774148 -7.858182 0
M  V30 19 H 10.436748 8.955713 -10.138320 0
M  V30 20 H 10.420994 5.751865 -5.910163 0
M  V30 21 H 11.151621 7.308614 -5.980656 0
M  V30 END ATOM
M  V30 BEGIN BOND
M  V30 1 1 2 1
M  V30 2 1 3 1
M  V30 3 1 4 3
M  V30 4 1 5 2
M  V30 5 1 6 4
M  V30 6 1 7 6
M  V30 7 2 8 5
M  V30 8 1 9 5
M  V30 9 2 9 6
M  V30 10 2 10 7
M  V30 11 1 11 9
M  V30 12 1 12 10
M  V30 13 1 13 10
M  V30 14 2 13 11
M  V30 15 1 14 1
M  V30 16 1 15 1
M  V30 17 1 16 3
M  V30 18 1 17 3
M  V30 19 1 18 7
M  V30 20 1 19 11
M  V30 21 1 20 12
M  V30 22 1 21 12
M  V30 END BOND
M  V30 END CTAB
M  END
>  <i_epik_Tot_Q>  (1) 
0

>  <i_epik_Tot_abs_Q>  (1) 
0

>  <i_i_glide_confnum>  (1) 
1

>  <i_i_glide_lignum>  (1) 
99

>  <i_i_glide_posenum>  (1) 
260

>  <i_i_glide_rotatable_bonds>  (1) 
0

>  <i_lp_mmshare_version>  (1) 
72125

>  <i_m_source_file_index>  (1) 
92

>  <i_f3d_flags>  (1) 
0

>  <num_sample>  (1) 
100

>  <b_lp_Chiralities_Consistent>  (1) 
1

>  <r_epik_Charging_Adjusted_Penalty>  (1) 
0.47186222519243537

>  <r_epik_Ionization_Penalty>  (1) 
0.4718627144316776

>  <r_epik_Ionization_Penalty_Charging>  (1) 
0

>  <r_epik_Ionization_Penalty_Neutral>  (1) 
0.4718627144316776

>  <r_epik_State_Penalty>  (1) 
0.47186222519243537

>  <r_glide_ring_energy>  (1) 
0

>  <r_i_docking_score>  (1) 
-3.8575365628106519

>  <r_i_glide_ecoul>  (1) 
-1.7859054295557069

>  <r_i_glide_eff_state_penalty>  (1) 
0.47186222519243537

>  <r_i_glide_einternal>  (1) 
0

>  <r_i_glide_emodel>  (1) 
-28.523981777000024

>  <r_i_glide_emodel_strain>  (1) 
0

>  <r_i_glide_energy>  (1) 
-21.741670919751069

>  <r_i_glide_erotb>  (1) 
0

>  <r_i_glide_esite>  (1) 
-0.059087591604313032

>  <r_i_glide_evdw>  (1) 
-19.955765490195361

>  <r_i_glide_gscore>  (1) 
-4.3293987880030871

>  <r_i_glide_gscore_strain>  (1) 
0

>  <r_i_glide_hbond>  (1) 
0

>  <r_i_glide_ligand_efficiency>  (1) 
-0.29673358175466552

>  <r_i_glide_ligand_efficiency_ln>  (1) 
-1.0820733132538678

>  <r_i_glide_ligand_efficiency_sa>  (1) 
-0.69771996379136847

>  <r_i_glide_lipo>  (1) 
-0.3672727202585509

>  <r_i_glide_metal>  (1) 
-0

>  <r_i_glide_rewards>  (1) 
-2.6373643871970991

>  <r_lp_Energy>  (1) 
11.927572999999999

>  <s_epik_Chemistry_Notes>  (1) 
This compound has an ester and may undergo hydrolysis at high or low pH.

>  <s_epik_cmdline>  (1) 
J2VwaWtfcHl0aG9uJywgJy1waHQnLCAnMS4wJywgJy1waCcsICc3LjQnLCAnLXRuJywgJzgnLCAnLW1hJywgJzUwMCcsICctaW1hZScsICc8aW5maWxlLm1hZT4nLCAnLW9tYWUnLCAnPG91dGZpbGUubWFlPic=

>  <s_epik_input>  (1) 
TzFbQ0gyXVtDSDJdT0MoPU8pYyhjMTIpW2NIXW5jKFtjSF0yKVtOSDJd

>  <s_glide_docking_method>  (1) 
confgen

>  <s_i_glide_gridfile>  (1) 
gpcr_drd2_6luq_protein_autoprepared_prepared

>  <s_lp_Force_Field>  (1) 
S-OPLS

>  <s_lp_Variant>  (1) 
Pocket2Mol_91_num_sample_100-2

>  <s_m_source_file>  (1) 
generated__ligand_Pocket2Mol_2026-05-06_prepared.sdf

>  <GenAI_Model>  (1) 
Pocket2Mol

>  <Protein>  (1) 
generic_title2

$$$$
Pocket2Mol_9_num_sample_100
     RDKit          3D

  0  0  0  0  0  0  0  0  0  0999 V3000
M  V30 BEGIN CTAB
M  V30 COUNTS 13 13 0 0 1
M  V30 BEGIN ATOM
M  V30 1 N 8.287705 5.068907 -12.869598 0 CHG=1
M  V30 2 C 8.956908 4.446905 -11.849924 0
M  V30 3 C 8.670676 5.152560 -10.700139 0
M  V30 4 C 7.607967 6.113507 -12.403289 0
M  V30 5 C 9.099190 4.969299 -9.284133 0
M  V30 6 N 7.834839 6.169301 -11.091667 0
M  V30 7 H 9.570572 3.572449 -12.010639 0
M  V30 8 H 6.991904 6.785671 -12.974938 0
M  V30 9 H 9.834838 4.169301 -9.206808 0
M  V30 10 H 9.545541 5.888018 -8.902597 0
M  V30 11 H 8.240774 4.716755 -8.660458 0
M  V30 12 H 7.434839 6.880820 -10.453907 0
M  V30 13 H 8.305647 4.778140 -13.839442 0
M  V30 END ATOM
M  V30 BEGIN BOND
M  V30 1 1 2 1
M  V30 2 2 3 2
M  V30 3 2 4 1
M  V30 4 1 5 3
M  V30 5 1 6 3
M  V30 6 1 6 4
M  V30 7 1 7 2
M  V30 8 1 8 4
M  V30 9 1 9 5
M  V30 10 1 10 5
M  V30 11 1 11 5
M  V30 12 1 12 6
M  V30 13 1 13 1
M  V30 END BOND
M  V30 END CTAB
M  END
>  <i_epik_Tot_Q>  (1) 
1

>  <i_epik_Tot_abs_Q>  (1) 
1

>  <i_i_glide_confnum>  (1) 
1

>  <i_i_glide_lignum>  (1) 
11

>  <i_i_glide_posenum>  (1) 
50

>  <i_i_glide_rotatable_bonds>  (1) 
0

>  <i_lp_mmshare_version>  (1) 
72125

>  <i_m_source_file_index>  (1) 
10

>  <i_f3d_flags>  (1) 
0

>  <num_sample>  (1) 
100

>  <b_lp_Chiralities_Consistent>  (1) 
1

>  <r_epik_Charging_Adjusted_Penalty>  (1) 
0.63910500234431922

>  <r_epik_Ionization_Penalty>  (1) 
0.82018112513013652

>  <r_epik_Ionization_Penalty_Charging>  (1) 
0

>  <r_epik_Ionization_Penalty_Neutral>  (1) 
0.82018112513013652

>  <r_epik_State_Penalty>  (1) 
0.63910500234431922

>  <r_glide_ring_energy>  (1) 
0

>  <r_i_docking_score>  (1) 
-3.8401920808384471

>  <r_i_glide_ecoul>  (1) 
-8.3445353358466008

>  <r_i_glide_eff_state_penalty>  (1) 
0.63910500234431922

>  <r_i_glide_einternal>  (1) 
0

>  <r_i_glide_emodel>  (1) 
-24.15602333823437

>  <r_i_glide_emodel_strain>  (1) 
0

>  <r_i_glide_energy>  (1) 
-15.658306451284393

>  <r_i_glide_erotb>  (1) 
0

>  <r_i_glide_esite>  (1) 
-0.13389219701499652

>  <r_i_glide_evdw>  (1) 
-7.3137711154377918

>  <r_i_glide_gscore>  (1) 
-4.4792970831827663

>  <r_i_glide_gscore_strain>  (1) 
0

>  <r_i_glide_hbond>  (1) 
-0.18567926660665307

>  <r_i_glide_ligand_efficiency>  (1) 
-0.64003201347307448

>  <r_i_glide_ligand_efficiency_ln>  (1) 
-1.3755454662791178

>  <r_i_glide_ligand_efficiency_sa>  (1) 
-1.1630153517537414

>  <r_i_glide_lipo>  (1) 
-0.29235676341223665

>  <r_i_glide_metal>  (1) 
-0

>  <r_i_glide_rewards>  (1) 
-2.25

>  <r_lp_Energy>  (1) 
7.4764169999999996

>  <r_lp_tautomer_probability>  (1) 
1

>  <s_epik_cmdline>  (1) 
J2VwaWtfcHl0aG9uJywgJy1waHQnLCAnMS4wJywgJy1waCcsICc3LjQnLCAnLXRuJywgJzgnLCAnLW1hJywgJzUwMCcsICctaW1hZScsICc8aW5maWxlLm1hZT4nLCAnLW9tYWUnLCAnPG91dGZpbGUubWFlPic=

>  <s_epik_input>  (1) 
W25IXTFbY0hdbltjSF1jMVtDSDNd

>  <s_glide_docking_method>  (1) 
confgen

>  <s_i_glide_gridfile>  (1) 
gpcr_drd2_6luq_protein_autoprepared_prepared

>  <s_lp_Force_Field>  (1) 
S-OPLS

>  <s_lp_Variant>  (1) 
Pocket2Mol_9_num_sample_100-2

>  <s_m_source_file>  (1) 
generated__ligand_Pocket2Mol_2026-05-06_prepared.sdf

>  <GenAI_Model>  (1) 
Pocket2Mol

>  <Protein>  (1) 
generic_title2

$$$$
Pocket2Mol_66_num_sample_100
     RDKit          3D

  0  0  0  0  0  0  0  0  0  0999 V3000
M  V30 BEGIN CTAB
M  V30 COUNTS 8 8 0 0 1
M  V30 BEGIN ATOM
M  V30 1 N 11.834596 8.612609 -7.288393 0
M  V30 2 C 10.718882 8.555854 -6.371689 0
M  V30 3 C 9.665992 8.106542 -6.945316 0
M  V30 4 C 10.032243 7.866747 -8.188108 0
M  V30 5 C 11.301710 8.169301 -8.355998 0
M  V30 6 H 10.826296 8.875422 -5.345542 0
M  V30 7 H 8.685201 7.969579 -6.510702 0
M  V30 8 H 9.336078 7.633226 -8.981603 0
M  V30 END ATOM
M  V30 BEGIN BOND
M  V30 1 1 2 1
M  V30 2 2 3 2
M  V30 3 1 4 3
M  V30 4 2 5 1
M  V30 5 2 5 4
M  V30 6 1 6 2
M  V30 7 1 7 3
M  V30 8 1 8 4
M  V30 END BOND
M  V30 END CTAB
M  END
>  <i_epik_Tot_Q>  (1) 
0

>  <i_epik_Tot_abs_Q>  (1) 
0

>  <i_i_glide_confnum>  (1) 
1

>  <i_i_glide_lignum>  (1) 
73

>  <i_i_glide_posenum>  (1) 
143

>  <i_i_glide_rotatable_bonds>  (1) 
0

>  <i_lp_mmshare_version>  (1) 
72125

>  <i_m_source_file_index>  (1) 
67

>  <i_f3d_flags>  (1) 
0

>  <num_sample>  (1) 
100

>  <b_lp_Chiralities_Consistent>  (1) 
1

>  <r_epik_Charging_Adjusted_Penalty>  (1) 
0

>  <r_epik_Ionization_Penalty>  (1) 
0

>  <r_epik_Ionization_Penalty_Charging>  (1) 
0

>  <r_epik_Ionization_Penalty_Neutral>  (1) 
0

>  <r_epik_State_Penalty>  (1) 
-0

>  <r_glide_ring_energy>  (1) 
0

>  <r_i_docking_score>  (1) 
-3.8357950014397124

>  <r_i_glide_ecoul>  (1) 
-0.9342475152545695

>  <r_i_glide_eff_state_penalty>  (1) 
-0

>  <r_i_glide_einternal>  (1) 
0

>  <r_i_glide_emodel>  (1) 
-17.018414228997852

>  <r_i_glide_emodel_strain>  (1) 
0

>  <r_i_glide_energy>  (1) 
-13.546536866008525

>  <r_i_glide_erotb>  (1) 
0

>  <r_i_glide_esite>  (1) 
0

>  <r_i_glide_evdw>  (1) 
-12.612289350753956

>  <r_i_glide_gscore>  (1) 
-3.8357950014397124

>  <r_i_glide_gscore_strain>  (1) 
0

>  <r_i_glide_hbond>  (1) 
0

>  <r_i_glide_ligand_efficiency>  (1) 
-0.76715900028794248

>  <r_i_glide_ligand_efficiency_ln>  (1) 
-1.4699698288133087

>  <r_i_glide_ligand_efficiency_sa>  (1) 
-1.3118234377689229

>  <r_i_glide_lipo>  (1) 
-0.48171007328049548

>  <r_i_glide_metal>  (1) 
-0

>  <r_i_glide_rewards>  (1) 
-2.5833333333333335

>  <r_lp_Energy>  (1) 
4.860805

>  <r_lp_tautomer_probability>  (1) 
1

>  <s_epik_Chemistry_Notes>  (1) 
This compound has an imine and may undergo hydrolysis.

>  <s_epik_cmdline>  (1) 
J2VwaWtfcHl0aG9uJywgJy1waHQnLCAnMS4wJywgJy1waCcsICc3LjQnLCAnLXRuJywgJzgnLCAnLW1hJywgJzUwMCcsICctaW1hZScsICc8aW5maWxlLm1hZT4nLCAnLW9tYWUnLCAnPG91dGZpbGUubWFlPic=

>  <s_epik_input>  (1) 
TjE9Qz1bQ0hdW0NIXT1bQ0hdMQ==

>  <s_glide_docking_method>  (1) 
confgen

>  <s_i_glide_gridfile>  (1) 
gpcr_drd2_6luq_protein_autoprepared_prepared

>  <s_lp_Force_Field>  (1) 
S-OPLS

>  <s_lp_Variant>  (1) 
Pocket2Mol_66_num_sample_100-1

>  <s_m_source_file>  (1) 
generated__ligand_Pocket2Mol_2026-05-06_prepared.sdf

>  <GenAI_Model>  (1) 
Pocket2Mol

>  <Protein>  (1) 
generic_title2

$$$$
Pocket2Mol_22_num_sample_100
     RDKit          3D

  0  0  0  0  0  0  0  0  0  0999 V3000
M  V30 BEGIN CTAB
M  V30 COUNTS 9 9 0 0 1
M  V30 BEGIN ATOM
M  V30 1 C 10.767481 8.569301 -6.301335 0
M  V30 2 O 11.860684 8.873634 -7.064480 0
M  V30 3 C 11.511611 8.568656 -8.351122 0
M  V30 4 C 9.751223 8.088788 -7.075963 0
M  V30 5 C 10.234681 8.088468 -8.408305 0
M  V30 6 H 10.879653 8.753067 -5.243252 0
M  V30 7 H 12.276615 8.753562 -9.091510 0
M  V30 8 H 8.776910 7.775661 -6.725636 0
M  V30 9 H 9.711248 7.775592 -9.301061 0
M  V30 END ATOM
M  V30 BEGIN BOND
M  V30 1 1 2 1
M  V30 2 1 3 2
M  V30 3 2 4 1
M  V30 4 2 5 3
M  V30 5 1 5 4
M  V30 6 1 6 1
M  V30 7 1 7 3
M  V30 8 1 8 4
M  V30 9 1 9 5
M  V30 END BOND
M  V30 END CTAB
M  END
>  <i_epik_Tot_Q>  (1) 
0

>  <i_epik_Tot_abs_Q>  (1) 
0

>  <i_i_glide_confnum>  (1) 
1

>  <i_i_glide_lignum>  (1) 
26

>  <i_i_glide_posenum>  (1) 
33

>  <i_i_glide_rotatable_bonds>  (1) 
0

>  <i_lp_mmshare_version>  (1) 
72125

>  <i_m_source_file_index>  (1) 
23

>  <i_f3d_flags>  (1) 
0

>  <num_sample>  (1) 
100

>  <b_lp_Chiralities_Consistent>  (1) 
1

>  <r_epik_Charging_Adjusted_Penalty>  (1) 
0

>  <r_epik_Ionization_Penalty>  (1) 
0

>  <r_epik_Ionization_Penalty_Charging>  (1) 
0

>  <r_epik_Ionization_Penalty_Neutral>  (1) 
0

>  <r_epik_State_Penalty>  (1) 
-0

>  <r_glide_ring_energy>  (1) 
0

>  <r_i_docking_score>  (1) 
-3.8351289074117698

>  <r_i_glide_ecoul>  (1) 
-0.63689889050637793

>  <r_i_glide_eff_state_penalty>  (1) 
-0

>  <r_i_glide_einternal>  (1) 
0

>  <r_i_glide_emodel>  (1) 
-14.937459700325503

>  <r_i_glide_emodel_strain>  (1) 
5.5803139886734243e-12

>  <r_i_glide_energy>  (1) 
-11.928446669576861

>  <r_i_glide_erotb>  (1) 
0

>  <r_i_glide_esite>  (1) 
0

>  <r_i_glide_evdw>  (1) 
-11.291547779070482

>  <r_i_glide_gscore>  (1) 
-3.8351289074117698

>  <r_i_glide_gscore_strain>  (1) 
0

>  <r_i_glide_hbond>  (1) 
0

>  <r_i_glide_ligand_efficiency>  (1) 
-0.76702578148235401

>  <r_i_glide_ligand_efficiency_ln>  (1) 
-1.4697145654001542

>  <r_i_glide_ligand_efficiency_sa>  (1) 
-1.3115956368157216

>  <r_i_glide_lipo>  (1) 
-0.54168335154895564

>  <r_i_glide_metal>  (1) 
-0

>  <r_i_glide_rewards>  (1) 
-2.6333333333333333

>  <r_lp_Energy>  (1) 
2.5980879999999997

>  <r_lp_tautomer_probability>  (1) 
1

>  <s_epik_cmdline>  (1) 
J2VwaWtfcHl0aG9uJywgJy1waHQnLCAnMS4wJywgJy1waCcsICc3LjQnLCAnLXRuJywgJzgnLCAnLW1hJywgJzUwMCcsICctaW1hZScsICc8aW5maWxlLm1hZT4nLCAnLW9tYWUnLCAnPG91dGZpbGUubWFlPic=

>  <s_epik_input>  (1) 
W2NIXTFvW2NIXVtjSF1bY0hdMQ==

>  <s_glide_docking_method>  (1) 
confgen

>  <s_i_glide_gridfile>  (1) 
gpcr_drd2_6luq_protein_autoprepared_prepared

>  <s_lp_Force_Field>  (1) 
S-OPLS

>  <s_lp_Variant>  (1) 
Pocket2Mol_22_num_sample_100-1

>  <s_m_source_file>  (1) 
generated__ligand_Pocket2Mol_2026-05-06_prepared.sdf

>  <GenAI_Model>  (1) 
Pocket2Mol

>  <Protein>  (1) 
generic_title2

$$$$
Pocket2Mol_9_num_sample_100
     RDKit          3D

  0  0  0  0  0  0  0  0  0  0999 V3000
M  V30 BEGIN CTAB
M  V30 COUNTS 13 13 0 0 1
M  V30 BEGIN ATOM
M  V30 1 N 9.432636 5.261717 -12.316579 0 CHG=1
M  V30 2 C 8.417978 4.346874 -12.212483 0
M  V30 3 C 7.442107 4.923911 -11.424224 0
M  V30 4 C 9.127957 6.366476 -11.636361 0
M  V30 5 C 6.116347 4.423089 -10.955046 0
M  V30 6 N 7.925675 6.169176 -11.091883 0
M  V30 7 H 8.461822 3.377523 -12.690713 0
M  V30 8 H 9.736589 7.248951 -11.539055 0
M  V30 9 H 5.643642 3.823798 -11.732772 0
M  V30 10 H 6.236585 3.803920 -10.065374 0
M  V30 11 H 5.454271 5.254398 -10.707160 0
M  V30 12 H 7.434842 6.853573 -10.489323 0
M  V30 13 H 10.295128 5.118149 -12.834009 0
M  V30 END ATOM
M  V30 BEGIN BOND
M  V30 1 1 2 1
M  V30 2 2 3 2
M  V30 3 2 4 1
M  V30 4 1 5 3
M  V30 5 1 6 3
M  V30 6 1 6 4
M  V30 7 1 7 2
M  V30 8 1 8 4
M  V30 9 1 9 5
M  V30 10 1 10 5
M  V30 11 1 11 5
M  V30 12 1 12 6
M  V30 13 1 13 1
M  V30 END BOND
M  V30 END CTAB
M  END
>  <i_epik_Tot_Q>  (1) 
1

>  <i_epik_Tot_abs_Q>  (1) 
1

>  <i_i_glide_confnum>  (1) 
1

>  <i_i_glide_lignum>  (1) 
11

>  <i_i_glide_posenum>  (1) 
349

>  <i_i_glide_rotatable_bonds>  (1) 
0

>  <i_lp_mmshare_version>  (1) 
72125

>  <i_m_source_file_index>  (1) 
10

>  <i_f3d_flags>  (1) 
0

>  <num_sample>  (1) 
100

>  <b_lp_Chiralities_Consistent>  (1) 
1

>  <r_epik_Charging_Adjusted_Penalty>  (1) 
0.63910500234431922

>  <r_epik_Ionization_Penalty>  (1) 
0.82018112513013652

>  <r_epik_Ionization_Penalty_Charging>  (1) 
0

>  <r_epik_Ionization_Penalty_Neutral>  (1) 
0.82018112513013652

>  <r_epik_State_Penalty>  (1) 
0.63910500234431922

>  <r_glide_ring_energy>  (1) 
0

>  <r_i_docking_score>  (1) 
-3.8202810258225064

>  <r_i_glide_ecoul>  (1) 
-8.8728497638987633

>  <r_i_glide_eff_state_penalty>  (1) 
0.63910500234431922

>  <r_i_glide_einternal>  (1) 
0

>  <r_i_glide_emodel>  (1) 
-24.8661630751103

>  <r_i_glide_emodel_strain>  (1) 
0.020032966683914966

>  <r_i_glide_energy>  (1) 
-16.426252605745983

>  <r_i_glide_erotb>  (1) 
0

>  <r_i_glide_esite>  (1) 
-0.12697540271151131

>  <r_i_glide_evdw>  (1) 
-7.5534028418472206

>  <r_i_glide_gscore>  (1) 
-4.4593860281668256

>  <r_i_glide_gscore_strain>  (1) 
0

>  <r_i_glide_hbond>  (1) 
-0.20000000000000001

>  <r_i_glide_ligand_efficiency>  (1) 
-0.63671350430375107

>  <r_i_glide_ligand_efficiency_ln>  (1) 
-1.3684133851541467

>  <r_i_glide_ligand_efficiency_sa>  (1) 
-1.1569852204046613

>  <r_i_glide_lipo>  (1) 
-0.17381301877813932

>  <r_i_glide_metal>  (1) 
-0

>  <r_i_glide_rewards>  (1) 
-2.25

>  <r_lp_Energy>  (1) 
7.4764169999999996

>  <r_lp_tautomer_probability>  (1) 
1

>  <s_epik_cmdline>  (1) 
J2VwaWtfcHl0aG9uJywgJy1waHQnLCAnMS4wJywgJy1waCcsICc3LjQnLCAnLXRuJywgJzgnLCAnLW1hJywgJzUwMCcsICctaW1hZScsICc8aW5maWxlLm1hZT4nLCAnLW9tYWUnLCAnPG91dGZpbGUubWFlPic=

>  <s_epik_input>  (1) 
W25IXTFbY0hdbltjSF1jMVtDSDNd

>  <s_glide_docking_method>  (1) 
confgen

>  <s_i_glide_gridfile>  (1) 
gpcr_drd2_6luq_protein_autoprepared_prepared

>  <s_lp_Force_Field>  (1) 
S-OPLS

>  <s_lp_Variant>  (1) 
Pocket2Mol_9_num_sample_100-2

>  <s_m_source_file>  (1) 
generated__ligand_Pocket2Mol_2026-05-06_prepared.sdf

>  <GenAI_Model>  (1) 
Pocket2Mol

>  <Protein>  (1) 
generic_title2

$$$$
Pocket2Mol_99_num_sample_100
     RDKit          3D

  0  0  0  0  0  0  0  0  0  0999 V3000
M  V30 BEGIN CTAB
M  V30 COUNTS 11 11 0 0 1
M  V30 BEGIN ATOM
M  V30 1 O 10.651413 6.194679 -7.094758 0
M  V30 2 C 9.434839 6.738213 -7.552849 0
M  V30 3 C 9.507485 8.169298 -7.019590 0
M  V30 4 C 10.804031 6.774508 -5.850968 0
M  V30 5 O 10.427356 8.103797 -5.943894 0
M  V30 6 H 9.338755 6.689636 -8.638283 0
M  V30 7 H 8.598426 6.197590 -7.106084 0
M  V30 8 H 9.900150 8.848004 -7.776639 0
M  V30 9 H 8.534184 8.538534 -6.694830 0
M  V30 10 H 10.151450 6.267121 -5.136095 0
M  V30 11 H 11.834839 6.682321 -5.508577 0
M  V30 END ATOM
M  V30 BEGIN BOND
M  V30 1 1 2 1
M  V30 2 1 3 2
M  V30 3 1 4 1
M  V30 4 1 5 3
M  V30 5 1 5 4
M  V30 6 1 6 2
M  V30 7 1 7 2
M  V30 8 1 8 3
M  V30 9 1 9 3
M  V30 10 1 10 4
M  V30 11 1 11 4
M  V30 END BOND
M  V30 END CTAB
M  END
>  <i_epik_Tot_Q>  (1) 
0

>  <i_epik_Tot_abs_Q>  (1) 
0

>  <i_i_glide_confnum>  (1) 
1

>  <i_i_glide_lignum>  (1) 
108

>  <i_i_glide_posenum>  (1) 
19

>  <i_i_glide_rotatable_bonds>  (1) 
0

>  <i_lp_mmshare_version>  (1) 
72125

>  <i_m_source_file_index>  (1) 
100

>  <i_f3d_flags>  (1) 
0

>  <num_sample>  (1) 
100

>  <b_lp_Chiralities_Consistent>  (1) 
1

>  <r_epik_Charging_Adjusted_Penalty>  (1) 
0

>  <r_epik_Ionization_Penalty>  (1) 
7.9724310449397378e-14

>  <r_epik_Ionization_Penalty_Charging>  (1) 
0

>  <r_epik_Ionization_Penalty_Neutral>  (1) 
7.9724310449397378e-14

>  <r_epik_State_Penalty>  (1) 
-0

>  <r_glide_ring_energy>  (1) 
0

>  <r_i_docking_score>  (1) 
-3.8088637859575045

>  <r_i_glide_ecoul>  (1) 
-1.2179741657357541

>  <r_i_glide_eff_state_penalty>  (1) 
-0

>  <r_i_glide_einternal>  (1) 
0

>  <r_i_glide_emodel>  (1) 
-16.351052819027313

>  <r_i_glide_emodel_strain>  (1) 
0.010833939463455344

>  <r_i_glide_energy>  (1) 
-13.024877817169891

>  <r_i_glide_erotb>  (1) 
0

>  <r_i_glide_esite>  (1) 
0

>  <r_i_glide_evdw>  (1) 
-11.806903651434137

>  <r_i_glide_gscore>  (1) 
-3.8088637859575045

>  <r_i_glide_gscore_strain>  (1) 
0

>  <r_i_glide_hbond>  (1) 
0

>  <r_i_glide_ligand_efficiency>  (1) 
-0.76177275719150095

>  <r_i_glide_ligand_efficiency_ln>  (1) 
-1.4596491327914263

>  <r_i_glide_ligand_efficiency_sa>  (1) 
-1.3026130916310543

>  <r_i_glide_lipo>  (1) 
0

>  <r_i_glide_metal>  (1) 
-0

>  <r_i_glide_rewards>  (1) 
-3.0358224785254349

>  <r_lp_Energy>  (1) 
-12.242958999999999

>  <r_lp_tautomer_probability>  (1) 
1

>  <s_epik_Chemistry_Notes>  (1) 
This compound contains an acetal/aminal-like group ( X-CH(R)-Y where X, Y are N, S, or O) that may be acid/base labile, releasing an aldehyde.

>  <s_epik_cmdline>  (1) 
J2VwaWtfcHl0aG9uJywgJy1waHQnLCAnMS4wJywgJy1waCcsICc3LjQnLCAnLXRuJywgJzgnLCAnLW1hJywgJzUwMCcsICctaW1hZScsICc8aW5maWxlLm1hZT4nLCAnLW9tYWUnLCAnPG91dGZpbGUubWFlPic=

>  <s_epik_input>  (1) 
TzFbQ0gyXVtDSDJdT1tDSDJdMQ==

>  <s_glide_docking_method>  (1) 
confgen

>  <s_i_glide_gridfile>  (1) 
gpcr_drd2_6luq_protein_autoprepared_prepared

>  <s_lp_Force_Field>  (1) 
S-OPLS

>  <s_lp_Variant>  (1) 
Pocket2Mol_99_num_sample_100-1

>  <s_m_source_file>  (1) 
generated__ligand_Pocket2Mol_2026-05-06_prepared.sdf

>  <GenAI_Model>  (1) 
Pocket2Mol

>  <Protein>  (1) 
generic_title2

$$$$
Pocket2Mol_11_num_sample_100
     RDKit          3D

  0  0  0  0  0  0  0  0  0  0999 V3000
M  V30 BEGIN CTAB
M  V30 COUNTS 14 13 0 0 1
M  V30 BEGIN ATOM
M  V30 1 N 9.034840 6.564822 -9.629889 0 CHG=1
M  V30 2 C 9.925593 7.475537 -10.384707 0
M  V30 3 C 8.702713 5.341586 -10.390378 0
M  V30 4 C 9.557650 6.264417 -8.277310 0
M  V30 5 H 10.893115 7.010444 -10.572937 0
M  V30 6 H 10.093126 8.400858 -9.831214 0
M  V30 7 H 9.480973 7.741238 -11.344517 0
M  V30 8 H 9.593872 4.743887 -10.578340 0
M  V30 9 H 7.987745 4.730013 -9.839672 0
M  V30 10 H 8.251631 5.597561 -11.349396 0
M  V30 11 H 10.502543 5.723622 -8.333405 0
M  V30 12 H 9.723037 7.183665 -7.713214 0
M  V30 13 H 8.847134 5.656548 -7.716234 0
M  V30 14 H 8.144569 7.076406 -9.493023 0
M  V30 END ATOM
M  V30 BEGIN BOND
M  V30 1 1 2 1
M  V30 2 1 3 1
M  V30 3 1 4 1
M  V30 4 1 5 2
M  V30 5 1 6 2
M  V30 6 1 7 2
M  V30 7 1 8 3
M  V30 8 1 9 3
M  V30 9 1 10 3
M  V30 10 1 11 4
M  V30 11 1 12 4
M  V30 12 1 13 4
M  V30 13 1 14 1
M  V30 END BOND
M  V30 END CTAB
M  END
>  <i_epik_Tot_Q>  (1) 
1

>  <i_epik_Tot_abs_Q>  (1) 
1

>  <i_i_glide_confnum>  (1) 
1

>  <i_i_glide_lignum>  (1) 
14

>  <i_i_glide_posenum>  (1) 
247

>  <i_i_glide_rotatable_bonds>  (1) 
0

>  <i_lp_mmshare_version>  (1) 
72125

>  <i_m_source_file_index>  (1) 
12

>  <i_f3d_flags>  (1) 
0

>  <num_sample>  (1) 
100

>  <b_lp_Chiralities_Consistent>  (1) 
1

>  <r_epik_Charging_Adjusted_Penalty>  (1) 
0.0093753769364623638

>  <r_epik_Ionization_Penalty>  (1) 
0.0046876884682311671

>  <r_epik_Ionization_Penalty_Charging>  (1) 
0.0046876884682311671

>  <r_epik_Ionization_Penalty_Neutral>  (1) 
0

>  <r_epik_State_Penalty>  (1) 
0.0046876884682311958

>  <r_glide_ring_energy>  (1) 
0

>  <r_i_docking_score>  (1) 
-3.7740431694371552

>  <r_i_glide_ecoul>  (1) 
-6.8353605063425293

>  <r_i_glide_eff_state_penalty>  (1) 
0.0046876884682311958

>  <r_i_glide_einternal>  (1) 
0

>  <r_i_glide_emodel>  (1) 
-17.952281721569804

>  <r_i_glide_emodel_strain>  (1) 
0

>  <r_i_glide_energy>  (1) 
-11.844948138041847

>  <r_i_glide_erotb>  (1) 
0

>  <r_i_glide_esite>  (1) 
-0.10000000000000001

>  <r_i_glide_evdw>  (1) 
-5.0095876316993166

>  <r_i_glide_gscore>  (1) 
-3.7787308579053862

>  <r_i_glide_gscore_strain>  (1) 
0

>  <r_i_glide_hbond>  (1) 
-0.15294740036904048

>  <r_i_glide_ligand_efficiency>  (1) 
-0.94351079235928881

>  <r_i_glide_ligand_efficiency_ln>  (1) 
-1.5815497161322514

>  <r_i_glide_ligand_efficiency_sa>  (1) 
-1.4977300243344844

>  <r_i_glide_lipo>  (1) 
0

>  <r_i_glide_metal>  (1) 
-0

>  <r_i_glide_rewards>  (1) 
-2.25

>  <r_lp_Energy>  (1) 
13.212527

>  <s_epik_cmdline>  (1) 
J2VwaWtfcHl0aG9uJywgJy1waHQnLCAnMS4wJywgJy1waCcsICc3LjQnLCAnLXRuJywgJzgnLCAnLW1hJywgJzUwMCcsICctaW1hZScsICc8aW5maWxlLm1hZT4nLCAnLW9tYWUnLCAnPG91dGZpbGUubWFlPic=

>  <s_epik_input>  (1) 
W0NIM11OKFtDSDNdKVtDSDNd

>  <s_glide_docking_method>  (1) 
confgen

>  <s_i_glide_gridfile>  (1) 
gpcr_drd2_6luq_protein_autoprepared_prepared

>  <s_lp_Force_Field>  (1) 
S-OPLS

>  <s_lp_Variant>  (1) 
Pocket2Mol_11_num_sample_100-1

>  <s_m_source_file>  (1) 
generated__ligand_Pocket2Mol_2026-05-06_prepared.sdf

>  <GenAI_Model>  (1) 
Pocket2Mol

>  <Protein>  (1) 
generic_title2

$$$$
Pocket2Mol_11_num_sample_100
     RDKit          3D

  0  0  0  0  0  0  0  0  0  0999 V3000
M  V30 BEGIN CTAB
M  V30 COUNTS 14 13 0 0 1
M  V30 BEGIN ATOM
M  V30 1 N 8.634839 5.769301 -9.314852 0 CHG=1
M  V30 2 C 8.302223 4.911913 -8.156023 0
M  V30 3 C 9.745580 6.701844 -9.022869 0
M  V30 4 C 8.870641 4.983086 -10.545664 0
M  V30 5 H 9.136986 4.258434 -7.898072 0
M  V30 6 H 7.434839 4.287402 -8.373639 0
M  V30 7 H 8.061839 5.519100 -7.282371 0
M  V30 8 H 10.670419 6.160069 -8.819016 0
M  V30 9 H 9.920882 7.370385 -9.866700 0
M  V30 10 H 9.513542 7.319382 -8.154230 0
M  V30 11 H 9.740878 4.334048 -10.436844 0
M  V30 12 H 8.006542 4.358986 -10.777099 0
M  V30 13 H 9.040884 5.641688 -11.398300 0
M  V30 14 H 7.820050 6.340708 -9.491645 0
M  V30 END ATOM
M  V30 BEGIN BOND
M  V30 1 1 2 1
M  V30 2 1 3 1
M  V30 3 1 4 1
M  V30 4 1 5 2
M  V30 5 1 6 2
M  V30 6 1 7 2
M  V30 7 1 8 3
M  V30 8 1 9 3
M  V30 9 1 10 3
M  V30 10 1 11 4
M  V30 11 1 12 4
M  V30 12 1 13 4
M  V30 13 1 14 1
M  V30 END BOND
M  V30 END CTAB
M  END
>  <i_epik_Tot_Q>  (1) 
1

>  <i_epik_Tot_abs_Q>  (1) 
1

>  <i_i_glide_confnum>  (1) 
1

>  <i_i_glide_lignum>  (1) 
14

>  <i_i_glide_posenum>  (1) 
382

>  <i_i_glide_rotatable_bonds>  (1) 
0

>  <i_lp_mmshare_version>  (1) 
72125

>  <i_m_source_file_index>  (1) 
12

>  <i_f3d_flags>  (1) 
0

>  <num_sample>  (1) 
100

>  <b_lp_Chiralities_Consistent>  (1) 
1

>  <r_epik_Charging_Adjusted_Penalty>  (1) 
0.0093753769364623638

>  <r_epik_Ionization_Penalty>  (1) 
0.0046876884682311671

>  <r_epik_Ionization_Penalty_Charging>  (1) 
0.0046876884682311671

>  <r_epik_Ionization_Penalty_Neutral>  (1) 
0

>  <r_epik_State_Penalty>  (1) 
0.0046876884682311958

>  <r_glide_ring_energy>  (1) 
0

>  <r_i_docking_score>  (1) 
-3.7540252183974623

>  <r_i_glide_ecoul>  (1) 
-4.9316588503162064

>  <r_i_glide_eff_state_penalty>  (1) 
0.0046876884682311958

>  <r_i_glide_einternal>  (1) 
0

>  <r_i_glide_emodel>  (1) 
-17.244528921463235

>  <r_i_glide_emodel_strain>  (1) 
0

>  <r_i_glide_energy>  (1) 
-11.1695491385248

>  <r_i_glide_erotb>  (1) 
0

>  <r_i_glide_esite>  (1) 
-0.10000000000000001

>  <r_i_glide_evdw>  (1) 
-6.237890288208594

>  <r_i_glide_gscore>  (1) 
-3.7587129068656933

>  <r_i_glide_gscore_strain>  (1) 
0

>  <r_i_glide_hbond>  (1) 
-0.20000000000000001

>  <r_i_glide_ligand_efficiency>  (1) 
-0.93850630459936557

>  <r_i_glide_ligand_efficiency_ln>  (1) 
-1.5731609978895034

>  <r_i_glide_ligand_efficiency_sa>  (1) 
-1.4897858951998204

>  <r_i_glide_lipo>  (1) 
-0.15706956490783264

>  <r_i_glide_metal>  (1) 
-0

>  <r_i_glide_rewards>  (1) 
-2.25

>  <r_lp_Energy>  (1) 
13.212527

>  <s_epik_cmdline>  (1) 
J2VwaWtfcHl0aG9uJywgJy1waHQnLCAnMS4wJywgJy1waCcsICc3LjQnLCAnLXRuJywgJzgnLCAnLW1hJywgJzUwMCcsICctaW1hZScsICc8aW5maWxlLm1hZT4nLCAnLW9tYWUnLCAnPG91dGZpbGUubWFlPic=

>  <s_epik_input>  (1) 
W0NIM11OKFtDSDNdKVtDSDNd

>  <s_glide_docking_method>  (1) 
confgen

>  <s_i_glide_gridfile>  (1) 
gpcr_drd2_6luq_protein_autoprepared_prepared

>  <s_lp_Force_Field>  (1) 
S-OPLS

>  <s_lp_Variant>  (1) 
Pocket2Mol_11_num_sample_100-1

>  <s_m_source_file>  (1) 
generated__ligand_Pocket2Mol_2026-05-06_prepared.sdf

>  <GenAI_Model>  (1) 
Pocket2Mol

>  <Protein>  (1) 
generic_title2

$$$$
Pocket2Mol_91_num_sample_100
     RDKit          3D

  0  0  0  0  0  0  0  0  0  0999 V3000
M  V30 BEGIN CTAB
M  V30 COUNTS 21 22 0 0 1
M  V30 BEGIN ATOM
M  V30 1 C 10.007026 7.995586 -6.493786 0
M  V30 2 O 11.373405 7.775223 -6.788858 0
M  V30 3 C 9.304168 6.653054 -6.534889 0
M  V30 4 O 9.852699 5.801060 -7.512400 0
M  V30 5 C 11.805950 7.953841 -8.048121 0
M  V30 6 C 9.964474 6.315768 -8.775831 0
M  V30 7 C 9.176800 5.795230 -9.814560 0
M  V30 8 O 12.832218 8.569300 -8.320892 0
M  V30 9 C 10.901436 7.340416 -9.085267 0
M  V30 10 C 9.341398 6.308415 -11.115346 0
M  V30 11 C 10.997249 7.769301 -10.419772 0
M  V30 12 N 8.571566 5.810215 -12.159658 0
M  V30 13 N 10.234838 7.275661 -11.423572 0
M  V30 14 H 9.908977 8.445949 -5.506581 0
M  V30 15 H 9.557454 8.692300 -7.204374 0
M  V30 16 H 9.434807 6.169301 -5.568253 0
M  V30 17 H 8.234841 6.772493 -6.690877 0
M  V30 18 H 8.458744 5.013417 -9.617917 0
M  V30 19 H 11.703512 8.538641 -10.691668 0
M  V30 20 H 7.862794 5.109842 -12.003823 0
M  V30 21 H 8.657125 6.176765 -13.095179 0
M  V30 END ATOM
M  V30 BEGIN BOND
M  V30 1 1 2 1
M  V30 2 1 3 1
M  V30 3 1 4 3
M  V30 4 1 5 2
M  V30 5 1 6 4
M  V30 6 1 7 6
M  V30 7 2 8 5
M  V30 8 1 9 5
M  V30 9 2 9 6
M  V30 10 2 10 7
M  V30 11 1 11 9
M  V30 12 1 12 10
M  V30 13 1 13 10
M  V30 14 2 13 11
M  V30 15 1 14 1
M  V30 16 1 15 1
M  V30 17 1 16 3
M  V30 18 1 17 3
M  V30 19 1 18 7
M  V30 20 1 19 11
M  V30 21 1 20 12
M  V30 22 1 21 12
M  V30 END BOND
M  V30 END CTAB
M  END
>  <i_epik_Tot_Q>  (1) 
0

>  <i_epik_Tot_abs_Q>  (1) 
0

>  <i_i_glide_confnum>  (1) 
1

>  <i_i_glide_lignum>  (1) 
99

>  <i_i_glide_posenum>  (1) 
340

>  <i_i_glide_rotatable_bonds>  (1) 
0

>  <i_lp_mmshare_version>  (1) 
72125

>  <i_m_source_file_index>  (1) 
92

>  <i_f3d_flags>  (1) 
0

>  <num_sample>  (1) 
100

>  <b_lp_Chiralities_Consistent>  (1) 
1

>  <r_epik_Charging_Adjusted_Penalty>  (1) 
0.47186222519243537

>  <r_epik_Ionization_Penalty>  (1) 
0.4718627144316776

>  <r_epik_Ionization_Penalty_Charging>  (1) 
0

>  <r_epik_Ionization_Penalty_Neutral>  (1) 
0.4718627144316776

>  <r_epik_State_Penalty>  (1) 
0.47186222519243537

>  <r_glide_ring_energy>  (1) 
0

>  <r_i_docking_score>  (1) 
-3.7478729134689885

>  <r_i_glide_ecoul>  (1) 
-0.39108823119022262

>  <r_i_glide_eff_state_penalty>  (1) 
0.47186222519243537

>  <r_i_glide_einternal>  (1) 
0

>  <r_i_glide_emodel>  (1) 
-28.817226318274621

>  <r_i_glide_emodel_strain>  (1) 
0

>  <r_i_glide_energy>  (1) 
-22.206711360640302

>  <r_i_glide_erotb>  (1) 
0

>  <r_i_glide_esite>  (1) 
-0.0053983135497143557

>  <r_i_glide_evdw>  (1) 
-21.815623129450078

>  <r_i_glide_gscore>  (1) 
-4.2197351386614237

>  <r_i_glide_gscore_strain>  (1) 
0

>  <r_i_glide_hbond>  (1) 
0

>  <r_i_glide_ligand_efficiency>  (1) 
-0.28829791642069141

>  <r_i_glide_ligand_efficiency_ln>  (1) 
-1.0513116843089476

>  <r_i_glide_ligand_efficiency_sa>  (1) 
-0.67788489127759166

>  <r_i_glide_lipo>  (1) 
-0.18640666521518234

>  <r_i_glide_metal>  (1) 
-0

>  <r_i_glide_rewards>  (1) 
-2.8784857687454899

>  <r_lp_Energy>  (1) 
11.927572999999999

>  <s_epik_Chemistry_Notes>  (1) 
This compound has an ester and may undergo hydrolysis at high or low pH.

>  <s_epik_cmdline>  (1) 
J2VwaWtfcHl0aG9uJywgJy1waHQnLCAnMS4wJywgJy1waCcsICc3LjQnLCAnLXRuJywgJzgnLCAnLW1hJywgJzUwMCcsICctaW1hZScsICc8aW5maWxlLm1hZT4nLCAnLW9tYWUnLCAnPG91dGZpbGUubWFlPic=

>  <s_epik_input>  (1) 
TzFbQ0gyXVtDSDJdT0MoPU8pYyhjMTIpW2NIXW5jKFtjSF0yKVtOSDJd

>  <s_glide_docking_method>  (1) 
confgen

>  <s_i_glide_gridfile>  (1) 
gpcr_drd2_6luq_protein_autoprepared_prepared

>  <s_lp_Force_Field>  (1) 
S-OPLS

>  <s_lp_Variant>  (1) 
Pocket2Mol_91_num_sample_100-2

>  <s_m_source_file>  (1) 
generated__ligand_Pocket2Mol_2026-05-06_prepared.sdf

>  <GenAI_Model>  (1) 
Pocket2Mol

>  <Protein>  (1) 
generic_title2

$$$$
Pocket2Mol_9_num_sample_100
     RDKit          3D

  0  0  0  0  0  0  0  0  0  0999 V3000
M  V30 BEGIN CTAB
M  V30 COUNTS 12 12 0 0 1
M  V30 BEGIN ATOM
M  V30 1 N 9.437265 7.789215 -8.850872 0
M  V30 2 C 10.470030 8.188441 -9.688750 0
M  V30 3 C 11.615794 8.039010 -8.932017 0
M  V30 4 C 9.976280 7.438646 -7.700900 0
M  V30 5 C 13.035907 8.319022 -9.318238 0
M  V30 6 N 11.296796 7.555010 -7.649712 0
M  V30 7 H 10.317079 8.528307 -10.696999 0
M  V30 8 H 9.392413 7.079434 -6.849264 0
M  V30 9 H 13.105039 8.686694 -10.341893 0
M  V30 10 H 13.478854 9.071071 -8.665859 0
M  V30 11 H 13.647040 7.419295 -9.248035 0
M  V30 12 H 8.447419 7.772686 -9.091698 0
M  V30 END ATOM
M  V30 BEGIN BOND
M  V30 1 1 2 1
M  V30 2 2 3 2
M  V30 3 1 4 1
M  V30 4 1 5 3
M  V30 5 1 6 3
M  V30 6 2 6 4
M  V30 7 1 7 2
M  V30 8 1 8 4
M  V30 9 1 9 5
M  V30 10 1 10 5
M  V30 11 1 11 5
M  V30 12 1 12 1
M  V30 END BOND
M  V30 END CTAB
M  END
>  <i_epik_Tot_Q>  (1) 
0

>  <i_epik_Tot_abs_Q>  (1) 
0

>  <i_i_glide_confnum>  (1) 
1

>  <i_i_glide_lignum>  (1) 
12

>  <i_i_glide_posenum>  (1) 
298

>  <i_i_glide_rotatable_bonds>  (1) 
0

>  <i_lp_mmshare_version>  (1) 
72125

>  <i_m_source_file_index>  (1) 
10

>  <i_f3d_flags>  (1) 
0

>  <num_sample>  (1) 
100

>  <b_lp_Chiralities_Consistent>  (1) 
1

>  <r_epik_Charging_Adjusted_Penalty>  (1) 
1.2833377634270211

>  <r_epik_Ionization_Penalty>  (1) 
0.5469164599317381

>  <r_epik_Ionization_Penalty_Charging>  (1) 
0.546916339904576

>  <r_epik_Ionization_Penalty_Neutral>  (1) 
1.2002716213740492e-07

>  <r_epik_State_Penalty>  (1) 
0.73642142352244522

>  <r_glide_ring_energy>  (1) 
0

>  <r_i_docking_score>  (1) 
-3.7223959189259346

>  <r_i_glide_ecoul>  (1) 
-8.1463528370443896

>  <r_i_glide_eff_state_penalty>  (1) 
0.73642142352244522

>  <r_i_glide_einternal>  (1) 
0

>  <r_i_glide_emodel>  (1) 
-21.927622427132796

>  <r_i_glide_emodel_strain>  (1) 
0

>  <r_i_glide_energy>  (1) 
-16.304755620989443

>  <r_i_glide_erotb>  (1) 
0

>  <r_i_glide_esite>  (1) 
-0.14944361329254466

>  <r_i_glide_evdw>  (1) 
-8.1584027839450535

>  <r_i_glide_gscore>  (1) 
-4.4588173424483797

>  <r_i_glide_gscore_strain>  (1) 
0

>  <r_i_glide_hbond>  (1) 
-0.15912352355277393

>  <r_i_glide_ligand_efficiency>  (1) 
-0.62039931982098906

>  <r_i_glide_ligand_efficiency_ln>  (1) 
-1.3333512288417915

>  <r_i_glide_ligand_efficiency_sa>  (1) 
-1.127340379825772

>  <r_i_glide_lipo>  (1) 
-0.2703771408491501

>  <r_i_glide_metal>  (1) 
-0

>  <r_i_glide_rewards>  (1) 
-2.25

>  <r_lp_Energy>  (1) 
3.7227389999999998

>  <r_lp_tautomer_probability>  (1) 
0.49999999999999867

>  <s_epik_cmdline>  (1) 
J2VwaWtfcHl0aG9uJywgJy1waHQnLCAnMS4wJywgJy1waCcsICc3LjQnLCAnLXRuJywgJzgnLCAnLW1hJywgJzUwMCcsICctaW1hZScsICc8aW5maWxlLm1hZT4nLCAnLW9tYWUnLCAnPG91dGZpbGUubWFlPic=

>  <s_epik_input>  (1) 
W25IXTFbY0hdbltjSF1jMVtDSDNd

>  <s_glide_docking_method>  (1) 
confgen

>  <s_i_glide_gridfile>  (1) 
gpcr_drd2_6luq_protein_autoprepared_prepared

>  <s_lp_Force_Field>  (1) 
S-OPLS

>  <s_lp_Variant>  (1) 
Pocket2Mol_9_num_sample_100-3

>  <s_m_source_file>  (1) 
generated__ligand_Pocket2Mol_2026-05-06_prepared.sdf

>  <GenAI_Model>  (1) 
Pocket2Mol

>  <Protein>  (1) 
generic_title2

$$$$
Pocket2Mol_11_num_sample_100
     RDKit          3D

  0  0  0  0  0  0  0  0  0  0999 V3000
M  V30 BEGIN CTAB
M  V30 COUNTS 14 13 0 0 1
M  V30 BEGIN ATOM
M  V30 1 N 6.902568 7.063093 -11.891667 0 CHG=1
M  V30 2 C 5.481016 7.376825 -12.136060 0
M  V30 3 C 7.205832 5.623573 -12.039462 0
M  V30 4 C 7.835951 7.930201 -12.638737 0
M  V30 5 H 5.206038 7.195366 -13.175318 0
M  V30 6 H 5.268645 8.418056 -11.891667 0
M  V30 7 H 4.850849 6.763815 -11.491653 0
M  V30 8 H 7.069173 5.297330 -13.071266 0
M  V30 9 H 8.235238 5.413565 -11.746456 0
M  V30 10 H 6.554418 5.025511 -11.400811 0
M  V30 11 H 7.670420 7.855201 -13.714216 0
M  V30 12 H 7.715399 8.969246 -12.331655 0
M  V30 13 H 8.870268 7.654255 -12.430129 0
M  V30 14 H 7.034835 7.300369 -10.898246 0
M  V30 END ATOM
M  V30 BEGIN BOND
M  V30 1 1 2 1
M  V30 2 1 3 1
M  V30 3 1 4 1
M  V30 4 1 5 2
M  V30 5 1 6 2
M  V30 6 1 7 2
M  V30 7 1 8 3
M  V30 8 1 9 3
M  V30 9 1 10 3
M  V30 10 1 11 4
M  V30 11 1 12 4
M  V30 12 1 13 4
M  V30 13 1 14 1
M  V30 END BOND
M  V30 END CTAB
M  END
>  <i_epik_Tot_Q>  (1) 
1

>  <i_epik_Tot_abs_Q>  (1) 
1

>  <i_i_glide_confnum>  (1) 
1

>  <i_i_glide_lignum>  (1) 
14

>  <i_i_glide_posenum>  (1) 
317

>  <i_i_glide_rotatable_bonds>  (1) 
0

>  <i_lp_mmshare_version>  (1) 
72125

>  <i_m_source_file_index>  (1) 
12

>  <i_f3d_flags>  (1) 
0

>  <num_sample>  (1) 
100

>  <b_lp_Chiralities_Consistent>  (1) 
1

>  <r_epik_Charging_Adjusted_Penalty>  (1) 
0.0093753769364623638

>  <r_epik_Ionization_Penalty>  (1) 
0.0046876884682311671

>  <r_epik_Ionization_Penalty_Charging>  (1) 
0.0046876884682311671

>  <r_epik_Ionization_Penalty_Neutral>  (1) 
0

>  <r_epik_State_Penalty>  (1) 
0.0046876884682311958

>  <r_glide_ring_energy>  (1) 
0

>  <r_i_docking_score>  (1) 
-3.7172250303740024

>  <r_i_glide_ecoul>  (1) 
-6.060362836319463

>  <r_i_glide_eff_state_penalty>  (1) 
0.0046876884682311958

>  <r_i_glide_einternal>  (1) 
0

>  <r_i_glide_emodel>  (1) 
-17.333030574414401

>  <r_i_glide_emodel_strain>  (1) 
0

>  <r_i_glide_energy>  (1) 
-11.317528704205744

>  <r_i_glide_erotb>  (1) 
0

>  <r_i_glide_esite>  (1) 
-0.10000000000000001

>  <r_i_glide_evdw>  (1) 
-5.2571658678862807

>  <r_i_glide_gscore>  (1) 
-3.7219127188422334

>  <r_i_glide_gscore_strain>  (1) 
0

>  <r_i_glide_hbond>  (1) 
-0.20000000000000001

>  <r_i_glide_ligand_efficiency>  (1) 
-0.92930625759350061

>  <r_i_glide_ligand_efficiency_ln>  (1) 
-1.5577395190380052

>  <r_i_glide_ligand_efficiency_sa>  (1) 
-1.4751817309045534

>  <r_i_glide_lipo>  (1) 
0

>  <r_i_glide_metal>  (1) 
-0

>  <r_i_glide_rewards>  (1) 
-2.25

>  <r_lp_Energy>  (1) 
13.212527

>  <s_epik_cmdline>  (1) 
J2VwaWtfcHl0aG9uJywgJy1waHQnLCAnMS4wJywgJy1waCcsICc3LjQnLCAnLXRuJywgJzgnLCAnLW1hJywgJzUwMCcsICctaW1hZScsICc8aW5maWxlLm1hZT4nLCAnLW9tYWUnLCAnPG91dGZpbGUubWFlPic=

>  <s_epik_input>  (1) 
W0NIM11OKFtDSDNdKVtDSDNd

>  <s_glide_docking_method>  (1) 
confgen

>  <s_i_glide_gridfile>  (1) 
gpcr_drd2_6luq_protein_autoprepared_prepared

>  <s_lp_Force_Field>  (1) 
S-OPLS

>  <s_lp_Variant>  (1) 
Pocket2Mol_11_num_sample_100-1

>  <s_m_source_file>  (1) 
generated__ligand_Pocket2Mol_2026-05-06_prepared.sdf

>  <GenAI_Model>  (1) 
Pocket2Mol

>  <Protein>  (1) 
generic_title2

$$$$
Pocket2Mol_91_num_sample_100
     RDKit          3D

  0  0  0  0  0  0  0  0  0  0999 V3000
M  V30 BEGIN CTAB
M  V30 COUNTS 21 22 0 0 1
M  V30 BEGIN ATOM
M  V30 1 C 9.999600 8.302684 -7.155824 0
M  V30 2 O 11.244808 8.075616 -7.801296 0
M  V30 3 C 9.434064 6.972591 -6.691096 0
M  V30 4 O 9.841911 5.933929 -7.554089 0
M  V30 5 C 11.275434 7.975464 -9.146213 0
M  V30 6 C 9.557003 6.081820 -8.888970 0
M  V30 7 C 8.605561 5.249260 -9.494728 0
M  V30 8 O 12.067175 8.603255 -9.846678 0
M  V30 9 C 10.234832 7.033892 -9.699444 0
M  V30 10 C 8.361014 5.381880 -10.874356 0
M  V30 11 C 9.924784 7.073881 -11.075849 0
M  V30 12 N 7.416996 4.569273 -11.490973 0
M  V30 13 N 9.010378 6.267395 -11.661352 0
M  V30 14 H 10.135228 8.976476 -6.309425 0
M  V30 15 H 9.301568 8.794626 -7.835829 0
M  V30 16 H 9.822187 6.736814 -5.700358 0
M  V30 17 H 8.348827 7.008235 -6.610428 0
M  V30 18 H 8.069779 4.518035 -8.909428 0
M  V30 19 H 10.424170 7.773547 -11.728473 0
M  V30 20 H 6.866548 3.908374 -10.963818 0
M  V30 21 H 7.203586 4.665922 -12.472049 0
M  V30 END ATOM
M  V30 BEGIN BOND
M  V30 1 1 2 1
M  V30 2 1 3 1
M  V30 3 1 4 3
M  V30 4 1 5 2
M  V30 5 1 6 4
M  V30 6 1 7 6
M  V30 7 2 8 5
M  V30 8 1 9 5
M  V30 9 2 9 6
M  V30 10 2 10 7
M  V30 11 1 11 9
M  V30 12 1 12 10
M  V30 13 1 13 10
M  V30 14 2 13 11
M  V30 15 1 14 1
M  V30 16 1 15 1
M  V30 17 1 16 3
M  V30 18 1 17 3
M  V30 19 1 18 7
M  V30 20 1 19 11
M  V30 21 1 20 12
M  V30 22 1 21 12
M  V30 END BOND
M  V30 END CTAB
M  END
>  <i_epik_Tot_Q>  (1) 
0

>  <i_epik_Tot_abs_Q>  (1) 
0

>  <i_i_glide_confnum>  (1) 
1

>  <i_i_glide_lignum>  (1) 
99

>  <i_i_glide_posenum>  (1) 
210

>  <i_i_glide_rotatable_bonds>  (1) 
0

>  <i_lp_mmshare_version>  (1) 
72125

>  <i_m_source_file_index>  (1) 
92

>  <i_f3d_flags>  (1) 
0

>  <num_sample>  (1) 
100

>  <b_lp_Chiralities_Consistent>  (1) 
1

>  <r_epik_Charging_Adjusted_Penalty>  (1) 
0.47186222519243537

>  <r_epik_Ionization_Penalty>  (1) 
0.4718627144316776

>  <r_epik_Ionization_Penalty_Charging>  (1) 
0

>  <r_epik_Ionization_Penalty_Neutral>  (1) 
0.4718627144316776

>  <r_epik_State_Penalty>  (1) 
0.47186222519243537

>  <r_glide_ring_energy>  (1) 
0

>  <r_i_docking_score>  (1) 
-3.6747193798429088

>  <r_i_glide_ecoul>  (1) 
0.21441602684634309

>  <r_i_glide_eff_state_penalty>  (1) 
0.47186222519243537

>  <r_i_glide_einternal>  (1) 
0

>  <r_i_glide_emodel>  (1) 
-30.770420074880729

>  <r_i_glide_emodel_strain>  (1) 
0

>  <r_i_glide_energy>  (1) 
-24.274505326109853

>  <r_i_glide_erotb>  (1) 
0

>  <r_i_glide_esite>  (1) 
-0.009181410756389086

>  <r_i_glide_evdw>  (1) 
-24.488921352956197

>  <r_i_glide_gscore>  (1) 
-4.1465816050353439

>  <r_i_glide_gscore_strain>  (1) 
0

>  <r_i_glide_hbond>  (1) 
0

>  <r_i_glide_ligand_efficiency>  (1) 
-0.28267072152637762

>  <r_i_glide_ligand_efficiency_ln>  (1) 
-1.0307914675285976

>  <r_i_glide_ligand_efficiency_sa>  (1) 
-0.66465347272802633

>  <r_i_glide_lipo>  (1) 
0

>  <r_i_glide_metal>  (1) 
-0

>  <r_i_glide_rewards>  (1) 
-2.9451165306580966

>  <r_lp_Energy>  (1) 
11.927572999999999

>  <s_epik_Chemistry_Notes>  (1) 
This compound has an ester and may undergo hydrolysis at high or low pH.

>  <s_epik_cmdline>  (1) 
J2VwaWtfcHl0aG9uJywgJy1waHQnLCAnMS4wJywgJy1waCcsICc3LjQnLCAnLXRuJywgJzgnLCAnLW1hJywgJzUwMCcsICctaW1hZScsICc8aW5maWxlLm1hZT4nLCAnLW9tYWUnLCAnPG91dGZpbGUubWFlPic=

>  <s_epik_input>  (1) 
TzFbQ0gyXVtDSDJdT0MoPU8pYyhjMTIpW2NIXW5jKFtjSF0yKVtOSDJd

>  <s_glide_docking_method>  (1) 
confgen

>  <s_i_glide_gridfile>  (1) 
gpcr_drd2_6luq_protein_autoprepared_prepared

>  <s_lp_Force_Field>  (1) 
S-OPLS

>  <s_lp_Variant>  (1) 
Pocket2Mol_91_num_sample_100-2

>  <s_m_source_file>  (1) 
generated__ligand_Pocket2Mol_2026-05-06_prepared.sdf

>  <GenAI_Model>  (1) 
Pocket2Mol

>  <Protein>  (1) 
generic_title2

$$$$
Pocket2Mol_9_num_sample_100
     RDKit          3D

  0  0  0  0  0  0  0  0  0  0999 V3000
M  V30 BEGIN CTAB
M  V30 COUNTS 12 12 0 0 1
M  V30 BEGIN ATOM
M  V30 1 N 10.928659 7.463539 -5.946448 0
M  V30 2 C 11.434839 7.270026 -4.691663 0
M  V30 3 C 11.834839 8.536138 -4.276034 0
M  V30 4 C 11.034675 8.743048 -6.226433 0
M  V30 5 C 12.452693 8.928553 -2.971738 0
M  V30 6 N 11.574260 9.506563 -5.284254 0
M  V30 7 H 11.467844 6.302394 -4.210478 0
M  V30 8 H 10.699289 9.150083 -7.168416 0
M  V30 9 H 12.575630 8.068549 -2.313399 0
M  V30 10 H 13.434839 9.370966 -3.122284 0
M  V30 11 H 11.837464 9.660134 -2.447134 0
M  V30 12 H 10.538208 6.752218 -6.549340 0
M  V30 END ATOM
M  V30 BEGIN BOND
M  V30 1 1 2 1
M  V30 2 2 3 2
M  V30 3 1 4 1
M  V30 4 1 5 3
M  V30 5 1 6 3
M  V30 6 2 6 4
M  V30 7 1 7 2
M  V30 8 1 8 4
M  V30 9 1 9 5
M  V30 10 1 10 5
M  V30 11 1 11 5
M  V30 12 1 12 1
M  V30 END BOND
M  V30 END CTAB
M  END
>  <i_epik_Tot_Q>  (1) 
0

>  <i_epik_Tot_abs_Q>  (1) 
0

>  <i_i_glide_confnum>  (1) 
1

>  <i_i_glide_lignum>  (1) 
12

>  <i_i_glide_posenum>  (1) 
343

>  <i_i_glide_rotatable_bonds>  (1) 
0

>  <i_lp_mmshare_version>  (1) 
72125

>  <i_m_source_file_index>  (1) 
10

>  <i_f3d_flags>  (1) 
0

>  <num_sample>  (1) 
100

>  <b_lp_Chiralities_Consistent>  (1) 
1

>  <r_epik_Charging_Adjusted_Penalty>  (1) 
1.2833377634270211

>  <r_epik_Ionization_Penalty>  (1) 
0.5469164599317381

>  <r_epik_Ionization_Penalty_Charging>  (1) 
0.546916339904576

>  <r_epik_Ionization_Penalty_Neutral>  (1) 
1.2002716213740492e-07

>  <r_epik_State_Penalty>  (1) 
0.73642142352244522

>  <r_glide_ring_energy>  (1) 
0

>  <r_i_docking_score>  (1) 
-3.6694007001972282

>  <r_i_glide_ecoul>  (1) 
-1.8652676072810466

>  <r_i_glide_eff_state_penalty>  (1) 
0.73642142352244522

>  <r_i_glide_einternal>  (1) 
0

>  <r_i_glide_emodel>  (1) 
-21.743272015530131

>  <r_i_glide_emodel_strain>  (1) 
0

>  <r_i_glide_energy>  (1) 
-16.18723572371108

>  <r_i_glide_erotb>  (1) 
0

>  <r_i_glide_esite>  (1) 
0

>  <r_i_glide_evdw>  (1) 
-14.321968116430034

>  <r_i_glide_gscore>  (1) 
-4.4058221237196733

>  <r_i_glide_gscore_strain>  (1) 
0

>  <r_i_glide_hbond>  (1) 
0

>  <r_i_glide_ligand_efficiency>  (1) 
-0.61156678336620474

>  <r_i_glide_ligand_efficiency_ln>  (1) 
-1.3143684979465113

>  <r_i_glide_ligand_efficiency_sa>  (1) 
-1.1112905959468427

>  <r_i_glide_lipo>  (1) 
-0.75295023084533408

>  <r_i_glide_metal>  (1) 
-0

>  <r_i_glide_rewards>  (1) 
-2.6569833459606809

>  <r_lp_Energy>  (1) 
3.7227389999999998

>  <r_lp_tautomer_probability>  (1) 
0.49999999999999867

>  <s_epik_cmdline>  (1) 
J2VwaWtfcHl0aG9uJywgJy1waHQnLCAnMS4wJywgJy1waCcsICc3LjQnLCAnLXRuJywgJzgnLCAnLW1hJywgJzUwMCcsICctaW1hZScsICc8aW5maWxlLm1hZT4nLCAnLW9tYWUnLCAnPG91dGZpbGUubWFlPic=

>  <s_epik_input>  (1) 
W25IXTFbY0hdbltjSF1jMVtDSDNd

>  <s_glide_docking_method>  (1) 
confgen

>  <s_i_glide_gridfile>  (1) 
gpcr_drd2_6luq_protein_autoprepared_prepared

>  <s_lp_Force_Field>  (1) 
S-OPLS

>  <s_lp_Variant>  (1) 
Pocket2Mol_9_num_sample_100-3

>  <s_m_source_file>  (1) 
generated__ligand_Pocket2Mol_2026-05-06_prepared.sdf

>  <GenAI_Model>  (1) 
Pocket2Mol

>  <Protein>  (1) 
generic_title2

$$$$
Pocket2Mol_9_num_sample_100
     RDKit          3D

  0  0  0  0  0  0  0  0  0  0999 V3000
M  V30 BEGIN CTAB
M  V30 COUNTS 12 12 0 0 1
M  V30 BEGIN ATOM
M  V30 1 N 11.969006 9.086652 -4.374711 0
M  V30 2 C 12.494302 8.586377 -3.148723 0
M  V30 3 C 12.234839 7.226727 -3.019009 0
M  V30 4 C 11.434867 7.983295 -4.885309 0
M  V30 5 C 12.562710 6.253123 -1.937451 0
M  V30 6 N 11.554543 6.892598 -4.159723 0
M  V30 7 H 13.011069 9.244118 -2.464519 0
M  V30 8 H 10.930181 7.981936 -5.840669 0
M  V30 9 H 13.034353 6.753106 -1.092179 0
M  V30 10 H 11.657860 5.769076 -1.570392 0
M  V30 11 H 13.244346 5.480411 -2.291976 0
M  V30 12 H 11.204589 5.974750 -4.399846 0
M  V30 END ATOM
M  V30 BEGIN BOND
M  V30 1 1 2 1
M  V30 2 2 3 2
M  V30 3 2 4 1
M  V30 4 1 5 3
M  V30 5 1 6 3
M  V30 6 1 6 4
M  V30 7 1 7 2
M  V30 8 1 8 4
M  V30 9 1 9 5
M  V30 10 1 10 5
M  V30 11 1 11 5
M  V30 12 1 12 6
M  V30 END BOND
M  V30 END CTAB
M  END
>  <i_epik_Tot_Q>  (1) 
0

>  <i_epik_Tot_abs_Q>  (1) 
0

>  <i_i_glide_confnum>  (1) 
1

>  <i_i_glide_lignum>  (1) 
10

>  <i_i_glide_posenum>  (1) 
73

>  <i_i_glide_rotatable_bonds>  (1) 
0

>  <i_lp_mmshare_version>  (1) 
72125

>  <i_m_source_file_index>  (1) 
10

>  <i_f3d_flags>  (1) 
0

>  <num_sample>  (1) 
100

>  <b_lp_Chiralities_Consistent>  (1) 
1

>  <r_epik_Charging_Adjusted_Penalty>  (1) 
0.90509379346265462

>  <r_epik_Ionization_Penalty>  (1) 
0.31828505333430857

>  <r_epik_Ionization_Penalty_Charging>  (1) 
0.31828499876078775

>  <r_epik_Ionization_Penalty_Neutral>  (1) 
5.457352079622119e-08

>  <r_epik_State_Penalty>  (1) 
0.58680879470186686

>  <r_glide_ring_energy>  (1) 
0

>  <r_i_docking_score>  (1) 
-3.6375133827614969

>  <r_i_glide_ecoul>  (1) 
-2.1938655076606848

>  <r_i_glide_eff_state_penalty>  (1) 
0.58680879470186686

>  <r_i_glide_einternal>  (1) 
0

>  <r_i_glide_emodel>  (1) 
-21.511824598710334

>  <r_i_glide_emodel_strain>  (1) 
3.4106051316484809e-13

>  <r_i_glide_energy>  (1) 
-15.860302318948143

>  <r_i_glide_erotb>  (1) 
0

>  <r_i_glide_esite>  (1) 
0

>  <r_i_glide_evdw>  (1) 
-13.666436811287459

>  <r_i_glide_gscore>  (1) 
-4.2243221774633639

>  <r_i_glide_gscore_strain>  (1) 
0

>  <r_i_glide_hbond>  (1) 
0

>  <r_i_glide_ligand_efficiency>  (1) 
-0.60625223046024945

>  <r_i_glide_ligand_efficiency_ln>  (1) 
-1.3029465549792869

>  <r_i_glide_ligand_efficiency_sa>  (1) 
-1.1016334124197356

>  <r_i_glide_lipo>  (1) 
-0.74531712135333583

>  <r_i_glide_metal>  (1) 
-0

>  <r_i_glide_rewards>  (1) 
-2.4666033893965524

>  <r_lp_Energy>  (1) 
2.6351399999999998

>  <r_lp_tautomer_probability>  (1) 
0.49999999999999867

>  <s_epik_cmdline>  (1) 
J2VwaWtfcHl0aG9uJywgJy1waHQnLCAnMS4wJywgJy1waCcsICc3LjQnLCAnLXRuJywgJzgnLCAnLW1hJywgJzUwMCcsICctaW1hZScsICc8aW5maWxlLm1hZT4nLCAnLW9tYWUnLCAnPG91dGZpbGUubWFlPic=

>  <s_epik_input>  (1) 
W25IXTFbY0hdbltjSF1jMVtDSDNd

>  <s_glide_docking_method>  (1) 
confgen

>  <s_i_glide_gridfile>  (1) 
gpcr_drd2_6luq_protein_autoprepared_prepared

>  <s_lp_Force_Field>  (1) 
S-OPLS

>  <s_lp_Variant>  (1) 
Pocket2Mol_9_num_sample_100-1

>  <s_m_source_file>  (1) 
generated__ligand_Pocket2Mol_2026-05-06_prepared.sdf

>  <GenAI_Model>  (1) 
Pocket2Mol

>  <Protein>  (1) 
generic_title2

$$$$
Pocket2Mol_9_num_sample_100
     RDKit          3D

  0  0  0  0  0  0  0  0  0  0999 V3000
M  V30 BEGIN CTAB
M  V30 COUNTS 12 12 0 0 1
M  V30 BEGIN ATOM
M  V30 1 N 12.484112 8.188442 -2.014007 0
M  V30 2 C 12.241090 6.978952 -2.601701 0
M  V30 3 C 11.834839 7.294611 -3.892698 0
M  V30 4 C 12.234821 9.121006 -2.904197 0
M  V30 5 C 11.435230 6.363872 -4.989978 0
M  V30 6 N 11.835127 8.703148 -4.095346 0
M  V30 7 H 12.364230 6.035069 -2.089186 0
M  V30 8 H 12.350462 10.167932 -2.679520 0
M  V30 9 H 11.836481 5.369735 -4.814523 0
M  V30 10 H 10.351059 6.282698 -5.069607 0
M  V30 11 H 11.827903 6.695827 -5.951846 0
M  V30 12 H 12.796625 8.340638 -1.066447 0
M  V30 END ATOM
M  V30 BEGIN BOND
M  V30 1 1 2 1
M  V30 2 2 3 2
M  V30 3 1 4 1
M  V30 4 1 5 3
M  V30 5 1 6 3
M  V30 6 2 6 4
M  V30 7 1 7 2
M  V30 8 1 8 4
M  V30 9 1 9 5
M  V30 10 1 10 5
M  V30 11 1 11 5
M  V30 12 1 12 1
M  V30 END BOND
M  V30 END CTAB
M  END
>  <i_epik_Tot_Q>  (1) 
0

>  <i_epik_Tot_abs_Q>  (1) 
0

>  <i_i_glide_confnum>  (1) 
1

>  <i_i_glide_lignum>  (1) 
12

>  <i_i_glide_posenum>  (1) 
174

>  <i_i_glide_rotatable_bonds>  (1) 
0

>  <i_lp_mmshare_version>  (1) 
72125

>  <i_m_source_file_index>  (1) 
10

>  <i_f3d_flags>  (1) 
0

>  <num_sample>  (1) 
100

>  <b_lp_Chiralities_Consistent>  (1) 
1

>  <r_epik_Charging_Adjusted_Penalty>  (1) 
1.2833377634270211

>  <r_epik_Ionization_Penalty>  (1) 
0.5469164599317381

>  <r_epik_Ionization_Penalty_Charging>  (1) 
0.546916339904576

>  <r_epik_Ionization_Penalty_Neutral>  (1) 
1.2002716213740492e-07

>  <r_epik_State_Penalty>  (1) 
0.73642142352244522

>  <r_glide_ring_energy>  (1) 
0

>  <r_i_docking_score>  (1) 
-3.6077334610010623

>  <r_i_glide_ecoul>  (1) 
-1.805406351807

>  <r_i_glide_eff_state_penalty>  (1) 
0.73642142352244522

>  <r_i_glide_einternal>  (1) 
0

>  <r_i_glide_emodel>  (1) 
-21.573958055913316

>  <r_i_glide_emodel_strain>  (1) 
0.0013871760139068101

>  <r_i_glide_energy>  (1) 
-16.097075452093662

>  <r_i_glide_erotb>  (1) 
0

>  <r_i_glide_esite>  (1) 
0

>  <r_i_glide_evdw>  (1) 
-14.291669100286663

>  <r_i_glide_gscore>  (1) 
-4.3441548845235074

>  <r_i_glide_gscore_strain>  (1) 
0

>  <r_i_glide_hbond>  (1) 
0

>  <r_i_glide_ligand_efficiency>  (1) 
-0.60128891016684372

>  <r_i_glide_ligand_efficiency_ln>  (1) 
-1.2922794749214663

>  <r_i_glide_ligand_efficiency_sa>  (1) 
-1.0926144609057664

>  <r_i_glide_lipo>  (1) 
-0.65876047673812443

>  <r_i_glide_metal>  (1) 
-0

>  <r_i_glide_rewards>  (1) 
-2.7000000000000002

>  <r_lp_Energy>  (1) 
3.7227389999999998

>  <r_lp_tautomer_probability>  (1) 
0.49999999999999867

>  <s_epik_cmdline>  (1) 
J2VwaWtfcHl0aG9uJywgJy1waHQnLCAnMS4wJywgJy1waCcsICc3LjQnLCAnLXRuJywgJzgnLCAnLW1hJywgJzUwMCcsICctaW1hZScsICc8aW5maWxlLm1hZT4nLCAnLW9tYWUnLCAnPG91dGZpbGUubWFlPic=

>  <s_epik_input>  (1) 
W25IXTFbY0hdbltjSF1jMVtDSDNd

>  <s_glide_docking_method>  (1) 
confgen

>  <s_i_glide_gridfile>  (1) 
gpcr_drd2_6luq_protein_autoprepared_prepared

>  <s_lp_Force_Field>  (1) 
S-OPLS

>  <s_lp_Variant>  (1) 
Pocket2Mol_9_num_sample_100-3

>  <s_m_source_file>  (1) 
generated__ligand_Pocket2Mol_2026-05-06_prepared.sdf

>  <GenAI_Model>  (1) 
Pocket2Mol

>  <Protein>  (1) 
generic_title2

$$$$
Pocket2Mol_11_num_sample_100
     RDKit          3D

  0  0  0  0  0  0  0  0  0  0999 V3000
M  V30 BEGIN CTAB
M  V30 COUNTS 14 13 0 0 1
M  V30 BEGIN ATOM
M  V30 1 N 9.434851 7.121807 -8.736200 0 CHG=1
M  V30 2 C 10.414278 7.503692 -9.774452 0
M  V30 3 C 9.396581 5.664072 -8.491409 0
M  V30 4 C 9.578768 7.900907 -7.487917 0
M  V30 5 H 11.432699 7.277507 -9.455999 0
M  V30 6 H 10.350595 8.570093 -9.987990 0
M  V30 7 H 10.217257 6.969065 -10.704482 0
M  V30 8 H 10.339032 5.311789 -8.070477 0
M  V30 9 H 8.593925 5.414451 -7.795752 0
M  V30 10 H 9.209601 5.120137 -9.418188 0
M  V30 11 H 10.540830 7.709746 -7.010940 0
M  V30 12 H 9.498436 8.969301 -7.690905 0
M  V30 13 H 8.786600 7.642630 -6.782798 0
M  V30 14 H 8.502373 7.369241 -9.091667 0
M  V30 END ATOM
M  V30 BEGIN BOND
M  V30 1 1 2 1
M  V30 2 1 3 1
M  V30 3 1 4 1
M  V30 4 1 5 2
M  V30 5 1 6 2
M  V30 6 1 7 2
M  V30 7 1 8 3
M  V30 8 1 9 3
M  V30 9 1 10 3
M  V30 10 1 11 4
M  V30 11 1 12 4
M  V30 12 1 13 4
M  V30 13 1 14 1
M  V30 END BOND
M  V30 END CTAB
M  END
>  <i_epik_Tot_Q>  (1) 
1

>  <i_epik_Tot_abs_Q>  (1) 
1

>  <i_i_glide_confnum>  (1) 
1

>  <i_i_glide_lignum>  (1) 
14

>  <i_i_glide_posenum>  (1) 
266

>  <i_i_glide_rotatable_bonds>  (1) 
0

>  <i_lp_mmshare_version>  (1) 
72125

>  <i_m_source_file_index>  (1) 
12

>  <i_f3d_flags>  (1) 
0

>  <num_sample>  (1) 
100

>  <b_lp_Chiralities_Consistent>  (1) 
1

>  <r_epik_Charging_Adjusted_Penalty>  (1) 
0.0093753769364623638

>  <r_epik_Ionization_Penalty>  (1) 
0.0046876884682311671

>  <r_epik_Ionization_Penalty_Charging>  (1) 
0.0046876884682311671

>  <r_epik_Ionization_Penalty_Neutral>  (1) 
0

>  <r_epik_State_Penalty>  (1) 
0.0046876884682311958

>  <r_glide_ring_energy>  (1) 
0

>  <r_i_docking_score>  (1) 
-3.5920499308403113

>  <r_i_glide_ecoul>  (1) 
-4.6571262402355451

>  <r_i_glide_eff_state_penalty>  (1) 
0.0046876884682311958

>  <r_i_glide_einternal>  (1) 
0

>  <r_i_glide_emodel>  (1) 
-17.433688851820634

>  <r_i_glide_emodel_strain>  (1) 
0

>  <r_i_glide_energy>  (1) 
-11.620499905699759

>  <r_i_glide_erotb>  (1) 
0

>  <r_i_glide_esite>  (1) 
-0.10000000000000001

>  <r_i_glide_evdw>  (1) 
-6.9633736654642133

>  <r_i_glide_gscore>  (1) 
-3.5967376193085423

>  <r_i_glide_gscore_strain>  (1) 
0

>  <r_i_glide_hbond>  (1) 
-0.20000000000000001

>  <r_i_glide_ligand_efficiency>  (1) 
-0.89801248271007783

>  <r_i_glide_ligand_efficiency_ln>  (1) 
-1.505283668840653

>  <r_i_glide_ligand_efficiency_sa>  (1) 
-1.4255059597345521

>  <r_i_glide_lipo>  (1) 
0

>  <r_i_glide_metal>  (1) 
-0

>  <r_i_glide_rewards>  (1) 
-2.25

>  <r_lp_Energy>  (1) 
13.212527

>  <s_epik_cmdline>  (1) 
J2VwaWtfcHl0aG9uJywgJy1waHQnLCAnMS4wJywgJy1waCcsICc3LjQnLCAnLXRuJywgJzgnLCAnLW1hJywgJzUwMCcsICctaW1hZScsICc8aW5maWxlLm1hZT4nLCAnLW9tYWUnLCAnPG91dGZpbGUubWFlPic=

>  <s_epik_input>  (1) 
W0NIM11OKFtDSDNdKVtDSDNd

>  <s_glide_docking_method>  (1) 
confgen

>  <s_i_glide_gridfile>  (1) 
gpcr_drd2_6luq_protein_autoprepared_prepared

>  <s_lp_Force_Field>  (1) 
S-OPLS

>  <s_lp_Variant>  (1) 
Pocket2Mol_11_num_sample_100-1

>  <s_m_source_file>  (1) 
generated__ligand_Pocket2Mol_2026-05-06_prepared.sdf

>  <GenAI_Model>  (1) 
Pocket2Mol

>  <Protein>  (1) 
generic_title2

$$$$
Pocket2Mol_9_num_sample_100
     RDKit          3D

  0  0  0  0  0  0  0  0  0  0999 V3000
M  V30 BEGIN CTAB
M  V30 COUNTS 12 12 0 0 1
M  V30 BEGIN ATOM
M  V30 1 N 12.232527 7.224432 -2.580928 0
M  V30 2 C 11.834511 7.184974 -3.887679 0
M  V30 3 C 11.833310 8.515909 -4.293830 0
M  V30 4 C 12.444904 8.482802 -2.266325 0
M  V30 5 C 11.472130 9.075166 -5.633578 0
M  V30 6 N 12.235172 9.369277 -3.229343 0
M  V30 7 H 11.590823 6.267512 -4.403842 0
M  V30 8 H 12.769204 8.778319 -1.279578 0
M  V30 9 H 11.188549 8.288627 -6.333265 0
M  V30 10 H 10.632230 9.765372 -5.554906 0
M  V30 11 H 12.309632 9.619999 -6.069091 0
M  V30 12 H 12.342623 6.430125 -1.967717 0
M  V30 END ATOM
M  V30 BEGIN BOND
M  V30 1 1 2 1
M  V30 2 2 3 2
M  V30 3 1 4 1
M  V30 4 1 5 3
M  V30 5 1 6 3
M  V30 6 2 6 4
M  V30 7 1 7 2
M  V30 8 1 8 4
M  V30 9 1 9 5
M  V30 10 1 10 5
M  V30 11 1 11 5
M  V30 12 1 12 1
M  V30 END BOND
M  V30 END CTAB
M  END
>  <i_epik_Tot_Q>  (1) 
0

>  <i_epik_Tot_abs_Q>  (1) 
0

>  <i_i_glide_confnum>  (1) 
1

>  <i_i_glide_lignum>  (1) 
12

>  <i_i_glide_posenum>  (1) 
359

>  <i_i_glide_rotatable_bonds>  (1) 
0

>  <i_lp_mmshare_version>  (1) 
72125

>  <i_m_source_file_index>  (1) 
10

>  <i_f3d_flags>  (1) 
0

>  <num_sample>  (1) 
100

>  <b_lp_Chiralities_Consistent>  (1) 
1

>  <r_epik_Charging_Adjusted_Penalty>  (1) 
1.2833377634270211

>  <r_epik_Ionization_Penalty>  (1) 
0.5469164599317381

>  <r_epik_Ionization_Penalty_Charging>  (1) 
0.546916339904576

>  <r_epik_Ionization_Penalty_Neutral>  (1) 
1.2002716213740492e-07

>  <r_epik_State_Penalty>  (1) 
0.73642142352244522

>  <r_glide_ring_energy>  (1) 
0

>  <r_i_docking_score>  (1) 
-3.5877304517915181

>  <r_i_glide_ecoul>  (1) 
-0.99726192590210394

>  <r_i_glide_eff_state_penalty>  (1) 
0.73642142352244522

>  <r_i_glide_einternal>  (1) 
0

>  <r_i_glide_emodel>  (1) 
-21.736023116007978

>  <r_i_glide_emodel_strain>  (1) 
0

>  <r_i_glide_energy>  (1) 
-16.282978468282106

>  <r_i_glide_erotb>  (1) 
0

>  <r_i_glide_esite>  (1) 
0

>  <r_i_glide_evdw>  (1) 
-15.285716542380003

>  <r_i_glide_gscore>  (1) 
-4.3241518753139632

>  <r_i_glide_gscore_strain>  (1) 
0

>  <r_i_glide_hbond>  (1) 
0

>  <r_i_glide_ligand_efficiency>  (1) 
-0.59795507529858638

>  <r_i_glide_ligand_efficiency_ln>  (1) 
-1.285114456075815

>  <r_i_glide_ligand_efficiency_sa>  (1) 
-1.0865564809135539

>  <r_i_glide_lipo>  (1) 
-0.71027675930964773

>  <r_i_glide_metal>  (1) 
-0

>  <r_i_glide_rewards>  (1) 
-2.7000000000000002

>  <r_lp_Energy>  (1) 
3.7227389999999998

>  <r_lp_tautomer_probability>  (1) 
0.49999999999999867

>  <s_epik_cmdline>  (1) 
J2VwaWtfcHl0aG9uJywgJy1waHQnLCAnMS4wJywgJy1waCcsICc3LjQnLCAnLXRuJywgJzgnLCAnLW1hJywgJzUwMCcsICctaW1hZScsICc8aW5maWxlLm1hZT4nLCAnLW9tYWUnLCAnPG91dGZpbGUubWFlPic=

>  <s_epik_input>  (1) 
W25IXTFbY0hdbltjSF1jMVtDSDNd

>  <s_glide_docking_method>  (1) 
confgen

>  <s_i_glide_gridfile>  (1) 
gpcr_drd2_6luq_protein_autoprepared_prepared

>  <s_lp_Force_Field>  (1) 
S-OPLS

>  <s_lp_Variant>  (1) 
Pocket2Mol_9_num_sample_100-3

>  <s_m_source_file>  (1) 
generated__ligand_Pocket2Mol_2026-05-06_prepared.sdf

>  <GenAI_Model>  (1) 
Pocket2Mol

>  <Protein>  (1) 
generic_title2

$$$$
Pocket2Mol_45_num_sample_100
     RDKit          3D

  0  0  0  0  0  0  0  0  0  0999 V3000
M  V30 BEGIN CTAB
M  V30 COUNTS 15 16 0 0 1
M  V30 BEGIN ATOM
M  V30 1 C 11.640473 9.124713 -5.400928 0
M  V30 2 O 10.557847 8.146148 -5.491667 0
M  V30 3 C 10.576004 7.920015 -6.804879 0
M  V30 4 C 11.522378 8.588622 -7.463334 0
M  V30 5 C 11.663968 8.456708 -8.855977 0
M  V30 6 N 10.813316 7.634204 -9.518806 0 CHG=1
M  V30 7 C 9.834839 6.934444 -8.882289 0
M  V30 8 C 9.688900 7.062024 -7.479257 0
M  V30 9 O 12.284193 9.369299 -6.691665 0
M  V30 10 H 12.384452 8.771006 -4.686120 0
M  V30 11 H 11.231238 10.066218 -5.030027 0
M  V30 12 H 12.405997 8.969335 -9.451776 0
M  V30 13 H 9.207504 6.311132 -9.505488 0
M  V30 14 H 8.917026 6.524207 -6.946253 0
M  V30 15 H 10.907271 7.538138 -10.530736 0
M  V30 END ATOM
M  V30 BEGIN BOND
M  V30 1 1 2 1
M  V30 2 1 3 2
M  V30 3 2 4 3
M  V30 4 1 5 4
M  V30 5 2 6 5
M  V30 6 1 7 6
M  V30 7 1 8 3
M  V30 8 2 8 7
M  V30 9 1 9 1
M  V30 10 1 9 4
M  V30 11 1 10 1
M  V30 12 1 11 1
M  V30 13 1 12 5
M  V30 14 1 13 7
M  V30 15 1 14 8
M  V30 16 1 15 6
M  V30 END BOND
M  V30 END CTAB
M  END
>  <i_epik_Tot_Q>  (1) 
1

>  <i_epik_Tot_abs_Q>  (1) 
1

>  <i_i_glide_confnum>  (1) 
1

>  <i_i_glide_lignum>  (1) 
51

>  <i_i_glide_posenum>  (1) 
233

>  <i_i_glide_rotatable_bonds>  (1) 
0

>  <i_lp_mmshare_version>  (1) 
72125

>  <i_m_source_file_index>  (1) 
46

>  <i_f3d_flags>  (1) 
0

>  <num_sample>  (1) 
100

>  <b_lp_Chiralities_Consistent>  (1) 
1

>  <r_epik_Charging_Adjusted_Penalty>  (1) 
2.6035637255513002

>  <r_epik_Ionization_Penalty>  (1) 
1.3017818627756499

>  <r_epik_Ionization_Penalty_Charging>  (1) 
1.3017818627756499

>  <r_epik_Ionization_Penalty_Neutral>  (1) 
0

>  <r_epik_State_Penalty>  (1) 
1.3017818627756503

>  <r_glide_ring_energy>  (1) 
0

>  <r_i_docking_score>  (1) 
-3.5722644086918587

>  <r_i_glide_ecoul>  (1) 
-2.0421084251822967

>  <r_i_glide_eff_state_penalty>  (1) 
1.3017818627756503

>  <r_i_glide_einternal>  (1) 
0

>  <r_i_glide_emodel>  (1) 
-28.250749939851513

>  <r_i_glide_emodel_strain>  (1) 
0

>  <r_i_glide_energy>  (1) 
-19.206136986923461

>  <r_i_glide_erotb>  (1) 
0

>  <r_i_glide_esite>  (1) 
-0.00021808669325892595

>  <r_i_glide_evdw>  (1) 
-17.164028561741166

>  <r_i_glide_gscore>  (1) 
-4.8740462714675088

>  <r_i_glide_gscore_strain>  (1) 
0

>  <r_i_glide_hbond>  (1) 
0

>  <r_i_glide_ligand_efficiency>  (1) 
-0.39691826763242877

>  <r_i_glide_ligand_efficiency_ln>  (1) 
-1.1173016853473912

>  <r_i_glide_ligand_efficiency_sa>  (1) 
-0.82562326757600135

>  <r_i_glide_lipo>  (1) 
-0.65266638481445949

>  <r_i_glide_metal>  (1) 
-0

>  <r_i_glide_rewards>  (1) 
-3.0566441080953881

>  <r_lp_Energy>  (1) 
25.893000999999998

>  <s_epik_Chemistry_Notes>  (1) 
This compound contains an acetal/aminal-like group ( X-CH(R)-Y where X, Y are N, S, or O) that may be acid/base labile, releasing an aldehyde.

>  <s_epik_cmdline>  (1) 
J2VwaWtfcHl0aG9uJywgJy1waHQnLCAnMS4wJywgJy1waCcsICc3LjQnLCAnLXRuJywgJzgnLCAnLW1hJywgJzUwMCcsICctaW1hZScsICc8aW5maWxlLm1hZT4nLCAnLW9tYWUnLCAnPG91dGZpbGUubWFlPic=

>  <s_epik_input>  (1) 
TzFbQ0gyXU9jKGMxMilbY0hdbltjSF1bY0hdMg==

>  <s_glide_docking_method>  (1) 
confgen

>  <s_i_glide_gridfile>  (1) 
gpcr_drd2_6luq_protein_autoprepared_prepared

>  <s_lp_Force_Field>  (1) 
S-OPLS

>  <s_lp_Variant>  (1) 
Pocket2Mol_45_num_sample_100-2

>  <s_m_source_file>  (1) 
generated__ligand_Pocket2Mol_2026-05-06_prepared.sdf

>  <GenAI_Model>  (1) 
Pocket2Mol

>  <Protein>  (1) 
generic_title2

$$$$
Pocket2Mol_9_num_sample_100
     RDKit          3D

  0  0  0  0  0  0  0  0  0  0999 V3000
M  V30 BEGIN CTAB
M  V30 COUNTS 12 12 0 0 1
M  V30 BEGIN ATOM
M  V30 1 N 9.434839 7.664550 -8.064922 0
M  V30 2 C 9.434839 6.975524 -6.885884 0
M  V30 3 C 10.723360 7.123751 -6.392150 0
M  V30 4 C 10.635143 8.169302 -8.232410 0
M  V30 5 C 11.295213 6.574001 -5.124815 0
M  V30 6 N 11.516829 7.911050 -7.275027 0
M  V30 7 H 8.564105 6.459346 -6.505177 0
M  V30 8 H 10.889259 8.763232 -9.098169 0
M  V30 9 H 10.514771 6.169302 -4.479862 0
M  V30 10 H 11.998063 5.769303 -5.335591 0
M  V30 11 H 11.824763 7.342506 -4.562063 0
M  V30 12 H 8.642705 7.769301 -8.697163 0
M  V30 END ATOM
M  V30 BEGIN BOND
M  V30 1 1 2 1
M  V30 2 2 3 2
M  V30 3 1 4 1
M  V30 4 1 5 3
M  V30 5 1 6 3
M  V30 6 2 6 4
M  V30 7 1 7 2
M  V30 8 1 8 4
M  V30 9 1 9 5
M  V30 10 1 10 5
M  V30 11 1 11 5
M  V30 12 1 12 1
M  V30 END BOND
M  V30 END CTAB
M  END
>  <i_epik_Tot_Q>  (1) 
0

>  <i_epik_Tot_abs_Q>  (1) 
0

>  <i_i_glide_confnum>  (1) 
1

>  <i_i_glide_lignum>  (1) 
12

>  <i_i_glide_posenum>  (1) 
297

>  <i_i_glide_rotatable_bonds>  (1) 
0

>  <i_lp_mmshare_version>  (1) 
72125

>  <i_m_source_file_index>  (1) 
10

>  <i_f3d_flags>  (1) 
0

>  <num_sample>  (1) 
100

>  <b_lp_Chiralities_Consistent>  (1) 
1

>  <r_epik_Charging_Adjusted_Penalty>  (1) 
1.2833377634270211

>  <r_epik_Ionization_Penalty>  (1) 
0.5469164599317381

>  <r_epik_Ionization_Penalty_Charging>  (1) 
0.546916339904576

>  <r_epik_Ionization_Penalty_Neutral>  (1) 
1.2002716213740492e-07

>  <r_epik_State_Penalty>  (1) 
0.73642142352244522

>  <r_glide_ring_energy>  (1) 
0

>  <r_i_docking_score>  (1) 
-3.5333237314553165

>  <r_i_glide_ecoul>  (1) 
-3.7394024508834298

>  <r_i_glide_eff_state_penalty>  (1) 
0.73642142352244522

>  <r_i_glide_einternal>  (1) 
0

>  <r_i_glide_emodel>  (1) 
-22.009363229742554

>  <r_i_glide_emodel_strain>  (1) 
0

>  <r_i_glide_energy>  (1) 
-16.624929094247616

>  <r_i_glide_erotb>  (1) 
0

>  <r_i_glide_esite>  (1) 
-0.10601740646814005

>  <r_i_glide_evdw>  (1) 
-12.885526643364186

>  <r_i_glide_gscore>  (1) 
-4.2697451549777616

>  <r_i_glide_gscore_strain>  (1) 
0

>  <r_i_glide_hbond>  (1) 
-0.16

>  <r_i_glide_ligand_efficiency>  (1) 
-0.58888728857588613

>  <r_i_glide_ligand_efficiency_ln>  (1) 
-1.2656261294717881

>  <r_i_glide_ligand_efficiency_sa>  (1) 
-1.0700792189283255

>  <r_i_glide_lipo>  (1) 
-0.54854104870889753

>  <r_i_glide_metal>  (1) 
-0

>  <r_i_glide_rewards>  (1) 
-2.25

>  <r_lp_Energy>  (1) 
3.7227389999999998

>  <r_lp_tautomer_probability>  (1) 
0.49999999999999867

>  <s_epik_cmdline>  (1) 
J2VwaWtfcHl0aG9uJywgJy1waHQnLCAnMS4wJywgJy1waCcsICc3LjQnLCAnLXRuJywgJzgnLCAnLW1hJywgJzUwMCcsICctaW1hZScsICc8aW5maWxlLm1hZT4nLCAnLW9tYWUnLCAnPG91dGZpbGUubWFlPic=

>  <s_epik_input>  (1) 
W25IXTFbY0hdbltjSF1jMVtDSDNd

>  <s_glide_docking_method>  (1) 
confgen

>  <s_i_glide_gridfile>  (1) 
gpcr_drd2_6luq_protein_autoprepared_prepared

>  <s_lp_Force_Field>  (1) 
S-OPLS

>  <s_lp_Variant>  (1) 
Pocket2Mol_9_num_sample_100-3

>  <s_m_source_file>  (1) 
generated__ligand_Pocket2Mol_2026-05-06_prepared.sdf

>  <GenAI_Model>  (1) 
Pocket2Mol

>  <Protein>  (1) 
generic_title2

$$$$
Pocket2Mol_9_num_sample_100
     RDKit          3D

  0  0  0  0  0  0  0  0  0  0999 V3000
M  V30 BEGIN CTAB
M  V30 COUNTS 12 12 0 0 1
M  V30 BEGIN ATOM
M  V30 1 N 11.618843 9.683386 -5.756265 0
M  V30 2 C 11.834937 8.996799 -4.559297 0
M  V30 3 C 11.434826 7.684448 -4.692336 0
M  V30 4 C 11.099233 8.769232 -6.566152 0
M  V30 5 C 11.452260 6.549544 -3.725332 0
M  V30 6 N 10.967753 7.570815 -5.991285 0
M  V30 7 H 12.258828 9.497484 -3.700997 0
M  V30 8 H 10.811991 8.974706 -7.587012 0
M  V30 9 H 11.860102 6.863282 -2.764074 0
M  V30 10 H 10.444887 6.169295 -3.554799 0
M  V30 11 H 12.066358 5.730150 -4.099427 0
M  V30 12 H 10.596186 6.739004 -6.426813 0
M  V30 END ATOM
M  V30 BEGIN BOND
M  V30 1 1 2 1
M  V30 2 2 3 2
M  V30 3 2 4 1
M  V30 4 1 5 3
M  V30 5 1 6 3
M  V30 6 1 6 4
M  V30 7 1 7 2
M  V30 8 1 8 4
M  V30 9 1 9 5
M  V30 10 1 10 5
M  V30 11 1 11 5
M  V30 12 1 12 6
M  V30 END BOND
M  V30 END CTAB
M  END
>  <i_epik_Tot_Q>  (1) 
0

>  <i_epik_Tot_abs_Q>  (1) 
0

>  <i_i_glide_confnum>  (1) 
1

>  <i_i_glide_lignum>  (1) 
10

>  <i_i_glide_posenum>  (1) 
218

>  <i_i_glide_rotatable_bonds>  (1) 
0

>  <i_lp_mmshare_version>  (1) 
72125

>  <i_m_source_file_index>  (1) 
10

>  <i_f3d_flags>  (1) 
0

>  <num_sample>  (1) 
100

>  <b_lp_Chiralities_Consistent>  (1) 
1

>  <r_epik_Charging_Adjusted_Penalty>  (1) 
0.90509379346265462

>  <r_epik_Ionization_Penalty>  (1) 
0.31828505333430857

>  <r_epik_Ionization_Penalty_Charging>  (1) 
0.31828499876078775

>  <r_epik_Ionization_Penalty_Neutral>  (1) 
5.457352079622119e-08

>  <r_epik_State_Penalty>  (1) 
0.58680879470186686

>  <r_glide_ring_energy>  (1) 
0

>  <r_i_docking_score>  (1) 
-3.5285736546378437

>  <r_i_glide_ecoul>  (1) 
-1.712526562707201

>  <r_i_glide_eff_state_penalty>  (1) 
0.58680879470186686

>  <r_i_glide_einternal>  (1) 
0

>  <r_i_glide_emodel>  (1) 
-20.829679753439478

>  <r_i_glide_emodel_strain>  (1) 
7.7001036657975419e-09

>  <r_i_glide_energy>  (1) 
-15.323902828151667

>  <r_i_glide_erotb>  (1) 
0

>  <r_i_glide_esite>  (1) 
0

>  <r_i_glide_evdw>  (1) 
-13.611376265444466

>  <r_i_glide_gscore>  (1) 
-4.1153824493397106

>  <r_i_glide_gscore_strain>  (1) 
0

>  <r_i_glide_hbond>  (1) 
0

>  <r_i_glide_ligand_efficiency>  (1) 
-0.58809560910630732

>  <r_i_glide_ligand_efficiency_ln>  (1) 
-1.2639246659790229

>  <r_i_glide_ligand_efficiency_sa>  (1) 
-1.0686406418612315

>  <r_i_glide_lipo>  (1) 
-0.54630638013472577

>  <r_i_glide_metal>  (1) 
-0

>  <r_i_glide_rewards>  (1) 
-2.6316282715266817

>  <r_lp_Energy>  (1) 
2.6351399999999998

>  <r_lp_tautomer_probability>  (1) 
0.49999999999999867

>  <s_epik_cmdline>  (1) 
J2VwaWtfcHl0aG9uJywgJy1waHQnLCAnMS4wJywgJy1waCcsICc3LjQnLCAnLXRuJywgJzgnLCAnLW1hJywgJzUwMCcsICctaW1hZScsICc8aW5maWxlLm1hZT4nLCAnLW9tYWUnLCAnPG91dGZpbGUubWFlPic=

>  <s_epik_input>  (1) 
W25IXTFbY0hdbltjSF1jMVtDSDNd

>  <s_glide_docking_method>  (1) 
confgen

>  <s_i_glide_gridfile>  (1) 
gpcr_drd2_6luq_protein_autoprepared_prepared

>  <s_lp_Force_Field>  (1) 
S-OPLS

>  <s_lp_Variant>  (1) 
Pocket2Mol_9_num_sample_100-1

>  <s_m_source_file>  (1) 
generated__ligand_Pocket2Mol_2026-05-06_prepared.sdf

>  <GenAI_Model>  (1) 
Pocket2Mol

>  <Protein>  (1) 
generic_title2

$$$$
Pocket2Mol_9_num_sample_100
     RDKit          3D

  0  0  0  0  0  0  0  0  0  0999 V3000
M  V30 BEGIN CTAB
M  V30 COUNTS 12 12 0 0 1
M  V30 BEGIN ATOM
M  V30 1 N 10.813433 8.341027 -6.386970 0
M  V30 2 C 11.553495 8.229744 -7.566272 0
M  V30 3 C 10.709194 7.990185 -8.629202 0
M  V30 4 C 9.556111 8.166201 -6.774483 0
M  V30 5 C 10.988667 7.795018 -10.080825 0
M  V30 6 N 9.434846 7.955163 -8.087769 0
M  V30 7 H 12.629094 8.330096 -7.558091 0
M  V30 8 H 8.716350 8.192155 -6.095506 0
M  V30 9 H 12.057740 7.862597 -10.284045 0
M  V30 10 H 10.644642 6.815739 -10.414185 0
M  V30 11 H 10.484438 8.554404 -10.678786 0
M  V30 12 H 8.572008 7.799427 -8.588682 0
M  V30 END ATOM
M  V30 BEGIN BOND
M  V30 1 1 2 1
M  V30 2 2 3 2
M  V30 3 2 4 1
M  V30 4 1 5 3
M  V30 5 1 6 3
M  V30 6 1 6 4
M  V30 7 1 7 2
M  V30 8 1 8 4
M  V30 9 1 9 5
M  V30 10 1 10 5
M  V30 11 1 11 5
M  V30 12 1 12 6
M  V30 END BOND
M  V30 END CTAB
M  END
>  <i_epik_Tot_Q>  (1) 
0

>  <i_epik_Tot_abs_Q>  (1) 
0

>  <i_i_glide_confnum>  (1) 
1

>  <i_i_glide_lignum>  (1) 
10

>  <i_i_glide_posenum>  (1) 
328

>  <i_i_glide_rotatable_bonds>  (1) 
0

>  <i_lp_mmshare_version>  (1) 
72125

>  <i_m_source_file_index>  (1) 
10

>  <i_f3d_flags>  (1) 
0

>  <num_sample>  (1) 
100

>  <b_lp_Chiralities_Consistent>  (1) 
1

>  <r_epik_Charging_Adjusted_Penalty>  (1) 
0.90509379346265462

>  <r_epik_Ionization_Penalty>  (1) 
0.31828505333430857

>  <r_epik_Ionization_Penalty_Charging>  (1) 
0.31828499876078775

>  <r_epik_Ionization_Penalty_Neutral>  (1) 
5.457352079622119e-08

>  <r_epik_State_Penalty>  (1) 
0.58680879470186686

>  <r_glide_ring_energy>  (1) 
0

>  <r_i_docking_score>  (1) 
-3.3920268016128037

>  <r_i_glide_ecoul>  (1) 
-3.4029378927308498

>  <r_i_glide_eff_state_penalty>  (1) 
0.58680879470186686

>  <r_i_glide_einternal>  (1) 
0

>  <r_i_glide_emodel>  (1) 
-21.110842600235291

>  <r_i_glide_emodel_strain>  (1) 
3.3956020217829064e-09

>  <r_i_glide_energy>  (1) 
-15.787745293475599

>  <r_i_glide_erotb>  (1) 
0

>  <r_i_glide_esite>  (1) 
-0.13917747027208013

>  <r_i_glide_evdw>  (1) 
-12.384807400744748

>  <r_i_glide_gscore>  (1) 
-3.9788355963146707

>  <r_i_glide_gscore_strain>  (1) 
0

>  <r_i_glide_hbond>  (1) 
-0.16

>  <r_i_glide_ligand_efficiency>  (1) 
-0.56533780026880065

>  <r_i_glide_ligand_efficiency_ln>  (1) 
-1.215013986341283

>  <r_i_glide_ligand_efficiency_sa>  (1) 
-1.0272869587748608

>  <r_i_glide_lipo>  (1) 
-0.29997707209572561

>  <r_i_glide_metal>  (1) 
-0

>  <r_i_glide_rewards>  (1) 
-2.25

>  <r_lp_Energy>  (1) 
2.6351399999999998

>  <r_lp_tautomer_probability>  (1) 
0.49999999999999867

>  <s_epik_cmdline>  (1) 
J2VwaWtfcHl0aG9uJywgJy1waHQnLCAnMS4wJywgJy1waCcsICc3LjQnLCAnLXRuJywgJzgnLCAnLW1hJywgJzUwMCcsICctaW1hZScsICc8aW5maWxlLm1hZT4nLCAnLW9tYWUnLCAnPG91dGZpbGUubWFlPic=

>  <s_epik_input>  (1) 
W25IXTFbY0hdbltjSF1jMVtDSDNd

>  <s_glide_docking_method>  (1) 
confgen

>  <s_i_glide_gridfile>  (1) 
gpcr_drd2_6luq_protein_autoprepared_prepared

>  <s_lp_Force_Field>  (1) 
S-OPLS

>  <s_lp_Variant>  (1) 
Pocket2Mol_9_num_sample_100-1

>  <s_m_source_file>  (1) 
generated__ligand_Pocket2Mol_2026-05-06_prepared.sdf

>  <GenAI_Model>  (1) 
Pocket2Mol

>  <Protein>  (1) 
generic_title2

$$$$
Pocket2Mol_88_num_sample_100
     RDKit          3D

  0  0  0  0  0  0  0  0  0  0999 V3000
M  V30 BEGIN CTAB
M  V30 COUNTS 13 12 0 0 1
M  V30 BEGIN ATOM
M  V30 1 C 11.878088 9.562417 -5.593018 0
M  V30 2 O 10.685422 9.129969 -6.222951 0
M  V30 3 C 10.790983 7.827061 -6.775295 0
M  V30 4 C 9.455777 7.453917 -7.430431 0
M  V30 5 O 9.434901 7.861450 -8.784921 0
M  V30 6 H 11.722366 10.557979 -5.175989 0
M  V30 7 H 12.163238 8.897616 -4.777122 0
M  V30 8 H 12.704051 9.621047 -6.302324 0
M  V30 9 H 10.997520 7.127746 -5.963073 0
M  V30 10 H 11.613052 7.751745 -7.488772 0
M  V30 11 H 8.627509 7.899585 -6.880266 0
M  V30 12 H 9.309724 6.373703 -7.403885 0
M  V30 13 H 8.518801 7.773909 -9.091669 0
M  V30 END ATOM
M  V30 BEGIN BOND
M  V30 1 1 2 1
M  V30 2 1 3 2
M  V30 3 1 4 3
M  V30 4 1 5 4
M  V30 5 1 6 1
M  V30 6 1 7 1
M  V30 7 1 8 1
M  V30 8 1 9 3
M  V30 9 1 10 3
M  V30 10 1 11 4
M  V30 11 1 12 4
M  V30 12 1 13 5
M  V30 END BOND
M  V30 END CTAB
M  END
>  <i_epik_Tot_Q>  (1) 
0

>  <i_epik_Tot_abs_Q>  (1) 
0

>  <i_i_glide_confnum>  (1) 
3

>  <i_i_glide_lignum>  (1) 
95

>  <i_i_glide_posenum>  (1) 
398

>  <i_i_glide_rotatable_bonds>  (1) 
3

>  <i_lp_mmshare_version>  (1) 
72125

>  <i_m_source_file_index>  (1) 
89

>  <i_f3d_flags>  (1) 
0

>  <num_sample>  (1) 
100

>  <b_lp_Chiralities_Consistent>  (1) 
1

>  <r_epik_Charging_Adjusted_Penalty>  (1) 
0

>  <r_epik_Ionization_Penalty>  (1) 
5.5888793446441707e-08

>  <r_epik_Ionization_Penalty_Charging>  (1) 
0

>  <r_epik_Ionization_Penalty_Neutral>  (1) 
5.5888793446441707e-08

>  <r_epik_State_Penalty>  (1) 
-0

>  <r_glide_ring_energy>  (1) 
0

>  <r_i_docking_score>  (1) 
-2.6383507104043078

>  <r_i_glide_ecoul>  (1) 
-7.8860280584700524

>  <r_i_glide_eff_state_penalty>  (1) 
-0

>  <r_i_glide_einternal>  (1) 
2.1129477429717833

>  <r_i_glide_emodel>  (1) 
-17.57070096821456

>  <r_i_glide_emodel_strain>  (1) 
0

>  <r_i_glide_energy>  (1) 
-15.744060174847247

>  <r_i_glide_erotb>  (1) 
1.8283304104302178

>  <r_i_glide_esite>  (1) 
0

>  <r_i_glide_evdw>  (1) 
-7.8580321163771947

>  <r_i_glide_gscore>  (1) 
-2.6383507104043078

>  <r_i_glide_gscore_strain>  (1) 
0

>  <r_i_glide_hbond>  (1) 
-0.16

>  <r_i_glide_ligand_efficiency>  (1) 
-0.5276701420808616

>  <r_i_glide_ligand_efficiency_ln>  (1) 
-1.0110800865705356

>  <r_i_glide_ligand_efficiency_sa>  (1) 
-0.90230325073774842

>  <r_i_glide_lipo>  (1) 
-0.48087530624515884

>  <r_i_glide_metal>  (1) 
-0

>  <r_i_glide_rewards>  (1) 
-2.25

>  <r_lp_Energy>  (1) 
3.749654

>  <r_lp_tautomer_probability>  (1) 
1

>  <s_epik_cmdline>  (1) 
J2VwaWtfcHl0aG9uJywgJy1waHQnLCAnMS4wJywgJy1waCcsICc3LjQnLCAnLXRuJywgJzgnLCAnLW1hJywgJzUwMCcsICctaW1hZScsICc8aW5maWxlLm1hZT4nLCAnLW9tYWUnLCAnPG91dGZpbGUubWFlPic=

>  <s_epik_input>  (1) 
W0NIM11PW0NIMl1bQ0gyXVtPSF0=

>  <s_glide_docking_method>  (1) 
confgen

>  <s_i_glide_gridfile>  (1) 
gpcr_drd2_6luq_protein_autoprepared_prepared

>  <s_lp_Force_Field>  (1) 
S-OPLS

>  <s_lp_Variant>  (1) 
Pocket2Mol_88_num_sample_100-1

>  <s_m_source_file>  (1) 
generated__ligand_Pocket2Mol_2026-05-06_prepared.sdf

>  <GenAI_Model>  (1) 
Pocket2Mol

>  <Protein>  (1) 
generic_title2

$$$$
Pocket2Mol_88_num_sample_100
     RDKit          3D

  0  0  0  0  0  0  0  0  0  0999 V3000
M  V30 BEGIN CTAB
M  V30 COUNTS 13 12 0 0 1
M  V30 BEGIN ATOM
M  V30 1 C 9.794366 8.196690 -7.137800 0
M  V30 2 O 11.004940 8.930737 -7.005086 0
M  V30 3 C 12.067521 8.462913 -7.826603 0
M  V30 4 C 11.841166 8.774274 -9.316629 0
M  V30 5 O 13.034819 8.569202 -10.044505 0
M  V30 6 H 9.060619 8.569270 -6.422658 0
M  V30 7 H 9.361808 8.303479 -8.132886 0
M  V30 8 H 9.948000 7.136236 -6.933950 0
M  V30 9 H 12.234839 7.396107 -7.669780 0
M  V30 10 H 12.972097 8.969165 -7.487958 0
M  V30 11 H 11.525957 9.808839 -9.451830 0
M  V30 12 H 11.059521 8.138343 -9.732693 0
M  V30 13 H 13.617698 9.307900 -9.891616 0
M  V30 END ATOM
M  V30 BEGIN BOND
M  V30 1 1 2 1
M  V30 2 1 3 2
M  V30 3 1 4 3
M  V30 4 1 5 4
M  V30 5 1 6 1
M  V30 6 1 7 1
M  V30 7 1 8 1
M  V30 8 1 9 3
M  V30 9 1 10 3
M  V30 10 1 11 4
M  V30 11 1 12 4
M  V30 12 1 13 5
M  V30 END BOND
M  V30 END CTAB
M  END
>  <i_epik_Tot_Q>  (1) 
0

>  <i_epik_Tot_abs_Q>  (1) 
0

>  <i_i_glide_confnum>  (1) 
1

>  <i_i_glide_lignum>  (1) 
95

>  <i_i_glide_posenum>  (1) 
338

>  <i_i_glide_rotatable_bonds>  (1) 
3

>  <i_lp_mmshare_version>  (1) 
72125

>  <i_m_source_file_index>  (1) 
89

>  <i_f3d_flags>  (1) 
0

>  <num_sample>  (1) 
100

>  <b_lp_Chiralities_Consistent>  (1) 
1

>  <r_epik_Charging_Adjusted_Penalty>  (1) 
0

>  <r_epik_Ionization_Penalty>  (1) 
5.5888793446441707e-08

>  <r_epik_Ionization_Penalty_Charging>  (1) 
0

>  <r_epik_Ionization_Penalty_Neutral>  (1) 
5.5888793446441707e-08

>  <r_epik_State_Penalty>  (1) 
-0

>  <r_glide_ring_energy>  (1) 
0

>  <r_i_docking_score>  (1) 
-2.6027120786962676

>  <r_i_glide_ecoul>  (1) 
-5.2753041693795621

>  <r_i_glide_eff_state_penalty>  (1) 
-0

>  <r_i_glide_einternal>  (1) 
1.2793801329795607

>  <r_i_glide_emodel>  (1) 
-16.937948061953247

>  <r_i_glide_emodel_strain>  (1) 
0.0026130863678639482

>  <r_i_glide_energy>  (1) 
-14.736081433709327

>  <r_i_glide_erotb>  (1) 
1.8283304104302178

>  <r_i_glide_esite>  (1) 
0

>  <r_i_glide_evdw>  (1) 
-9.4607772643297654

>  <r_i_glide_gscore>  (1) 
-2.6027120786962676

>  <r_i_glide_gscore_strain>  (1) 
0

>  <r_i_glide_hbond>  (1) 
-0.32000000000000001

>  <r_i_glide_ligand_efficiency>  (1) 
-0.52054241573925353

>  <r_i_glide_ligand_efficiency_ln>  (1) 
-0.99742249711871511

>  <r_i_glide_ligand_efficiency_sa>  (1) 
-0.89011501013910488

>  <r_i_glide_lipo>  (1) 
-0.59670800050306294

>  <r_i_glide_metal>  (1) 
-0

>  <r_i_glide_rewards>  (1) 
-2.25

>  <r_lp_Energy>  (1) 
3.749654

>  <r_lp_tautomer_probability>  (1) 
1

>  <s_epik_cmdline>  (1) 
J2VwaWtfcHl0aG9uJywgJy1waHQnLCAnMS4wJywgJy1waCcsICc3LjQnLCAnLXRuJywgJzgnLCAnLW1hJywgJzUwMCcsICctaW1hZScsICc8aW5maWxlLm1hZT4nLCAnLW9tYWUnLCAnPG91dGZpbGUubWFlPic=

>  <s_epik_input>  (1) 
W0NIM11PW0NIMl1bQ0gyXVtPSF0=

>  <s_glide_docking_method>  (1) 
confgen

>  <s_i_glide_gridfile>  (1) 
gpcr_drd2_6luq_protein_autoprepared_prepared

>  <s_lp_Force_Field>  (1) 
S-OPLS

>  <s_lp_Variant>  (1) 
Pocket2Mol_88_num_sample_100-1

>  <s_m_source_file>  (1) 
generated__ligand_Pocket2Mol_2026-05-06_prepared.sdf

>  <GenAI_Model>  (1) 
Pocket2Mol

>  <Protein>  (1) 
generic_title2

$$$$
Pocket2Mol_88_num_sample_100
     RDKit          3D

  0  0  0  0  0  0  0  0  0  0999 V3000
M  V30 BEGIN CTAB
M  V30 COUNTS 13 12 0 0 1
M  V30 BEGIN ATOM
M  V30 1 C 10.962099 6.598868 -5.218448 0
M  V30 2 O 10.736808 7.600067 -6.195656 0
M  V30 3 C 10.065674 7.099751 -7.340175 0
M  V30 4 C 10.044608 8.189478 -8.417203 0
M  V30 5 O 9.437953 7.695213 -9.591976 0
M  V30 6 H 11.478466 7.032442 -4.362071 0
M  V30 7 H 10.022231 6.173524 -4.864595 0
M  V30 8 H 11.583866 5.794363 -5.613775 0
M  V30 9 H 9.046657 6.809641 -7.079019 0
M  V30 10 H 10.577521 6.211391 -7.714705 0
M  V30 11 H 11.058984 8.516229 -8.649233 0
M  V30 12 H 9.491882 9.061226 -8.066756 0
M  V30 13 H 8.493386 7.769350 -9.498660 0
M  V30 END ATOM
M  V30 BEGIN BOND
M  V30 1 1 2 1
M  V30 2 1 3 2
M  V30 3 1 4 3
M  V30 4 1 5 4
M  V30 5 1 6 1
M  V30 6 1 7 1
M  V30 7 1 8 1
M  V30 8 1 9 3
M  V30 9 1 10 3
M  V30 10 1 11 4
M  V30 11 1 12 4
M  V30 12 1 13 5
M  V30 END BOND
M  V30 END CTAB
M  END
>  <i_epik_Tot_Q>  (1) 
0

>  <i_epik_Tot_abs_Q>  (1) 
0

>  <i_i_glide_confnum>  (1) 
1

>  <i_i_glide_lignum>  (1) 
95

>  <i_i_glide_posenum>  (1) 
243

>  <i_i_glide_rotatable_bonds>  (1) 
3

>  <i_lp_mmshare_version>  (1) 
72125

>  <i_m_source_file_index>  (1) 
89

>  <i_f3d_flags>  (1) 
0

>  <num_sample>  (1) 
100

>  <b_lp_Chiralities_Consistent>  (1) 
1

>  <r_epik_Charging_Adjusted_Penalty>  (1) 
0

>  <r_epik_Ionization_Penalty>  (1) 
5.5888793446441707e-08

>  <r_epik_Ionization_Penalty_Charging>  (1) 
0

>  <r_epik_Ionization_Penalty_Neutral>  (1) 
5.5888793446441707e-08

>  <r_epik_State_Penalty>  (1) 
-0

>  <r_glide_ring_energy>  (1) 
0

>  <r_i_docking_score>  (1) 
-2.3031613387652534

>  <r_i_glide_ecoul>  (1) 
-7.2963625234308349

>  <r_i_glide_eff_state_penalty>  (1) 
-0

>  <r_i_glide_einternal>  (1) 
0.5181525098330878

>  <r_i_glide_emodel>  (1) 
-16.517859929784215

>  <r_i_glide_emodel_strain>  (1) 
0.046519515896317087

>  <r_i_glide_energy>  (1) 
-14.306626453775882

>  <r_i_glide_erotb>  (1) 
1.8283304104302178

>  <r_i_glide_esite>  (1) 
0

>  <r_i_glide_evdw>  (1) 
-7.0102639303450474

>  <r_i_glide_gscore>  (1) 
-2.3031613387652534

>  <r_i_glide_gscore_strain>  (1) 
0

>  <r_i_glide_hbond>  (1) 
-0.16

>  <r_i_glide_ligand_efficiency>  (1) 
-0.46063226775305066

>  <r_i_glide_ligand_efficiency_ln>  (1) 
-0.88262737649000034

>  <r_i_glide_ligand_efficiency_sa>  (1) 
-0.78767009812085664

>  <r_i_glide_lipo>  (1) 
-0.27652417416359382

>  <r_i_glide_metal>  (1) 
-0

>  <r_i_glide_rewards>  (1) 
-2.25

>  <r_lp_Energy>  (1) 
3.749654

>  <r_lp_tautomer_probability>  (1) 
1

>  <s_epik_cmdline>  (1) 
J2VwaWtfcHl0aG9uJywgJy1waHQnLCAnMS4wJywgJy1waCcsICc3LjQnLCAnLXRuJywgJzgnLCAnLW1hJywgJzUwMCcsICctaW1hZScsICc8aW5maWxlLm1hZT4nLCAnLW9tYWUnLCAnPG91dGZpbGUubWFlPic=

>  <s_epik_input>  (1) 
W0NIM11PW0NIMl1bQ0gyXVtPSF0=

>  <s_glide_docking_method>  (1) 
confgen

>  <s_i_glide_gridfile>  (1) 
gpcr_drd2_6luq_protein_autoprepared_prepared

>  <s_lp_Force_Field>  (1) 
S-OPLS

>  <s_lp_Variant>  (1) 
Pocket2Mol_88_num_sample_100-1

>  <s_m_source_file>  (1) 
generated__ligand_Pocket2Mol_2026-05-06_prepared.sdf

>  <GenAI_Model>  (1) 
Pocket2Mol

>  <Protein>  (1) 
generic_title2

$$$$
Pocket2Mol_88_num_sample_100
     RDKit          3D

  0  0  0  0  0  0  0  0  0  0999 V3000
M  V30 BEGIN CTAB
M  V30 COUNTS 13 12 0 0 1
M  V30 BEGIN ATOM
M  V30 1 C 9.203856 7.291761 -6.903552 0
M  V30 2 O 10.285700 8.165552 -7.178652 0
M  V30 3 C 11.269050 7.575149 -8.013175 0
M  V30 4 C 12.319487 8.644305 -8.330217 0
M  V30 5 O 13.295803 8.169302 -9.233996 0
M  V30 6 H 8.467337 7.811637 -6.291670 0
M  V30 7 H 8.707545 6.969305 -7.819901 0
M  V30 8 H 9.537133 6.408765 -6.356758 0
M  V30 9 H 10.812522 7.213738 -8.936374 0
M  V30 10 H 11.725991 6.722782 -7.507760 0
M  V30 11 H 12.811970 8.969301 -7.413813 0
M  V30 12 H 11.834838 9.516067 -8.771350 0
M  V30 13 H 13.834842 8.907490 -9.491669 0
M  V30 END ATOM
M  V30 BEGIN BOND
M  V30 1 1 2 1
M  V30 2 1 3 2
M  V30 3 1 4 3
M  V30 4 1 5 4
M  V30 5 1 6 1
M  V30 6 1 7 1
M  V30 7 1 8 1
M  V30 8 1 9 3
M  V30 9 1 10 3
M  V30 10 1 11 4
M  V30 11 1 12 4
M  V30 12 1 13 5
M  V30 END BOND
M  V30 END CTAB
M  END
>  <i_epik_Tot_Q>  (1) 
0

>  <i_epik_Tot_abs_Q>  (1) 
0

>  <i_i_glide_confnum>  (1) 
1

>  <i_i_glide_lignum>  (1) 
95

>  <i_i_glide_posenum>  (1) 
388

>  <i_i_glide_rotatable_bonds>  (1) 
3

>  <i_lp_mmshare_version>  (1) 
72125

>  <i_m_source_file_index>  (1) 
89

>  <i_f3d_flags>  (1) 
0

>  <num_sample>  (1) 
100

>  <b_lp_Chiralities_Consistent>  (1) 
1

>  <r_epik_Charging_Adjusted_Penalty>  (1) 
0

>  <r_epik_Ionization_Penalty>  (1) 
5.5888793446441707e-08

>  <r_epik_Ionization_Penalty_Charging>  (1) 
0

>  <r_epik_Ionization_Penalty_Neutral>  (1) 
5.5888793446441707e-08

>  <r_epik_State_Penalty>  (1) 
-0

>  <r_glide_ring_energy>  (1) 
0

>  <r_i_docking_score>  (1) 
-2.2393126293193051

>  <r_i_glide_ecoul>  (1) 
-3.794789333225963

>  <r_i_glide_eff_state_penalty>  (1) 
-0

>  <r_i_glide_einternal>  (1) 
0.40831622464592432

>  <r_i_glide_emodel>  (1) 
-16.191794208952018

>  <r_i_glide_emodel_strain>  (1) 
0

>  <r_i_glide_energy>  (1) 
-13.948895129324896

>  <r_i_glide_erotb>  (1) 
1.8283304104302178

>  <r_i_glide_esite>  (1) 
0

>  <r_i_glide_evdw>  (1) 
-10.154105796098932

>  <r_i_glide_gscore>  (1) 
-2.2393126293193051

>  <r_i_glide_gscore_strain>  (1) 
0

>  <r_i_glide_hbond>  (1) 
-0.2636865834271046

>  <r_i_glide_ligand_efficiency>  (1) 
-0.44786252586386099

>  <r_i_glide_ligand_efficiency_ln>  (1) 
-0.85815899993208111

>  <r_i_glide_ligand_efficiency_sa>  (1) 
-0.76583414664507243

>  <r_i_glide_lipo>  (1) 
-0.47703276653357735

>  <r_i_glide_metal>  (1) 
-0

>  <r_i_glide_rewards>  (1) 
-2.25

>  <r_lp_Energy>  (1) 
3.749654

>  <r_lp_tautomer_probability>  (1) 
1

>  <s_epik_cmdline>  (1) 
J2VwaWtfcHl0aG9uJywgJy1waHQnLCAnMS4wJywgJy1waCcsICc3LjQnLCAnLXRuJywgJzgnLCAnLW1hJywgJzUwMCcsICctaW1hZScsICc8aW5maWxlLm1hZT4nLCAnLW9tYWUnLCAnPG91dGZpbGUubWFlPic=

>  <s_epik_input>  (1) 
W0NIM11PW0NIMl1bQ0gyXVtPSF0=

>  <s_glide_docking_method>  (1) 
confgen

>  <s_i_glide_gridfile>  (1) 
gpcr_drd2_6luq_protein_autoprepared_prepared

>  <s_lp_Force_Field>  (1) 
S-OPLS

>  <s_lp_Variant>  (1) 
Pocket2Mol_88_num_sample_100-1

>  <s_m_source_file>  (1) 
generated__ligand_Pocket2Mol_2026-05-06_prepared.sdf

>  <GenAI_Model>  (1) 
Pocket2Mol

>  <Protein>  (1) 
generic_title2

$$$$
Pocket2Mol_3_num_sample_100
     RDKit          3D

  0  0  0  0  0  0  0  0  0  0999 V3000
M  V30 BEGIN CTAB
M  V30 COUNTS 11 10 0 0 1
M  V30 BEGIN ATOM
M  V30 1 C 12.341090 8.898652 -2.929015 0
M  V30 2 O 12.072819 8.548130 -4.274733 0
M  V30 3 C 11.459309 9.424699 -5.084255 0
M  V30 4 C 11.330317 8.921745 -6.513360 0
M  V30 5 O 11.034839 10.526907 -4.742993 0
M  V30 6 H 12.838867 8.072775 -2.420358 0
M  V30 7 H 11.421098 9.125055 -2.393237 0
M  V30 8 H 12.996380 9.768343 -2.883142 0
M  V30 9 H 11.763182 7.927024 -6.618141 0
M  V30 10 H 10.280063 8.875400 -6.798715 0
M  V30 11 H 11.845472 9.597971 -7.194402 0
M  V30 END ATOM
M  V30 BEGIN BOND
M  V30 1 1 2 1
M  V30 2 1 3 2
M  V30 3 1 4 3
M  V30 4 2 5 3
M  V30 5 1 6 1
M  V30 6 1 7 1
M  V30 7 1 8 1
M  V30 8 1 9 4
M  V30 9 1 10 4
M  V30 10 1 11 4
M  V30 END BOND
M  V30 END CTAB
M  END
>  <i_epik_Tot_Q>  (1) 
0

>  <i_epik_Tot_abs_Q>  (1) 
0

>  <i_i_glide_confnum>  (1) 
1

>  <i_i_glide_lignum>  (1) 
4

>  <i_i_glide_posenum>  (1) 
200

>  <i_i_glide_rotatable_bonds>  (1) 
1

>  <i_lp_mmshare_version>  (1) 
72125

>  <i_m_source_file_index>  (1) 
4

>  <i_f3d_flags>  (1) 
0

>  <num_sample>  (1) 
100

>  <b_lp_Chiralities_Consistent>  (1) 
1

>  <r_epik_Charging_Adjusted_Penalty>  (1) 
0

>  <r_epik_Ionization_Penalty>  (1) 
0

>  <r_epik_Ionization_Penalty_Charging>  (1) 
0

>  <r_epik_Ionization_Penalty_Neutral>  (1) 
0

>  <r_epik_State_Penalty>  (1) 
-0

>  <r_glide_ring_energy>  (1) 
0

>  <r_i_docking_score>  (1) 
-2.1704930607515194

>  <r_i_glide_ecoul>  (1) 
-0.63786591206319765

>  <r_i_glide_eff_state_penalty>  (1) 
-0

>  <r_i_glide_einternal>  (1) 
0.053829142843622724

>  <r_i_glide_emodel>  (1) 
-16.171052754750413

>  <r_i_glide_emodel_strain>  (1) 
0

>  <r_i_glide_energy>  (1) 
-14.110392642351094

>  <r_i_glide_erotb>  (1) 
1.8998339649575009

>  <r_i_glide_esite>  (1) 
0

>  <r_i_glide_evdw>  (1) 
-13.472526730287896

>  <r_i_glide_gscore>  (1) 
-2.1704930607515194

>  <r_i_glide_gscore_strain>  (1) 
0

>  <r_i_glide_hbond>  (1) 
0

>  <r_i_glide_ligand_efficiency>  (1) 
-0.43409861215030388

>  <r_i_glide_ligand_efficiency_ln>  (1) 
-0.83178566939991661

>  <r_i_glide_ligand_efficiency_sa>  (1) 
-0.74229818526275615

>  <r_i_glide_lipo>  (1) 
-0.60108939519001248

>  <r_i_glide_metal>  (1) 
-0

>  <r_i_glide_rewards>  (1) 
-2.699931407195133

>  <r_lp_Energy>  (1) 
-0.092308000000000001

>  <r_lp_tautomer_probability>  (1) 
1

>  <s_epik_Chemistry_Notes>  (1) 
This compound has an ester and may undergo hydrolysis at high or low pH.

>  <s_epik_cmdline>  (1) 
J2VwaWtfcHl0aG9uJywgJy1waHQnLCAnMS4wJywgJy1waCcsICc3LjQnLCAnLXRuJywgJzgnLCAnLW1hJywgJzUwMCcsICctaW1hZScsICc8aW5maWxlLm1hZT4nLCAnLW9tYWUnLCAnPG91dGZpbGUubWFlPic=

>  <s_epik_input>  (1) 
W0NIM11PQyg9TylbQ0gzXQ==

>  <s_glide_docking_method>  (1) 
confgen

>  <s_i_glide_gridfile>  (1) 
gpcr_drd2_6luq_protein_autoprepared_prepared

>  <s_lp_Force_Field>  (1) 
S-OPLS

>  <s_lp_Variant>  (1) 
Pocket2Mol_3_num_sample_100-1

>  <s_m_source_file>  (1) 
generated__ligand_Pocket2Mol_2026-05-06_prepared.sdf

>  <GenAI_Model>  (1) 
Pocket2Mol

>  <Protein>  (1) 
generic_title2

$$$$
Pocket2Mol_88_num_sample_100
     RDKit          3D

  0  0  0  0  0  0  0  0  0  0999 V3000
M  V30 BEGIN CTAB
M  V30 COUNTS 13 12 0 0 1
M  V30 BEGIN ATOM
M  V30 1 C 10.956718 6.604026 -5.338305 0
M  V30 2 O 10.344091 7.566653 -6.183170 0
M  V30 3 C 9.254690 7.048503 -6.938940 0
M  V30 4 C 9.733663 6.302595 -8.197069 0
M  V30 5 O 8.634839 5.769299 -8.906938 0
M  V30 6 H 11.730247 7.083541 -4.738585 0
M  V30 7 H 10.229947 6.169461 -4.650680 0
M  V30 8 H 11.426784 5.801919 -5.908536 0
M  V30 9 H 8.634839 7.893114 -7.240155 0
M  V30 10 H 8.623208 6.411143 -6.317825 0
M  V30 11 H 10.400314 5.480000 -7.940144 0
M  V30 12 H 10.286740 6.976603 -8.851758 0
M  V30 13 H 8.011372 6.473981 -9.090654 0
M  V30 END ATOM
M  V30 BEGIN BOND
M  V30 1 1 2 1
M  V30 2 1 3 2
M  V30 3 1 4 3
M  V30 4 1 5 4
M  V30 5 1 6 1
M  V30 6 1 7 1
M  V30 7 1 8 1
M  V30 8 1 9 3
M  V30 9 1 10 3
M  V30 10 1 11 4
M  V30 11 1 12 4
M  V30 12 1 13 5
M  V30 END BOND
M  V30 END CTAB
M  END
>  <i_epik_Tot_Q>  (1) 
0

>  <i_epik_Tot_abs_Q>  (1) 
0

>  <i_i_glide_confnum>  (1) 
1

>  <i_i_glide_lignum>  (1) 
95

>  <i_i_glide_posenum>  (1) 
177

>  <i_i_glide_rotatable_bonds>  (1) 
3

>  <i_lp_mmshare_version>  (1) 
72125

>  <i_m_source_file_index>  (1) 
89

>  <i_f3d_flags>  (1) 
0

>  <num_sample>  (1) 
100

>  <b_lp_Chiralities_Consistent>  (1) 
1

>  <r_epik_Charging_Adjusted_Penalty>  (1) 
0

>  <r_epik_Ionization_Penalty>  (1) 
5.5888793446441707e-08

>  <r_epik_Ionization_Penalty_Charging>  (1) 
0

>  <r_epik_Ionization_Penalty_Neutral>  (1) 
5.5888793446441707e-08

>  <r_epik_State_Penalty>  (1) 
-0

>  <r_glide_ring_energy>  (1) 
0

>  <r_i_docking_score>  (1) 
-1.9770047417697267

>  <r_i_glide_ecoul>  (1) 
-4.0260446521332094

>  <r_i_glide_eff_state_penalty>  (1) 
-0

>  <r_i_glide_einternal>  (1) 
1.0055724466757523

>  <r_i_glide_emodel>  (1) 
-15.902336273938092

>  <r_i_glide_emodel_strain>  (1) 
0

>  <r_i_glide_energy>  (1) 
-14.244707909100484

>  <r_i_glide_erotb>  (1) 
1.8283304104302178

>  <r_i_glide_esite>  (1) 
0

>  <r_i_glide_evdw>  (1) 
-10.218663256967275

>  <r_i_glide_gscore>  (1) 
-1.9770047417697267

>  <r_i_glide_gscore_strain>  (1) 
0

>  <r_i_glide_hbond>  (1) 
-0.16

>  <r_i_glide_ligand_efficiency>  (1) 
-0.39540094835394535

>  <r_i_glide_ligand_efficiency_ln>  (1) 
-0.75763624508910576

>  <r_i_glide_ligand_efficiency_sa>  (1) 
-0.67612611097840147

>  <r_i_glide_lipo>  (1) 
-0.28049529153159974

>  <r_i_glide_metal>  (1) 
-0

>  <r_i_glide_rewards>  (1) 
-2.25

>  <r_lp_Energy>  (1) 
3.749654

>  <r_lp_tautomer_probability>  (1) 
1

>  <s_epik_cmdline>  (1) 
J2VwaWtfcHl0aG9uJywgJy1waHQnLCAnMS4wJywgJy1waCcsICc3LjQnLCAnLXRuJywgJzgnLCAnLW1hJywgJzUwMCcsICctaW1hZScsICc8aW5maWxlLm1hZT4nLCAnLW9tYWUnLCAnPG91dGZpbGUubWFlPic=

>  <s_epik_input>  (1) 
W0NIM11PW0NIMl1bQ0gyXVtPSF0=

>  <s_glide_docking_method>  (1) 
confgen

>  <s_i_glide_gridfile>  (1) 
gpcr_drd2_6luq_protein_autoprepared_prepared

>  <s_lp_Force_Field>  (1) 
S-OPLS

>  <s_lp_Variant>  (1) 
Pocket2Mol_88_num_sample_100-1

>  <s_m_source_file>  (1) 
generated__ligand_Pocket2Mol_2026-05-06_prepared.sdf

>  <GenAI_Model>  (1) 
Pocket2Mol

>  <Protein>  (1) 
generic_title2

$$$$
Pocket2Mol_3_num_sample_100
     RDKit          3D

  0  0  0  0  0  0  0  0  0  0999 V3000
M  V30 BEGIN CTAB
M  V30 COUNTS 11 10 0 0 1
M  V30 BEGIN ATOM
M  V30 1 C 9.434840 7.144474 -7.165286 0
M  V30 2 O 9.923189 8.148297 -6.291552 0
M  V30 3 C 11.105737 8.726248 -6.538798 0
M  V30 4 C 11.486578 9.769043 -5.495407 0
M  V30 5 O 11.835415 8.468437 -7.495829 0
M  V30 6 H 8.514973 6.721157 -6.762364 0
M  V30 7 H 10.157303 6.335101 -7.278638 0
M  V30 8 H 9.215143 7.559872 -8.149651 0
M  V30 9 H 10.634868 10.022718 -4.864983 0
M  V30 10 H 12.286860 9.389216 -4.860540 0
M  V30 11 H 11.834842 10.678751 -5.984347 0
M  V30 END ATOM
M  V30 BEGIN BOND
M  V30 1 1 2 1
M  V30 2 1 3 2
M  V30 3 1 4 3
M  V30 4 2 5 3
M  V30 5 1 6 1
M  V30 6 1 7 1
M  V30 7 1 8 1
M  V30 8 1 9 4
M  V30 9 1 10 4
M  V30 10 1 11 4
M  V30 END BOND
M  V30 END CTAB
M  END
>  <i_epik_Tot_Q>  (1) 
0

>  <i_epik_Tot_abs_Q>  (1) 
0

>  <i_i_glide_confnum>  (1) 
1

>  <i_i_glide_lignum>  (1) 
4

>  <i_i_glide_posenum>  (1) 
371

>  <i_i_glide_rotatable_bonds>  (1) 
1

>  <i_lp_mmshare_version>  (1) 
72125

>  <i_m_source_file_index>  (1) 
4

>  <i_f3d_flags>  (1) 
0

>  <num_sample>  (1) 
100

>  <b_lp_Chiralities_Consistent>  (1) 
1

>  <r_epik_Charging_Adjusted_Penalty>  (1) 
0

>  <r_epik_Ionization_Penalty>  (1) 
0

>  <r_epik_Ionization_Penalty_Charging>  (1) 
0

>  <r_epik_Ionization_Penalty_Neutral>  (1) 
0

>  <r_epik_State_Penalty>  (1) 
-0

>  <r_glide_ring_energy>  (1) 
0

>  <r_i_docking_score>  (1) 
-1.8145385404131871

>  <r_i_glide_ecoul>  (1) 
-0.64914004655933188

>  <r_i_glide_eff_state_penalty>  (1) 
-0

>  <r_i_glide_einternal>  (1) 
0.0037604901475933872

>  <r_i_glide_emodel>  (1) 
-15.49619740426618

>  <r_i_glide_emodel_strain>  (1) 
0.033977792489388481

>  <r_i_glide_energy>  (1) 
-13.786836906796248

>  <r_i_glide_erotb>  (1) 
1.8998339649575009

>  <r_i_glide_esite>  (1) 
0

>  <r_i_glide_evdw>  (1) 
-13.137696860236916

>  <r_i_glide_gscore>  (1) 
-1.8145385404131871

>  <r_i_glide_gscore_strain>  (1) 
0

>  <r_i_glide_hbond>  (1) 
0

>  <r_i_glide_ligand_efficiency>  (1) 
-0.36290770808263739

>  <r_i_glide_ligand_efficiency_ln>  (1) 
-0.69537524988305766

>  <r_i_glide_ligand_efficiency_sa>  (1) 
-0.62056345168487836

>  <r_i_glide_lipo>  (1) 
-0.33000000000000002

>  <r_i_glide_metal>  (1) 
-0

>  <r_i_glide_rewards>  (1) 
-2.6301166553749424

>  <r_lp_Energy>  (1) 
-0.092308000000000001

>  <r_lp_tautomer_probability>  (1) 
1

>  <s_epik_Chemistry_Notes>  (1) 
This compound has an ester and may undergo hydrolysis at high or low pH.

>  <s_epik_cmdline>  (1) 
J2VwaWtfcHl0aG9uJywgJy1waHQnLCAnMS4wJywgJy1waCcsICc3LjQnLCAnLXRuJywgJzgnLCAnLW1hJywgJzUwMCcsICctaW1hZScsICc8aW5maWxlLm1hZT4nLCAnLW9tYWUnLCAnPG91dGZpbGUubWFlPic=

>  <s_epik_input>  (1) 
W0NIM11PQyg9TylbQ0gzXQ==

>  <s_glide_docking_method>  (1) 
confgen

>  <s_i_glide_gridfile>  (1) 
gpcr_drd2_6luq_protein_autoprepared_prepared

>  <s_lp_Force_Field>  (1) 
S-OPLS

>  <s_lp_Variant>  (1) 
Pocket2Mol_3_num_sample_100-1

>  <s_m_source_file>  (1) 
generated__ligand_Pocket2Mol_2026-05-06_prepared.sdf

>  <GenAI_Model>  (1) 
Pocket2Mol

>  <Protein>  (1) 
generic_title2

$$$$
Pocket2Mol_3_num_sample_100
     RDKit          3D

  0  0  0  0  0  0  0  0  0  0999 V3000
M  V30 BEGIN CTAB
M  V30 COUNTS 11 10 0 0 1
M  V30 BEGIN ATOM
M  V30 1 C 9.834839 8.157620 -8.559607 0
M  V30 2 O 10.275364 7.268514 -7.547427 0
M  V30 3 C 10.664949 7.760875 -6.362714 0
M  V30 4 C 11.030802 6.672934 -5.359990 0
M  V30 5 O 10.732178 8.959342 -6.077787 0
M  V30 6 H 9.466302 7.596597 -9.420475 0
M  V30 7 H 10.649972 8.803877 -8.890891 0
M  V30 8 H 9.022597 8.787197 -8.190768 0
M  V30 9 H 11.517112 5.824334 -5.849181 0
M  V30 10 H 11.694166 7.070382 -4.591341 0
M  V30 11 H 10.125703 6.304921 -4.875973 0
M  V30 END ATOM
M  V30 BEGIN BOND
M  V30 1 1 2 1
M  V30 2 1 3 2
M  V30 3 1 4 3
M  V30 4 2 5 3
M  V30 5 1 6 1
M  V30 6 1 7 1
M  V30 7 1 8 1
M  V30 8 1 9 4
M  V30 9 1 10 4
M  V30 10 1 11 4
M  V30 END BOND
M  V30 END CTAB
M  END
>  <i_epik_Tot_Q>  (1) 
0

>  <i_epik_Tot_abs_Q>  (1) 
0

>  <i_i_glide_confnum>  (1) 
1

>  <i_i_glide_lignum>  (1) 
4

>  <i_i_glide_posenum>  (1) 
349

>  <i_i_glide_rotatable_bonds>  (1) 
1

>  <i_lp_mmshare_version>  (1) 
72125

>  <i_m_source_file_index>  (1) 
4

>  <i_f3d_flags>  (1) 
0

>  <num_sample>  (1) 
100

>  <b_lp_Chiralities_Consistent>  (1) 
1

>  <r_epik_Charging_Adjusted_Penalty>  (1) 
0

>  <r_epik_Ionization_Penalty>  (1) 
0

>  <r_epik_Ionization_Penalty_Charging>  (1) 
0

>  <r_epik_Ionization_Penalty_Neutral>  (1) 
0

>  <r_epik_State_Penalty>  (1) 
-0

>  <r_glide_ring_energy>  (1) 
0

>  <r_i_docking_score>  (1) 
-1.7389337920678534

>  <r_i_glide_ecoul>  (1) 
-1.128555012992333

>  <r_i_glide_eff_state_penalty>  (1) 
-0

>  <r_i_glide_einternal>  (1) 
0.010603655790535349

>  <r_i_glide_emodel>  (1) 
-14.933908090555128

>  <r_i_glide_emodel_strain>  (1) 
0.0034212648554499125

>  <r_i_glide_energy>  (1) 
-13.270129102186541

>  <r_i_glide_erotb>  (1) 
1.8998339649575009

>  <r_i_glide_esite>  (1) 
0

>  <r_i_glide_evdw>  (1) 
-12.141574089194208

>  <r_i_glide_gscore>  (1) 
-1.7389337920678534

>  <r_i_glide_gscore_strain>  (1) 
0

>  <r_i_glide_hbond>  (1) 
0

>  <r_i_glide_ligand_efficiency>  (1) 
-0.34778675841357065

>  <r_i_glide_ligand_efficiency_ln>  (1) 
-0.6664016736254762

>  <r_i_glide_ligand_efficiency_sa>  (1) 
-0.59470699145986528

>  <r_i_glide_lipo>  (1) 
-0.31158173365495728

>  <r_i_glide_metal>  (1) 
-0

>  <r_i_glide_rewards>  (1) 
-2.5508240669618365

>  <r_lp_Energy>  (1) 
-0.092308000000000001

>  <r_lp_tautomer_probability>  (1) 
1

>  <s_epik_Chemistry_Notes>  (1) 
This compound has an ester and may undergo hydrolysis at high or low pH.

>  <s_epik_cmdline>  (1) 
J2VwaWtfcHl0aG9uJywgJy1waHQnLCAnMS4wJywgJy1waCcsICc3LjQnLCAnLXRuJywgJzgnLCAnLW1hJywgJzUwMCcsICctaW1hZScsICc8aW5maWxlLm1hZT4nLCAnLW9tYWUnLCAnPG91dGZpbGUubWFlPic=

>  <s_epik_input>  (1) 
W0NIM11PQyg9TylbQ0gzXQ==

>  <s_glide_docking_method>  (1) 
confgen

>  <s_i_glide_gridfile>  (1) 
gpcr_drd2_6luq_protein_autoprepared_prepared

>  <s_lp_Force_Field>  (1) 
S-OPLS

>  <s_lp_Variant>  (1) 
Pocket2Mol_3_num_sample_100-1

>  <s_m_source_file>  (1) 
generated__ligand_Pocket2Mol_2026-05-06_prepared.sdf

>  <GenAI_Model>  (1) 
Pocket2Mol

>  <Protein>  (1) 
generic_title2

$$$$
Pocket2Mol_3_num_sample_100
     RDKit          3D

  0  0  0  0  0  0  0  0  0  0999 V3000
M  V30 BEGIN CTAB
M  V30 COUNTS 11 10 0 0 1
M  V30 BEGIN ATOM
M  V30 1 C 9.434899 7.122297 -7.091640 0
M  V30 2 O 10.474003 7.229477 -8.049191 0
M  V30 3 C 11.418460 8.169301 -7.893282 0
M  V30 4 C 12.434666 8.175937 -9.027740 0
M  V30 5 O 11.500228 8.963158 -6.956206 0
M  V30 6 H 8.758044 6.313859 -7.367717 0
M  V30 7 H 8.857979 8.046457 -7.038601 0
M  V30 8 H 9.838828 6.905386 -6.101938 0
M  V30 9 H 12.203112 7.406527 -9.764640 0
M  V30 10 H 12.433116 9.144587 -9.527370 0
M  V30 11 H 13.434919 7.990103 -8.636746 0
M  V30 END ATOM
M  V30 BEGIN BOND
M  V30 1 1 2 1
M  V30 2 1 3 2
M  V30 3 1 4 3
M  V30 4 2 5 3
M  V30 5 1 6 1
M  V30 6 1 7 1
M  V30 7 1 8 1
M  V30 8 1 9 4
M  V30 9 1 10 4
M  V30 10 1 11 4
M  V30 END BOND
M  V30 END CTAB
M  END
>  <i_epik_Tot_Q>  (1) 
0

>  <i_epik_Tot_abs_Q>  (1) 
0

>  <i_i_glide_confnum>  (1) 
1

>  <i_i_glide_lignum>  (1) 
4

>  <i_i_glide_posenum>  (1) 
386

>  <i_i_glide_rotatable_bonds>  (1) 
1

>  <i_lp_mmshare_version>  (1) 
72125

>  <i_m_source_file_index>  (1) 
4

>  <i_f3d_flags>  (1) 
0

>  <num_sample>  (1) 
100

>  <b_lp_Chiralities_Consistent>  (1) 
1

>  <r_epik_Charging_Adjusted_Penalty>  (1) 
0

>  <r_epik_Ionization_Penalty>  (1) 
0

>  <r_epik_Ionization_Penalty_Charging>  (1) 
0

>  <r_epik_Ionization_Penalty_Neutral>  (1) 
0

>  <r_epik_State_Penalty>  (1) 
-0

>  <r_glide_ring_energy>  (1) 
0

>  <r_i_docking_score>  (1) 
-1.6387840979836543

>  <r_i_glide_ecoul>  (1) 
-0.89171088780059515

>  <r_i_glide_eff_state_penalty>  (1) 
-0

>  <r_i_glide_einternal>  (1) 
0.010065750954800001

>  <r_i_glide_emodel>  (1) 
-14.635506012848676

>  <r_i_glide_emodel_strain>  (1) 
0

>  <r_i_glide_energy>  (1) 
-13.064360527260598

>  <r_i_glide_erotb>  (1) 
1.8998339649575009

>  <r_i_glide_esite>  (1) 
0

>  <r_i_glide_evdw>  (1) 
-12.172649639460003

>  <r_i_glide_gscore>  (1) 
-1.6387840979836543

>  <r_i_glide_gscore_strain>  (1) 
0

>  <r_i_glide_hbond>  (1) 
0

>  <r_i_glide_ligand_efficiency>  (1) 
-0.32775681959673086

>  <r_i_glide_ligand_efficiency_ln>  (1) 
-0.62802187788211672

>  <r_i_glide_ligand_efficiency_sa>  (1) 
-0.56045627786966323

>  <r_i_glide_lipo>  (1) 
-0.26673466385848521

>  <r_i_glide_metal>  (1) 
-0

>  <r_i_glide_rewards>  (1) 
-2.5294942839395804

>  <r_lp_Energy>  (1) 
-0.092308000000000001

>  <r_lp_tautomer_probability>  (1) 
1

>  <s_epik_Chemistry_Notes>  (1) 
This compound has an ester and may undergo hydrolysis at high or low pH.

>  <s_epik_cmdline>  (1) 
J2VwaWtfcHl0aG9uJywgJy1waHQnLCAnMS4wJywgJy1waCcsICc3LjQnLCAnLXRuJywgJzgnLCAnLW1hJywgJzUwMCcsICctaW1hZScsICc8aW5maWxlLm1hZT4nLCAnLW9tYWUnLCAnPG91dGZpbGUubWFlPic=

>  <s_epik_input>  (1) 
W0NIM11PQyg9TylbQ0gzXQ==

>  <s_glide_docking_method>  (1) 
confgen

>  <s_i_glide_gridfile>  (1) 
gpcr_drd2_6luq_protein_autoprepared_prepared

>  <s_lp_Force_Field>  (1) 
S-OPLS

>  <s_lp_Variant>  (1) 
Pocket2Mol_3_num_sample_100-1

>  <s_m_source_file>  (1) 
generated__ligand_Pocket2Mol_2026-05-06_prepared.sdf

>  <GenAI_Model>  (1) 
Pocket2Mol

>  <Protein>  (1) 
generic_title2

$$$$
Pocket2Mol_3_num_sample_100
     RDKit          3D

  0  0  0  0  0  0  0  0  0  0999 V3000
M  V30 BEGIN CTAB
M  V30 COUNTS 11 10 0 0 1
M  V30 BEGIN ATOM
M  V30 1 C 11.519215 9.769301 -5.458791 0
M  V30 2 O 10.634840 8.751983 -5.891667 0
M  V30 3 C 10.879156 8.111069 -7.045376 0
M  V30 4 C 9.834824 7.051718 -7.368502 0
M  V30 5 O 11.836991 8.328703 -7.788030 0
M  V30 6 H 11.172634 10.181060 -4.510915 0
M  V30 7 H 11.564731 10.580925 -6.185846 0
M  V30 8 H 12.525789 9.375205 -5.311967 0
M  V30 9 H 9.067393 7.009511 -6.594767 0
M  V30 10 H 9.346442 7.279529 -8.316358 0
M  V30 11 H 10.302035 6.070267 -7.445882 0
M  V30 END ATOM
M  V30 BEGIN BOND
M  V30 1 1 2 1
M  V30 2 1 3 2
M  V30 3 1 4 3
M  V30 4 2 5 3
M  V30 5 1 6 1
M  V30 6 1 7 1
M  V30 7 1 8 1
M  V30 8 1 9 4
M  V30 9 1 10 4
M  V30 10 1 11 4
M  V30 END BOND
M  V30 END CTAB
M  END
>  <i_epik_Tot_Q>  (1) 
0

>  <i_epik_Tot_abs_Q>  (1) 
0

>  <i_i_glide_confnum>  (1) 
2

>  <i_i_glide_lignum>  (1) 
4

>  <i_i_glide_posenum>  (1) 
126

>  <i_i_glide_rotatable_bonds>  (1) 
1

>  <i_lp_mmshare_version>  (1) 
72125

>  <i_m_source_file_index>  (1) 
4

>  <i_f3d_flags>  (1) 
0

>  <num_sample>  (1) 
100

>  <b_lp_Chiralities_Consistent>  (1) 
1

>  <r_epik_Charging_Adjusted_Penalty>  (1) 
0

>  <r_epik_Ionization_Penalty>  (1) 
0

>  <r_epik_Ionization_Penalty_Charging>  (1) 
0

>  <r_epik_Ionization_Penalty_Neutral>  (1) 
0

>  <r_epik_State_Penalty>  (1) 
-0

>  <r_glide_ring_energy>  (1) 
0

>  <r_i_docking_score>  (1) 
-1.6193662600179801

>  <r_i_glide_ecoul>  (1) 
-0.41072486599482338

>  <r_i_glide_eff_state_penalty>  (1) 
-0

>  <r_i_glide_einternal>  (1) 
0.00031684020704747518

>  <r_i_glide_emodel>  (1) 
-15.2758371663028

>  <r_i_glide_emodel_strain>  (1) 
0

>  <r_i_glide_energy>  (1) 
-13.718493252315863

>  <r_i_glide_erotb>  (1) 
1.8998339649575009

>  <r_i_glide_esite>  (1) 
0

>  <r_i_glide_evdw>  (1) 
-13.30776838632104

>  <r_i_glide_gscore>  (1) 
-1.6193662600179801

>  <r_i_glide_gscore_strain>  (1) 
0

>  <r_i_glide_hbond>  (1) 
0

>  <r_i_glide_ligand_efficiency>  (1) 
-0.32387325200359601

>  <r_i_glide_ligand_efficiency_ln>  (1) 
-0.62058049064958398

>  <r_i_glide_ligand_efficiency_sa>  (1) 
-0.55381547069810955

>  <r_i_glide_lipo>  (1) 
-0.33000000000000002

>  <r_i_glide_metal>  (1) 
-0

>  <r_i_glide_rewards>  (1) 
-2.4622030757602054

>  <r_lp_Energy>  (1) 
-0.092308000000000001

>  <r_lp_tautomer_probability>  (1) 
1

>  <s_epik_Chemistry_Notes>  (1) 
This compound has an ester and may undergo hydrolysis at high or low pH.

>  <s_epik_cmdline>  (1) 
J2VwaWtfcHl0aG9uJywgJy1waHQnLCAnMS4wJywgJy1waCcsICc3LjQnLCAnLXRuJywgJzgnLCAnLW1hJywgJzUwMCcsICctaW1hZScsICc8aW5maWxlLm1hZT4nLCAnLW9tYWUnLCAnPG91dGZpbGUubWFlPic=

>  <s_epik_input>  (1) 
W0NIM11PQyg9TylbQ0gzXQ==

>  <s_glide_docking_method>  (1) 
confgen

>  <s_i_glide_gridfile>  (1) 
gpcr_drd2_6luq_protein_autoprepared_prepared

>  <s_lp_Force_Field>  (1) 
S-OPLS

>  <s_lp_Variant>  (1) 
Pocket2Mol_3_num_sample_100-1

>  <s_m_source_file>  (1) 
generated__ligand_Pocket2Mol_2026-05-06_prepared.sdf

>  <GenAI_Model>  (1) 
Pocket2Mol

>  <Protein>  (1) 
generic_title2

$$$$
