Pocket2Mol_83
     RDKit          3D

  0  0  0  0  0  0  0  0  0  0999 V3000
M  V30 BEGIN CTAB
M  V30 COUNTS 21 22 0 0 1
M  V30 BEGIN ATOM
M  V30 1 C 12.289551 9.287000 -4.439098 0
M  V30 2 O 11.754120 7.924825 -4.286865 0
M  V30 3 C 11.257676 7.680624 -5.520710 0
M  V30 4 C 11.369621 8.685062 -6.410113 0
M  V30 5 C 10.902438 8.553116 -7.735897 0
M  V30 6 C 12.009038 9.898805 -5.886917 0
M  V30 7 C 10.670958 6.460639 -5.873680 0
M  V30 8 C 10.292227 7.333158 -8.136416 0
M  V30 9 N 9.806278 7.168590 -9.462360 0
M  V30 10 C 10.184730 6.278240 -7.189625 0
M  V30 11 O 9.015815 6.021781 -9.646410 0
M  V30 12 O 9.375787 8.360797 -10.068137 0
M  V30 13 H 13.369911 9.206966 -4.307088 0
M  V30 14 H 11.900598 9.934101 -3.649397 0
M  V30 15 H 11.011679 9.363563 -8.436825 0
M  V30 16 H 12.943424 10.143776 -6.385044 0
M  V30 17 H 11.320637 10.744136 -5.880858 0
M  V30 18 H 10.592780 5.669234 -5.148084 0
M  V30 19 H 9.732318 5.338641 -7.469363 0
M  V30 20 H 8.131900 6.302033 -9.424705 0
M  V30 21 H 8.418079 8.390227 -9.923108 0
M  V30 END ATOM
M  V30 BEGIN BOND
M  V30 1 1 2 1
M  V30 2 1 3 2
M  V30 3 2 4 3
M  V30 4 1 5 4
M  V30 5 1 6 1
M  V30 6 1 6 4
M  V30 7 1 7 3
M  V30 8 2 8 5
M  V30 9 1 9 8
M  V30 10 2 10 7
M  V30 11 1 10 8
M  V30 12 1 11 9
M  V30 13 1 12 9
M  V30 14 1 13 1
M  V30 15 1 14 1
M  V30 16 1 15 5
M  V30 17 1 16 6
M  V30 18 1 17 6
M  V30 19 1 18 7
M  V30 20 1 19 10
M  V30 21 1 20 11
M  V30 22 1 21 12
M  V30 END BOND
M  V30 END CTAB
M  END
>  <i_epik_Tot_Q>  (1) 
0

>  <i_epik_Tot_abs_Q>  (1) 
0

>  <i_i_glide_confnum>  (1) 
1

>  <i_i_glide_lignum>  (1) 
90

>  <i_i_glide_posenum>  (1) 
268

>  <i_i_glide_rotatable_bonds>  (1) 
3

>  <i_lp_mmshare_version>  (1) 
72125

>  <i_m_source_file_index>  (1) 
84

>  <i_f3d_flags>  (1) 
0

>  <num_sample>  (1) 
100

>  <b_lp_Chiralities_Consistent>  (1) 
1

>  <r_epik_Charging_Adjusted_Penalty>  (1) 
0

>  <r_epik_Ionization_Penalty>  (1) 
0.00063218327523872333

>  <r_epik_Ionization_Penalty_Charging>  (1) 
0

>  <r_epik_Ionization_Penalty_Neutral>  (1) 
0.00063218327523872333

>  <r_epik_State_Penalty>  (1) 
-0

>  <r_glide_ring_energy>  (1) 
0

>  <r_i_docking_score>  (1) 
-7.1351456870852932

>  <r_i_glide_ecoul>  (1) 
-9.6736425126066443

>  <r_i_glide_eff_state_penalty>  (1) 
-0

>  <r_i_glide_einternal>  (1) 
1.3528245234930414

>  <r_i_glide_emodel>  (1) 
-41.080970197820662

>  <r_i_glide_emodel_strain>  (1) 
0.16150906948975319

>  <r_i_glide_energy>  (1) 
-27.566391136628148

>  <r_i_glide_erotb>  (1) 
0

>  <r_i_glide_esite>  (1) 
-0.10000000000000001

>  <r_i_glide_evdw>  (1) 
-17.892748624021504

>  <r_i_glide_gscore>  (1) 
-7.1351456870852932

>  <r_i_glide_gscore_strain>  (1) 
0

>  <r_i_glide_hbond>  (1) 
-0.28782637252884635

>  <r_i_glide_ligand_efficiency>  (1) 
-0.59459547392377443

>  <r_i_glide_ligand_efficiency_ln>  (1) 
-2.0474424149982182

>  <r_i_glide_ligand_efficiency_sa>  (1) 
-1.3612838151165858

>  <r_i_glide_lipo>  (1) 
-1.766617348871556

>  <r_i_glide_metal>  (1) 
-0

>  <r_i_glide_rewards>  (1) 
-2.6350181575928189

>  <r_lp_Energy>  (1) 
14.636832

>  <r_lp_tautomer_probability>  (1) 
1

>  <s_epik_Chemistry_Notes>  (1) 
This compound has a N-S or N-O group and may undergo hydrolysis at high or low pH.

>  <s_epik_cmdline>  (1) 
J2VwaWtfcHl0aG9uJywgJy1waHQnLCAnMS4wJywgJy1waCcsICc3LjQnLCAnLXRuJywgJzgnLCAnLW1hJywgJzUwMCcsICctaW1hZScsICc8aW5maWxlLm1hZT4nLCAnLW9tYWUnLCAnPG91dGZpbGUubWFlPic=

>  <s_epik_input>  (1) 
TzFbQ0gyXVtDSDJdYyhjMTIpW2NIXWMoTihbT0hdKVtPSF0pW2NIXVtjSF0y

>  <s_glide_docking_method>  (1) 
confgen

>  <s_i_glide_gridfile>  (1) 
gpcr_drd2_6luq_protein_autoprepared_prepared

>  <s_lp_Force_Field>  (1) 
S-OPLS

>  <s_lp_Variant>  (1) 
Pocket2Mol_83-1

>  <s_m_source_file>  (1) 
generated_generic_title2_ligand_Pocket2Mol_2026-06-23_prepared.sdf

>  <GenAI_Model>  (1) 
Pocket2Mol

>  <Protein>  (1) 
generic_title2

$$$$
Pocket2Mol_86
     RDKit          3D

  0  0  0  0  0  0  0  0  0  0999 V3000
M  V30 BEGIN CTAB
M  V30 COUNTS 25 26 0 0 1
M  V30 BEGIN ATOM
M  V30 1 C 10.033234 7.446322 -8.174202 0
M  V30 2 O 10.483634 8.790223 -7.755526 0
M  V30 3 C 10.973414 8.549578 -6.520301 0
M  V30 4 C 10.894906 7.271841 -6.098326 0
M  V30 5 C 11.374375 6.880130 -4.837768 0
M  V30 6 C 10.280029 6.343204 -7.050083 0
M  V30 7 C 11.534373 9.551614 -5.713265 0
M  V30 8 C 11.954936 7.859292 -3.982781 0
M  V30 9 N 12.458875 7.497542 -2.702906 0
M  V30 10 C 12.029493 9.210313 -4.435433 0
M  V30 11 C 12.098764 6.174390 -2.207840 0
M  V30 12 C 12.705771 8.583228 -1.763279 0
M  V30 13 H 8.975754 7.489545 -8.422736 0
M  V30 14 H 10.553511 7.169188 -9.091405 0
M  V30 15 H 11.299992 5.848780 -4.531800 0
M  V30 16 H 10.971861 5.562221 -7.362873 0
M  V30 17 H 9.351272 5.921232 -6.663975 0
M  V30 18 H 11.589047 10.571114 -6.066516 0
M  V30 19 H 12.465011 9.974067 -3.812289 0
M  V30 20 H 12.575250 5.412251 -2.820206 0
M  V30 21 H 12.450475 6.020555 -1.187575 0
M  V30 22 H 11.018860 6.019845 -2.220927 0
M  V30 23 H 13.544050 9.190193 -2.099333 0
M  V30 24 H 11.825552 9.216665 -1.642737 0
M  V30 25 H 12.976683 8.189966 -0.785626 0
M  V30 END ATOM
M  V30 BEGIN BOND
M  V30 1 1 2 1
M  V30 2 1 3 2
M  V30 3 2 4 3
M  V30 4 1 5 4
M  V30 5 1 6 1
M  V30 6 1 6 4
M  V30 7 1 7 3
M  V30 8 2 8 5
M  V30 9 1 9 8
M  V30 10 2 10 7
M  V30 11 1 10 8
M  V30 12 1 11 9
M  V30 13 1 12 9
M  V30 14 1 13 1
M  V30 15 1 14 1
M  V30 16 1 15 5
M  V30 17 1 16 6
M  V30 18 1 17 6
M  V30 19 1 18 7
M  V30 20 1 19 10
M  V30 21 1 20 11
M  V30 22 1 21 11
M  V30 23 1 22 11
M  V30 24 1 23 12
M  V30 25 1 24 12
M  V30 26 1 25 12
M  V30 END BOND
M  V30 END CTAB
M  END
>  <i_epik_Tot_Q>  (1) 
0

>  <i_epik_Tot_abs_Q>  (1) 
0

>  <i_i_glide_confnum>  (1) 
1

>  <i_i_glide_lignum>  (1) 
93

>  <i_i_glide_posenum>  (1) 
316

>  <i_i_glide_rotatable_bonds>  (1) 
1

>  <i_lp_mmshare_version>  (1) 
72125

>  <i_m_source_file_index>  (1) 
87

>  <i_f3d_flags>  (1) 
0

>  <num_sample>  (1) 
100

>  <b_lp_Chiralities_Consistent>  (1) 
1

>  <r_epik_Charging_Adjusted_Penalty>  (1) 
0.017477600144237933

>  <r_epik_Ionization_Penalty>  (1) 
0.017477600144237951

>  <r_epik_Ionization_Penalty_Charging>  (1) 
0

>  <r_epik_Ionization_Penalty_Neutral>  (1) 
0.017477600144237951

>  <r_epik_State_Penalty>  (1) 
0.017477600144237933

>  <r_glide_ring_energy>  (1) 
0

>  <r_i_docking_score>  (1) 
-7.0860707562746912

>  <r_i_glide_ecoul>  (1) 
-2.2259724034317889

>  <r_i_glide_eff_state_penalty>  (1) 
0.017477600144237933

>  <r_i_glide_einternal>  (1) 
0.004840408792886608

>  <r_i_glide_emodel>  (1) 
-37.075637988405397

>  <r_i_glide_emodel_strain>  (1) 
1.9839465892346198e-07

>  <r_i_glide_energy>  (1) 
-25.926814034551228

>  <r_i_glide_erotb>  (1) 
0

>  <r_i_glide_esite>  (1) 
0

>  <r_i_glide_evdw>  (1) 
-23.700841631119438

>  <r_i_glide_gscore>  (1) 
-7.103548356418929

>  <r_i_glide_gscore_strain>  (1) 
0

>  <r_i_glide_hbond>  (1) 
0

>  <r_i_glide_ligand_efficiency>  (1) 
-0.5905058963562243

>  <r_i_glide_ligand_efficiency_ln>  (1) 
-2.0333602785904645

>  <r_i_glide_ligand_efficiency_sa>  (1) 
-1.3519210197413831

>  <r_i_glide_lipo>  (1) 
-2.4001314324071306

>  <r_i_glide_metal>  (1) 
-0

>  <r_i_glide_rewards>  (1) 
-3.1844789819410573

>  <r_lp_Energy>  (1) 
28.069341999999999

>  <r_lp_tautomer_probability>  (1) 
1

>  <s_epik_cmdline>  (1) 
J2VwaWtfcHl0aG9uJywgJy1waHQnLCAnMS4wJywgJy1waCcsICc3LjQnLCAnLXRuJywgJzgnLCAnLW1hJywgJzUwMCcsICctaW1hZScsICc8aW5maWxlLm1hZT4nLCAnLW9tYWUnLCAnPG91dGZpbGUubWFlPic=

>  <s_epik_input>  (1) 
TzFbQ0gyXVtDSDJdYyhjMTIpW2NIXWMoTihbQ0gzXSlbQ0gzXSlbY0hdW2NIXTI=

>  <s_glide_docking_method>  (1) 
confgen

>  <s_i_glide_gridfile>  (1) 
gpcr_drd2_6luq_protein_autoprepared_prepared

>  <s_lp_Force_Field>  (1) 
S-OPLS

>  <s_lp_Variant>  (1) 
Pocket2Mol_86-1

>  <s_m_source_file>  (1) 
generated_generic_title2_ligand_Pocket2Mol_2026-06-23_prepared.sdf

>  <GenAI_Model>  (1) 
Pocket2Mol

>  <Protein>  (1) 
generic_title2

$$$$
Pocket2Mol_76
     RDKit          3D

  0  0  0  0  0  0  0  0  0  0999 V3000
M  V30 BEGIN CTAB
M  V30 COUNTS 20 21 0 0 1
M  V30 BEGIN ATOM
M  V30 1 C 11.375152 8.935571 -5.121078 0
M  V30 2 O 10.317737 8.776698 -6.051807 0
M  V30 3 C 10.710622 8.411873 -7.320082 0
M  V30 4 C 12.439710 9.825081 -5.751479 0
M  V30 5 O 12.973737 9.190228 -6.901528 0
M  V30 6 C 12.050354 8.614041 -7.747866 0
M  V30 7 C 9.775410 7.841169 -8.199500 0
M  V30 8 C 10.165233 7.463232 -9.499287 0
M  V30 9 C 12.437420 8.219438 -9.048110 0
M  V30 10 O 13.727156 8.390229 -9.464323 0
M  V30 11 O 9.252556 6.919857 -10.351264 0
M  V30 12 C 11.493635 7.647003 -9.919533 0
M  V30 13 H 10.981556 9.400235 -4.216521 0
M  V30 14 H 11.775408 7.959562 -4.843478 0
M  V30 15 H 12.026155 10.798103 -6.018811 0
M  V30 16 H 13.248697 9.989827 -5.040582 0
M  V30 17 H 8.754974 7.692717 -7.876480 0
M  V30 18 H 14.024665 9.299112 -9.411984 0
M  V30 19 H 8.360723 7.122057 -10.055228 0
M  V30 20 H 11.788644 7.350406 -10.915101 0
M  V30 END ATOM
M  V30 BEGIN BOND
M  V30 1 1 2 1
M  V30 2 1 3 2
M  V30 3 1 4 1
M  V30 4 1 5 4
M  V30 5 1 6 3
M  V30 6 1 6 5
M  V30 7 2 7 3
M  V30 8 1 8 7
M  V30 9 2 9 6
M  V30 10 1 10 9
M  V30 11 1 11 8
M  V30 12 2 12 8
M  V30 13 1 12 9
M  V30 14 1 13 1
M  V30 15 1 14 1
M  V30 16 1 15 4
M  V30 17 1 16 4
M  V30 18 1 17 7
M  V30 19 1 18 10
M  V30 20 1 19 11
M  V30 21 1 20 12
M  V30 END BOND
M  V30 END CTAB
M  END
>  <i_epik_Tot_Q>  (1) 
0

>  <i_epik_Tot_abs_Q>  (1) 
0

>  <i_i_glide_confnum>  (1) 
2

>  <i_i_glide_lignum>  (1) 
83

>  <i_i_glide_posenum>  (1) 
147

>  <i_i_glide_rotatable_bonds>  (1) 
2

>  <i_lp_mmshare_version>  (1) 
72125

>  <i_m_source_file_index>  (1) 
77

>  <i_f3d_flags>  (1) 
0

>  <num_sample>  (1) 
100

>  <b_lp_Chiralities_Consistent>  (1) 
1

>  <r_epik_Charging_Adjusted_Penalty>  (1) 
0

>  <r_epik_Ionization_Penalty>  (1) 
0.012400157081266662

>  <r_epik_Ionization_Penalty_Charging>  (1) 
0

>  <r_epik_Ionization_Penalty_Neutral>  (1) 
0.012400157081266662

>  <r_epik_State_Penalty>  (1) 
-0

>  <r_glide_ring_energy>  (1) 
0.0030882677572799519

>  <r_i_docking_score>  (1) 
-7.0571663481664579

>  <r_i_glide_ecoul>  (1) 
-10.841769849331747

>  <r_i_glide_eff_state_penalty>  (1) 
-0

>  <r_i_glide_einternal>  (1) 
1.5697278125518572

>  <r_i_glide_emodel>  (1) 
-37.73555197915006

>  <r_i_glide_emodel_strain>  (1) 
1.5367946451795369

>  <r_i_glide_energy>  (1) 
-27.272185495440784

>  <r_i_glide_erotb>  (1) 
0

>  <r_i_glide_esite>  (1) 
0

>  <r_i_glide_evdw>  (1) 
-16.430415646109036

>  <r_i_glide_gscore>  (1) 
-7.0571663481664579

>  <r_i_glide_gscore_strain>  (1) 
0

>  <r_i_glide_hbond>  (1) 
-0.45599999999999996

>  <r_i_glide_ligand_efficiency>  (1) 
-0.5880971956805382

>  <r_i_glide_ligand_efficiency_ln>  (1) 
-2.0250661086132022

>  <r_i_glide_ligand_efficiency_sa>  (1) 
-1.3464064718023718

>  <r_i_glide_lipo>  (1) 
-1.536713421794577

>  <r_i_glide_metal>  (1) 
-0

>  <r_i_glide_rewards>  (1) 
-2.6166666666666667

>  <r_lp_Energy>  (1) 
12.367407

>  <r_lp_tautomer_probability>  (1) 
1

>  <s_epik_cmdline>  (1) 
J2VwaWtfcHl0aG9uJywgJy1waHQnLCAnMS4wJywgJy1waCcsICc3LjQnLCAnLXRuJywgJzgnLCAnLW1hJywgJzUwMCcsICctaW1hZScsICc8aW5maWxlLm1hZT4nLCAnLW9tYWUnLCAnPG91dGZpbGUubWFlPic=

>  <s_epik_input>  (1) 
TzFbQ0gyXVtDSDJdT2MoYzEyKWMoW09IXSlbY0hdYyhbY0hdMilbT0hd

>  <s_glide_docking_method>  (1) 
confgen

>  <s_i_glide_gridfile>  (1) 
gpcr_drd2_6luq_protein_autoprepared_prepared

>  <s_lp_Force_Field>  (1) 
S-OPLS

>  <s_lp_Variant>  (1) 
Pocket2Mol_76-1

>  <s_m_source_file>  (1) 
generated_generic_title2_ligand_Pocket2Mol_2026-06-23_prepared.sdf

>  <GenAI_Model>  (1) 
Pocket2Mol

>  <Protein>  (1) 
generic_title2

$$$$
Pocket2Mol_54
     RDKit          3D

  0  0  0  0  0  0  0  0  0  0999 V3000
M  V30 BEGIN CTAB
M  V30 COUNTS 18 19 0 0 1
M  V30 BEGIN ATOM
M  V30 1 C 10.982834 8.748110 -6.833973 0
M  V30 2 O 11.651550 9.583430 -5.809702 0
M  V30 3 C 11.775410 8.710012 -4.785719 0
M  V30 4 C 11.311508 7.465211 -5.016644 0
M  V30 5 C 11.375411 6.466538 -4.035398 0
M  V30 6 C 12.351338 9.051178 -3.550381 0
M  V30 7 C 12.431267 8.076018 -2.534847 0
M  V30 8 O 12.975410 8.390227 -1.325893 0
M  V30 9 C 11.940031 6.773149 -2.777436 0
M  V30 10 C 10.743089 7.249062 -6.348429 0
M  V30 11 H 10.018168 9.190223 -7.080949 0
M  V30 12 H 11.576923 8.760782 -7.748571 0
M  V30 13 H 10.992521 5.486559 -4.238051 0
M  V30 14 H 12.725554 10.036993 -3.379378 0
M  V30 15 H 13.257221 9.295864 -1.264127 0
M  V30 16 H 11.993778 6.017547 -2.006591 0
M  V30 17 H 11.315326 6.515609 -6.917448 0
M  V30 18 H 9.687765 6.975038 -6.304308 0
M  V30 END ATOM
M  V30 BEGIN BOND
M  V30 1 1 2 1
M  V30 2 1 3 2
M  V30 3 2 4 3
M  V30 4 1 5 4
M  V30 5 1 6 3
M  V30 6 2 7 6
M  V30 7 1 8 7
M  V30 8 2 9 5
M  V30 9 1 9 7
M  V30 10 1 10 1
M  V30 11 1 10 4
M  V30 12 1 11 1
M  V30 13 1 12 1
M  V30 14 1 13 5
M  V30 15 1 14 6
M  V30 16 1 15 8
M  V30 17 1 16 9
M  V30 18 1 17 10
M  V30 19 1 18 10
M  V30 END BOND
M  V30 END CTAB
M  END
>  <i_epik_Tot_Q>  (1) 
0

>  <i_epik_Tot_abs_Q>  (1) 
0

>  <i_i_glide_confnum>  (1) 
1

>  <i_i_glide_lignum>  (1) 
61

>  <i_i_glide_posenum>  (1) 
318

>  <i_i_glide_rotatable_bonds>  (1) 
1

>  <i_lp_mmshare_version>  (1) 
72125

>  <i_m_source_file_index>  (1) 
55

>  <i_f3d_flags>  (1) 
0

>  <num_sample>  (1) 
100

>  <b_lp_Chiralities_Consistent>  (1) 
1

>  <r_epik_Charging_Adjusted_Penalty>  (1) 
0

>  <r_epik_Ionization_Penalty>  (1) 
0.0019697177408658601

>  <r_epik_Ionization_Penalty_Charging>  (1) 
0

>  <r_epik_Ionization_Penalty_Neutral>  (1) 
0.0019697177408658601

>  <r_epik_State_Penalty>  (1) 
-0

>  <r_glide_ring_energy>  (1) 
0

>  <r_i_docking_score>  (1) 
-6.8204144114293292

>  <r_i_glide_ecoul>  (1) 
-4.5647635693946063

>  <r_i_glide_eff_state_penalty>  (1) 
-0

>  <r_i_glide_einternal>  (1) 
8.8022032151968688e-07

>  <r_i_glide_emodel>  (1) 
-33.63791887462785

>  <r_i_glide_emodel_strain>  (1) 
0

>  <r_i_glide_energy>  (1) 
-23.920791612264107

>  <r_i_glide_erotb>  (1) 
0

>  <r_i_glide_esite>  (1) 
0

>  <r_i_glide_evdw>  (1) 
-19.3560280428695

>  <r_i_glide_gscore>  (1) 
-6.8204144114293292

>  <r_i_glide_gscore_strain>  (1) 
0

>  <r_i_glide_hbond>  (1) 
-0.32000000000000001

>  <r_i_glide_ligand_efficiency>  (1) 
-0.68204144114293297

>  <r_i_glide_ligand_efficiency_ln>  (1) 
-2.0651744676913388

>  <r_i_glide_ligand_efficiency_sa>  (1) 
-1.4694137408376742

>  <r_i_glide_lipo>  (1) 
-2.16818676460522

>  <r_i_glide_metal>  (1) 
-0

>  <r_i_glide_rewards>  (1) 
-2.6797117092714431

>  <r_lp_Energy>  (1) 
8.5284040000000001

>  <r_lp_tautomer_probability>  (1) 
1

>  <s_epik_cmdline>  (1) 
J2VwaWtfcHl0aG9uJywgJy1waHQnLCAnMS4wJywgJy1waCcsICc3LjQnLCAnLXRuJywgJzgnLCAnLW1hJywgJzUwMCcsICctaW1hZScsICc8aW5maWxlLm1hZT4nLCAnLW9tYWUnLCAnPG91dGZpbGUubWFlPic=

>  <s_epik_input>  (1) 
TzFbQ0gyXVtDSDJdYyhjMTIpW2NIXVtjSF1jKFtjSF0yKVtPSF0=

>  <s_glide_docking_method>  (1) 
confgen

>  <s_i_glide_gridfile>  (1) 
gpcr_drd2_6luq_protein_autoprepared_prepared

>  <s_lp_Force_Field>  (1) 
S-OPLS

>  <s_lp_Variant>  (1) 
Pocket2Mol_54-1

>  <s_m_source_file>  (1) 
generated_generic_title2_ligand_Pocket2Mol_2026-06-23_prepared.sdf

>  <GenAI_Model>  (1) 
Pocket2Mol

>  <Protein>  (1) 
generic_title2

$$$$
Pocket2Mol_60
     RDKit          3D

  0  0  0  0  0  0  0  0  0  0999 V3000
M  V30 BEGIN CTAB
M  V30 COUNTS 19 20 0 0 1
M  V30 BEGIN ATOM
M  V30 1 C 11.697925 8.875631 -7.078876 0
M  V30 2 O 11.891655 9.552839 -5.839004 0
M  V30 3 C 11.900532 8.726409 -4.735048 0
M  V30 4 C 10.498475 7.936893 -6.946014 0
M  V30 5 O 10.832477 6.942498 -5.992886 0
M  V30 6 C 11.375408 7.410322 -4.817242 0
M  V30 7 C 12.444943 9.182201 -3.518732 0
M  V30 8 C 12.461426 8.340777 -2.389834 0
M  V30 9 C 11.403979 6.575711 -3.690048 0
M  V30 10 O 12.975411 8.790227 -1.210870 0
M  V30 11 C 11.945065 7.036958 -2.476979 0
M  V30 12 H 11.525236 9.590227 -7.878253 0
M  V30 13 H 12.596036 8.320425 -7.349110 0
M  V30 14 H 9.602141 8.476470 -6.634769 0
M  V30 15 H 10.276086 7.455168 -7.898675 0
M  V30 16 H 12.852787 10.168429 -3.451570 0
M  V30 17 H 10.999345 5.590226 -3.753521 0
M  V30 18 H 13.314155 9.684172 -1.241343 0
M  V30 19 H 11.957504 6.390492 -1.611495 0
M  V30 END ATOM
M  V30 BEGIN BOND
M  V30 1 1 2 1
M  V30 2 1 3 2
M  V30 3 1 4 1
M  V30 4 1 5 4
M  V30 5 2 6 3
M  V30 6 1 6 5
M  V30 7 1 7 3
M  V30 8 2 8 7
M  V30 9 1 9 6
M  V30 10 1 10 8
M  V30 11 1 11 8
M  V30 12 2 11 9
M  V30 13 1 12 1
M  V30 14 1 13 1
M  V30 15 1 14 4
M  V30 16 1 15 4
M  V30 17 1 16 7
M  V30 18 1 17 9
M  V30 19 1 18 10
M  V30 20 1 19 11
M  V30 END BOND
M  V30 END CTAB
M  END
>  <i_epik_Tot_Q>  (1) 
0

>  <i_epik_Tot_abs_Q>  (1) 
0

>  <i_i_glide_confnum>  (1) 
2

>  <i_i_glide_lignum>  (1) 
67

>  <i_i_glide_posenum>  (1) 
24

>  <i_i_glide_rotatable_bonds>  (1) 
1

>  <i_lp_mmshare_version>  (1) 
72125

>  <i_m_source_file_index>  (1) 
61

>  <i_f3d_flags>  (1) 
0

>  <num_sample>  (1) 
100

>  <b_lp_Chiralities_Consistent>  (1) 
1

>  <r_epik_Charging_Adjusted_Penalty>  (1) 
0

>  <r_epik_Ionization_Penalty>  (1) 
0.0014130578134093086

>  <r_epik_Ionization_Penalty_Charging>  (1) 
0

>  <r_epik_Ionization_Penalty_Neutral>  (1) 
0.0014130578134093086

>  <r_epik_State_Penalty>  (1) 
-0

>  <r_glide_ring_energy>  (1) 
0.0030884842251178704

>  <r_i_docking_score>  (1) 
-6.7980505632870205

>  <r_i_glide_ecoul>  (1) 
-5.5512634412357098

>  <r_i_glide_eff_state_penalty>  (1) 
-0

>  <r_i_glide_einternal>  (1) 
-5.1303789337375783e-06

>  <r_i_glide_emodel>  (1) 
-33.809370139837121

>  <r_i_glide_emodel_strain>  (1) 
0

>  <r_i_glide_energy>  (1) 
-23.303403907231498

>  <r_i_glide_erotb>  (1) 
0

>  <r_i_glide_esite>  (1) 
0

>  <r_i_glide_evdw>  (1) 
-17.75214046599579

>  <r_i_glide_gscore>  (1) 
-6.7980505632870205

>  <r_i_glide_gscore_strain>  (1) 
0

>  <r_i_glide_hbond>  (1) 
-0.32000000000000001

>  <r_i_glide_ligand_efficiency>  (1) 
-0.61800459666245644

>  <r_i_glide_ligand_efficiency_ln>  (1) 
-2.0006651228212862

>  <r_i_glide_ligand_efficiency_sa>  (1) 
-1.3744299188576232

>  <r_i_glide_lipo>  (1) 
-1.9888408425894097

>  <r_i_glide_metal>  (1) 
-0

>  <r_i_glide_rewards>  (1) 
-2.7689131812124641

>  <r_lp_Energy>  (1) 
13.915925999999999

>  <r_lp_tautomer_probability>  (1) 
1

>  <s_epik_cmdline>  (1) 
J2VwaWtfcHl0aG9uJywgJy1waHQnLCAnMS4wJywgJy1waCcsICc3LjQnLCAnLXRuJywgJzgnLCAnLW1hJywgJzUwMCcsICctaW1hZScsICc8aW5maWxlLm1hZT4nLCAnLW9tYWUnLCAnPG91dGZpbGUubWFlPic=

>  <s_epik_input>  (1) 
TzFbQ0gyXVtDSDJdT2MoYzEyKVtjSF1bY0hdYyhbY0hdMilbT0hd

>  <s_glide_docking_method>  (1) 
confgen

>  <s_i_glide_gridfile>  (1) 
gpcr_drd2_6luq_protein_autoprepared_prepared

>  <s_lp_Force_Field>  (1) 
S-OPLS

>  <s_lp_Variant>  (1) 
Pocket2Mol_60-1

>  <s_m_source_file>  (1) 
generated_generic_title2_ligand_Pocket2Mol_2026-06-23_prepared.sdf

>  <GenAI_Model>  (1) 
Pocket2Mol

>  <Protein>  (1) 
generic_title2

$$$$
Pocket2Mol_83
     RDKit          3D

  0  0  0  0  0  0  0  0  0  0999 V3000
M  V30 BEGIN CTAB
M  V30 COUNTS 21 22 0 0 1
M  V30 BEGIN ATOM
M  V30 1 C 12.343690 8.083599 -2.359430 0
M  V30 2 O 12.511172 9.237535 -3.264518 0
M  V30 3 C 11.966556 8.774715 -4.409230 0
M  V30 4 C 11.552778 7.488401 -4.385025 0
M  V30 5 C 10.949327 6.886848 -5.506684 0
M  V30 6 C 11.775410 6.790227 -3.108480 0
M  V30 7 C 11.833027 9.561441 -5.564119 0
M  V30 8 C 10.783509 7.650567 -6.696313 0
M  V30 9 N 10.179503 7.076830 -7.847072 0
M  V30 10 C 11.247374 8.996975 -6.719026 0
M  V30 11 O 9.336115 5.990229 -7.574274 0
M  V30 12 O 9.775410 8.006634 -8.823634 0
M  V30 13 H 11.654206 8.380997 -1.568468 0
M  V30 14 H 13.295879 7.874237 -1.876890 0
M  V30 15 H 10.620149 5.861559 -5.460558 0
M  V30 16 H 10.858779 6.390275 -2.672043 0
M  V30 17 H 12.521629 6.001620 -3.185025 0
M  V30 18 H 12.175410 10.584660 -5.571593 0
M  V30 19 H 11.150687 9.590220 -7.611891 0
M  V30 20 H 8.500589 6.362481 -7.316547 0
M  V30 21 H 8.819797 7.990224 -8.845678 0
M  V30 END ATOM
M  V30 BEGIN BOND
M  V30 1 1 2 1
M  V30 2 1 3 2
M  V30 3 2 4 3
M  V30 4 1 5 4
M  V30 5 1 6 1
M  V30 6 1 6 4
M  V30 7 1 7 3
M  V30 8 2 8 5
M  V30 9 1 9 8
M  V30 10 2 10 7
M  V30 11 1 10 8
M  V30 12 1 11 9
M  V30 13 1 12 9
M  V30 14 1 13 1
M  V30 15 1 14 1
M  V30 16 1 15 5
M  V30 17 1 16 6
M  V30 18 1 17 6
M  V30 19 1 18 7
M  V30 20 1 19 10
M  V30 21 1 20 11
M  V30 22 1 21 12
M  V30 END BOND
M  V30 END CTAB
M  END
>  <i_epik_Tot_Q>  (1) 
0

>  <i_epik_Tot_abs_Q>  (1) 
0

>  <i_i_glide_confnum>  (1) 
1

>  <i_i_glide_lignum>  (1) 
90

>  <i_i_glide_posenum>  (1) 
54

>  <i_i_glide_rotatable_bonds>  (1) 
3

>  <i_lp_mmshare_version>  (1) 
72125

>  <i_m_source_file_index>  (1) 
84

>  <i_f3d_flags>  (1) 
0

>  <num_sample>  (1) 
100

>  <b_lp_Chiralities_Consistent>  (1) 
1

>  <r_epik_Charging_Adjusted_Penalty>  (1) 
0

>  <r_epik_Ionization_Penalty>  (1) 
0.00063218327523872333

>  <r_epik_Ionization_Penalty_Charging>  (1) 
0

>  <r_epik_Ionization_Penalty_Neutral>  (1) 
0.00063218327523872333

>  <r_epik_State_Penalty>  (1) 
-0

>  <r_glide_ring_energy>  (1) 
0

>  <r_i_docking_score>  (1) 
-6.736381489851599

>  <r_i_glide_ecoul>  (1) 
-4.2707798471006466

>  <r_i_glide_eff_state_penalty>  (1) 
-0

>  <r_i_glide_einternal>  (1) 
1.5528702883732723

>  <r_i_glide_emodel>  (1) 
-40.402206725031327

>  <r_i_glide_emodel_strain>  (1) 
0.64958834763396567

>  <r_i_glide_energy>  (1) 
-28.277852660911584

>  <r_i_glide_erotb>  (1) 
0

>  <r_i_glide_esite>  (1) 
-0.021036396032818084

>  <r_i_glide_evdw>  (1) 
-24.007072813810939

>  <r_i_glide_gscore>  (1) 
-6.736381489851599

>  <r_i_glide_gscore_strain>  (1) 
0

>  <r_i_glide_hbond>  (1) 
-0.16

>  <r_i_glide_ligand_efficiency>  (1) 
-0.56136512415429995

>  <r_i_glide_ligand_efficiency_ln>  (1) 
-1.9330163378297085

>  <r_i_glide_ligand_efficiency_sa>  (1) 
-1.2852053057842932

>  <r_i_glide_lipo>  (1) 
-2.0754959742432955

>  <r_i_glide_metal>  (1) 
-0

>  <r_i_glide_rewards>  (1) 
-2.6388785018198422

>  <r_lp_Energy>  (1) 
14.636832

>  <r_lp_tautomer_probability>  (1) 
1

>  <s_epik_Chemistry_Notes>  (1) 
This compound has a N-S or N-O group and may undergo hydrolysis at high or low pH.

>  <s_epik_cmdline>  (1) 
J2VwaWtfcHl0aG9uJywgJy1waHQnLCAnMS4wJywgJy1waCcsICc3LjQnLCAnLXRuJywgJzgnLCAnLW1hJywgJzUwMCcsICctaW1hZScsICc8aW5maWxlLm1hZT4nLCAnLW9tYWUnLCAnPG91dGZpbGUubWFlPic=

>  <s_epik_input>  (1) 
TzFbQ0gyXVtDSDJdYyhjMTIpW2NIXWMoTihbT0hdKVtPSF0pW2NIXVtjSF0y

>  <s_glide_docking_method>  (1) 
confgen

>  <s_i_glide_gridfile>  (1) 
gpcr_drd2_6luq_protein_autoprepared_prepared

>  <s_lp_Force_Field>  (1) 
S-OPLS

>  <s_lp_Variant>  (1) 
Pocket2Mol_83-1

>  <s_m_source_file>  (1) 
generated_generic_title2_ligand_Pocket2Mol_2026-06-23_prepared.sdf

>  <GenAI_Model>  (1) 
Pocket2Mol

>  <Protein>  (1) 
generic_title2

$$$$
Pocket2Mol_93
     RDKit          3D

  0  0  0  0  0  0  0  0  0  0999 V3000
M  V30 BEGIN CTAB
M  V30 COUNTS 23 25 0 0 1
M  V30 BEGIN ATOM
M  V30 1 C 12.575409 8.672903 -2.218681 0
M  V30 2 O 12.534922 9.590227 -3.376152 0
M  V30 3 C 12.019359 8.803675 -4.341694 0
M  V30 4 C 11.775410 7.525087 -3.985025 0
M  V30 5 C 11.233149 6.601415 -4.889299 0
M  V30 6 C 10.943775 7.016745 -6.206526 0
M  V30 7 O 10.411143 6.122563 -7.106510 0
M  V30 8 C 12.122192 7.190227 -2.598440 0
M  V30 9 C 11.211539 8.363908 -6.591857 0
M  V30 10 O 10.952121 8.790227 -7.874051 0
M  V30 11 C 11.749107 9.264227 -5.643154 0
M  V30 12 C 9.775411 6.716085 -8.227870 0
M  V30 13 C 10.717346 7.763093 -8.828608 0
M  V30 14 H 13.578359 8.677112 -1.792753 0
M  V30 15 H 11.912998 9.074288 -1.450585 0
M  V30 16 H 11.039458 5.590227 -4.582145 0
M  V30 17 H 11.263378 6.838745 -2.025464 0
M  V30 18 H 12.939614 6.470190 -2.553181 0
M  V30 19 H 11.954165 10.288974 -5.915313 0
M  V30 20 H 9.543619 5.941645 -8.959076 0
M  V30 21 H 8.831486 7.168025 -7.921871 0
M  V30 22 H 11.663643 7.309456 -9.126699 0
M  V30 23 H 10.273693 8.205755 -9.720624 0
M  V30 END ATOM
M  V30 BEGIN BOND
M  V30 1 1 2 1
M  V30 2 1 3 2
M  V30 3 1 4 3
M  V30 4 2 5 4
M  V30 5 1 6 5
M  V30 6 1 7 6
M  V30 7 1 8 1
M  V30 8 1 8 4
M  V30 9 2 9 6
M  V30 10 1 10 9
M  V30 11 2 11 3
M  V30 12 1 11 9
M  V30 13 1 12 7
M  V30 14 1 13 10
M  V30 15 1 13 12
M  V30 16 1 14 1
M  V30 17 1 15 1
M  V30 18 1 16 5
M  V30 19 1 17 8
M  V30 20 1 18 8
M  V30 21 1 19 11
M  V30 22 1 20 12
M  V30 23 1 21 12
M  V30 24 1 22 13
M  V30 25 1 23 13
M  V30 END BOND
M  V30 END CTAB
M  END
>  <i_epik_Tot_Q>  (1) 
0

>  <i_epik_Tot_abs_Q>  (1) 
0

>  <i_i_glide_confnum>  (1) 
2

>  <i_i_glide_lignum>  (1) 
102

>  <i_i_glide_posenum>  (1) 
194

>  <i_i_glide_rotatable_bonds>  (1) 
0

>  <i_lp_mmshare_version>  (1) 
72125

>  <i_m_source_file_index>  (1) 
94

>  <i_f3d_flags>  (1) 
0

>  <num_sample>  (1) 
100

>  <b_lp_Chiralities_Consistent>  (1) 
1

>  <r_epik_Charging_Adjusted_Penalty>  (1) 
0

>  <r_epik_Ionization_Penalty>  (1) 
0

>  <r_epik_Ionization_Penalty_Charging>  (1) 
0

>  <r_epik_Ionization_Penalty_Neutral>  (1) 
0

>  <r_epik_State_Penalty>  (1) 
-0

>  <r_glide_ring_energy>  (1) 
0.0016243131038040329

>  <r_i_docking_score>  (1) 
-6.7310452785752455

>  <r_i_glide_ecoul>  (1) 
-1.2948778453150027

>  <r_i_glide_eff_state_penalty>  (1) 
-0

>  <r_i_glide_einternal>  (1) 
0

>  <r_i_glide_emodel>  (1) 
-38.632244882123601

>  <r_i_glide_emodel_strain>  (1) 
0

>  <r_i_glide_energy>  (1) 
-27.348311444195222

>  <r_i_glide_erotb>  (1) 
0

>  <r_i_glide_esite>  (1) 
0

>  <r_i_glide_evdw>  (1) 
-26.053433598880218

>  <r_i_glide_gscore>  (1) 
-6.7310452785752455

>  <r_i_glide_gscore_strain>  (1) 
0

>  <r_i_glide_hbond>  (1) 
0

>  <r_i_glide_ligand_efficiency>  (1) 
-0.51777271373655731

>  <r_i_glide_ligand_efficiency_ln>  (1) 
-1.8881180638616881

>  <r_i_glide_ligand_efficiency_sa>  (1) 
-1.2174569421640775

>  <r_i_glide_lipo>  (1) 
-2.3056793435589733

>  <r_i_glide_metal>  (1) 
-0

>  <r_i_glide_rewards>  (1) 
-2.9284625782750111

>  <r_lp_Energy>  (1) 
18.084001999999998

>  <r_lp_tautomer_probability>  (1) 
1

>  <s_epik_cmdline>  (1) 
J2VwaWtfcHl0aG9uJywgJy1waHQnLCAnMS4wJywgJy1waCcsICc3LjQnLCAnLXRuJywgJzgnLCAnLW1hJywgJzUwMCcsICctaW1hZScsICc8aW5maWxlLm1hZT4nLCAnLW9tYWUnLCAnPG91dGZpbGUubWFlPic=

>  <s_epik_input>  (1) 
TzFbQ0gyXVtDSDJdYyhjMTIpW2NIXWMzYyhbY0hdMilPW0NIMl1bQ0gyXU8z

>  <s_glide_docking_method>  (1) 
confgen

>  <s_i_glide_gridfile>  (1) 
gpcr_drd2_6luq_protein_autoprepared_prepared

>  <s_lp_Force_Field>  (1) 
S-OPLS

>  <s_lp_Variant>  (1) 
Pocket2Mol_93-1

>  <s_m_source_file>  (1) 
generated_generic_title2_ligand_Pocket2Mol_2026-06-23_prepared.sdf

>  <GenAI_Model>  (1) 
Pocket2Mol

>  <Protein>  (1) 
generic_title2

$$$$
Pocket2Mol_96
     RDKit          3D

  0  0  0  0  0  0  0  0  0  0999 V3000
M  V30 BEGIN CTAB
M  V30 COUNTS 20 21 0 0 1
M  V30 BEGIN ATOM
M  V30 1 C 10.259704 8.288496 -7.682025 0
M  V30 2 O 11.371875 9.048244 -7.334407 0
M  V30 3 C 10.770406 6.911370 -7.416526 0
M  V30 4 O 10.439988 6.736559 -6.081151 0
M  V30 5 C 11.600795 9.585146 -6.137490 0
M  V30 6 C 11.184287 7.230571 -5.035130 0
M  V30 7 C 11.375406 6.390347 -3.927384 0
M  V30 8 O 11.775430 10.790227 -5.985031 0
M  V30 9 C 11.720927 8.574910 -4.999069 0
M  V30 10 C 12.067951 6.832120 -2.791347 0
M  V30 11 C 12.573144 8.132660 -2.740723 0
M  V30 12 F 13.226169 8.557440 -1.637094 0
M  V30 13 C 12.403759 8.998950 -3.832058 0
M  V30 14 H 9.361867 8.543836 -7.114395 0
M  V30 15 H 10.050229 8.429251 -8.742459 0
M  V30 16 H 10.223145 6.178487 -8.009102 0
M  V30 17 H 11.836282 6.780268 -7.606691 0
M  V30 18 H 10.974362 5.401260 -3.951817 0
M  V30 19 H 12.200711 6.168526 -1.948679 0
M  V30 20 H 12.808150 9.990292 -3.780933 0
M  V30 END ATOM
M  V30 BEGIN BOND
M  V30 1 1 2 1
M  V30 2 1 3 1
M  V30 3 1 4 3
M  V30 4 1 5 2
M  V30 5 1 6 4
M  V30 6 1 7 6
M  V30 7 2 8 5
M  V30 8 1 9 5
M  V30 9 2 9 6
M  V30 10 2 10 7
M  V30 11 1 11 10
M  V30 12 1 12 11
M  V30 13 1 13 9
M  V30 14 2 13 11
M  V30 15 1 14 1
M  V30 16 1 15 1
M  V30 17 1 16 3
M  V30 18 1 17 3
M  V30 19 1 18 7
M  V30 20 1 19 10
M  V30 21 1 20 13
M  V30 END BOND
M  V30 END CTAB
M  END
>  <i_epik_Tot_Q>  (1) 
0

>  <i_epik_Tot_abs_Q>  (1) 
0

>  <i_i_glide_confnum>  (1) 
1

>  <i_i_glide_lignum>  (1) 
105

>  <i_i_glide_posenum>  (1) 
9

>  <i_i_glide_rotatable_bonds>  (1) 
0

>  <i_lp_mmshare_version>  (1) 
72125

>  <i_m_source_file_index>  (1) 
97

>  <i_f3d_flags>  (1) 
0

>  <num_sample>  (1) 
100

>  <b_lp_Chiralities_Consistent>  (1) 
1

>  <r_epik_Charging_Adjusted_Penalty>  (1) 
0

>  <r_epik_Ionization_Penalty>  (1) 
0

>  <r_epik_Ionization_Penalty_Charging>  (1) 
0

>  <r_epik_Ionization_Penalty_Neutral>  (1) 
0

>  <r_epik_State_Penalty>  (1) 
-0

>  <r_glide_ring_energy>  (1) 
0

>  <r_i_docking_score>  (1) 
-6.729881152056068

>  <r_i_glide_ecoul>  (1) 
-0.77212728146882803

>  <r_i_glide_eff_state_penalty>  (1) 
-0

>  <r_i_glide_einternal>  (1) 
0

>  <r_i_glide_emodel>  (1) 
-32.421437305024355

>  <r_i_glide_emodel_strain>  (1) 
0.23034177322440286

>  <r_i_glide_energy>  (1) 
-22.098218705687493

>  <r_i_glide_erotb>  (1) 
0

>  <r_i_glide_esite>  (1) 
0

>  <r_i_glide_evdw>  (1) 
-21.326091424218664

>  <r_i_glide_gscore>  (1) 
-6.729881152056068

>  <r_i_glide_gscore_strain>  (1) 
0

>  <r_i_glide_hbond>  (1) 
0

>  <r_i_glide_ligand_efficiency>  (1) 
-0.51768316554277449

>  <r_i_glide_ligand_efficiency_ln>  (1) 
-1.8877915160197836

>  <r_i_glide_ligand_efficiency_sa>  (1) 
-1.2172463843898129

>  <r_i_glide_lipo>  (1) 
-1.8449620607128887

>  <r_i_glide_metal>  (1) 
-0

>  <r_i_glide_rewards>  (1) 
-3.7027954279119215

>  <r_lp_Energy>  (1) 
17.467690999999999

>  <r_lp_tautomer_probability>  (1) 
1

>  <s_epik_Chemistry_Notes>  (1) 
This compound has an ester and may undergo hydrolysis at high or low pH.

>  <s_epik_cmdline>  (1) 
J2VwaWtfcHl0aG9uJywgJy1waHQnLCAnMS4wJywgJy1waCcsICc3LjQnLCAnLXRuJywgJzgnLCAnLW1hJywgJzUwMCcsICctaW1hZScsICc8aW5maWxlLm1hZT4nLCAnLW9tYWUnLCAnPG91dGZpbGUubWFlPic=

>  <s_epik_input>  (1) 
TzFbQ0gyXVtDSDJdT0MoPU8pYyhjMTIpW2NIXWMoRilbY0hdW2NIXTI=

>  <s_glide_docking_method>  (1) 
confgen

>  <s_i_glide_gridfile>  (1) 
gpcr_drd2_6luq_protein_autoprepared_prepared

>  <s_lp_Force_Field>  (1) 
S-OPLS

>  <s_lp_Variant>  (1) 
Pocket2Mol_96-1

>  <s_m_source_file>  (1) 
generated_generic_title2_ligand_Pocket2Mol_2026-06-23_prepared.sdf

>  <GenAI_Model>  (1) 
Pocket2Mol

>  <Protein>  (1) 
generic_title2

$$$$
Pocket2Mol_70
     RDKit          3D

  0  0  0  0  0  0  0  0  0  0999 V3000
M  V30 BEGIN CTAB
M  V30 COUNTS 20 21 0 0 1
M  V30 BEGIN ATOM
M  V30 1 C 11.805238 9.162938 -7.005159 0
M  V30 2 O 11.880439 9.662273 -5.675019 0
M  V30 3 C 11.884409 8.714905 -4.673893 0
M  V30 4 C 11.350663 7.419452 -4.897945 0
M  V30 5 C 11.375410 6.465631 -3.866893 0
M  V30 6 C 12.432929 9.031260 -3.417314 0
M  V30 7 C 12.450858 8.074181 -2.389377 0
M  V30 8 C 10.747111 7.055053 -6.245175 0
M  V30 9 F 12.975410 8.390227 -1.185025 0
M  V30 10 C 11.924170 6.790227 -2.612970 0
M  V30 11 C 10.577180 8.268909 -7.154491 0
M  V30 12 H 11.775410 9.990227 -7.706940 0
M  V30 13 H 12.715180 8.609599 -7.241256 0
M  V30 14 H 10.968243 5.491276 -4.037242 0
M  V30 15 H 12.845146 10.002525 -3.241765 0
M  V30 16 H 11.409450 6.329947 -6.720062 0
M  V30 17 H 9.787513 6.556486 -6.099775 0
M  V30 18 H 11.938077 6.053954 -1.822285 0
M  V30 19 H 9.687018 8.828764 -6.864265 0
M  V30 20 H 10.429932 7.956163 -8.188695 0
M  V30 END ATOM
M  V30 BEGIN BOND
M  V30 1 1 2 1
M  V30 2 1 3 2
M  V30 3 2 4 3
M  V30 4 1 5 4
M  V30 5 1 6 3
M  V30 6 2 7 6
M  V30 7 1 8 4
M  V30 8 1 9 7
M  V30 9 2 10 5
M  V30 10 1 10 7
M  V30 11 1 11 1
M  V30 12 1 11 8
M  V30 13 1 12 1
M  V30 14 1 13 1
M  V30 15 1 14 5
M  V30 16 1 15 6
M  V30 17 1 16 8
M  V30 18 1 17 8
M  V30 19 1 18 10
M  V30 20 1 19 11
M  V30 21 1 20 11
M  V30 END BOND
M  V30 END CTAB
M  END
>  <i_epik_Tot_Q>  (1) 
0

>  <i_epik_Tot_abs_Q>  (1) 
0

>  <i_i_glide_confnum>  (1) 
1

>  <i_i_glide_lignum>  (1) 
77

>  <i_i_glide_posenum>  (1) 
287

>  <i_i_glide_rotatable_bonds>  (1) 
0

>  <i_lp_mmshare_version>  (1) 
72125

>  <i_m_source_file_index>  (1) 
71

>  <i_f3d_flags>  (1) 
0

>  <num_sample>  (1) 
100

>  <b_lp_Chiralities_Consistent>  (1) 
1

>  <r_epik_Charging_Adjusted_Penalty>  (1) 
0

>  <r_epik_Ionization_Penalty>  (1) 
0

>  <r_epik_Ionization_Penalty_Charging>  (1) 
0

>  <r_epik_Ionization_Penalty_Neutral>  (1) 
0

>  <r_epik_State_Penalty>  (1) 
-0

>  <r_glide_ring_energy>  (1) 
0

>  <r_i_docking_score>  (1) 
-6.7029162070682204

>  <r_i_glide_ecoul>  (1) 
-1.3111014743593867

>  <r_i_glide_eff_state_penalty>  (1) 
-0

>  <r_i_glide_einternal>  (1) 
0

>  <r_i_glide_emodel>  (1) 
-30.025174016296816

>  <r_i_glide_emodel_strain>  (1) 
0

>  <r_i_glide_energy>  (1) 
-21.42918415499204

>  <r_i_glide_erotb>  (1) 
0

>  <r_i_glide_esite>  (1) 
0

>  <r_i_glide_evdw>  (1) 
-20.118082680632654

>  <r_i_glide_gscore>  (1) 
-6.7029162070682204

>  <r_i_glide_gscore_strain>  (1) 
0

>  <r_i_glide_hbond>  (1) 
0

>  <r_i_glide_ligand_efficiency>  (1) 
-0.60935601882438373

>  <r_i_glide_ligand_efficiency_ln>  (1) 
-1.972667097990918

>  <r_i_glide_ligand_efficiency_sa>  (1) 
-1.3551956539340104

>  <r_i_glide_lipo>  (1) 
-2.2751113625708865

>  <r_i_glide_metal>  (1) 
-0

>  <r_i_glide_rewards>  (1) 
-3.2252354893117929

>  <r_lp_Energy>  (1) 
13.183325999999999

>  <r_lp_tautomer_probability>  (1) 
1

>  <s_epik_cmdline>  (1) 
J2VwaWtfcHl0aG9uJywgJy1waHQnLCAnMS4wJywgJy1waCcsICc3LjQnLCAnLXRuJywgJzgnLCAnLW1hJywgJzUwMCcsICctaW1hZScsICc8aW5maWxlLm1hZT4nLCAnLW9tYWUnLCAnPG91dGZpbGUubWFlPic=

>  <s_epik_input>  (1) 
TzFbQ0gyXVtDSDJdW0NIMl1jKGMxMilbY0hdW2NIXWMoRilbY0hdMg==

>  <s_glide_docking_method>  (1) 
confgen

>  <s_i_glide_gridfile>  (1) 
gpcr_drd2_6luq_protein_autoprepared_prepared

>  <s_lp_Force_Field>  (1) 
S-OPLS

>  <s_lp_Variant>  (1) 
Pocket2Mol_70-1

>  <s_m_source_file>  (1) 
generated_generic_title2_ligand_Pocket2Mol_2026-06-23_prepared.sdf

>  <GenAI_Model>  (1) 
Pocket2Mol

>  <Protein>  (1) 
generic_title2

$$$$
Pocket2Mol_98
     RDKit          3D

  0  0  0  0  0  0  0  0  0  0999 V3000
M  V30 BEGIN CTAB
M  V30 COUNTS 24 25 0 0 1
M  V30 BEGIN ATOM
M  V30 1 C 12.575778 8.565461 -2.116135 0
M  V30 2 O 12.571884 9.590221 -3.181502 0
M  V30 3 C 12.026817 8.913085 -4.211204 0
M  V30 4 C 11.775302 7.606700 -3.985273 0
M  V30 5 C 11.194498 6.788815 -4.966452 0
M  V30 6 C 12.144958 7.126037 -2.650347 0
M  V30 7 C 10.874900 7.343280 -6.226604 0
M  V30 8 N 10.271832 6.483083 -7.220589 0
M  V30 9 C 11.724817 9.512167 -5.443984 0
M  V30 10 C 11.145330 8.729077 -6.467126 0
M  V30 11 C 10.046126 6.799067 -8.521410 0
M  V30 12 O 10.361352 7.865783 -9.039773 0
M  V30 13 C 9.369341 5.721884 -9.359461 0
M  V30 14 H 13.566134 8.526760 -1.660514 0
M  V30 15 H 11.883940 8.889922 -1.337562 0
M  V30 16 H 10.996239 5.747262 -4.760535 0
M  V30 17 H 11.302649 6.694987 -2.108381 0
M  V30 18 H 12.975066 6.422135 -2.698364 0
M  V30 19 H 11.929211 10.559645 -5.607150 0
M  V30 20 H 10.908797 9.190231 -7.401438 0
M  V30 21 H 8.297356 5.712581 -9.158602 0
M  V30 22 H 9.513178 5.918619 -10.422027 0
M  V30 23 H 9.776936 4.736115 -9.135396 0
M  V30 24 H 10.007638 5.559083 -6.914748 0
M  V30 END ATOM
M  V30 BEGIN BOND
M  V30 1 1 2 1
M  V30 2 1 3 2
M  V30 3 2 4 3
M  V30 4 1 5 4
M  V30 5 1 6 1
M  V30 6 1 6 4
M  V30 7 2 7 5
M  V30 8 1 8 7
M  V30 9 1 9 3
M  V30 10 1 10 7
M  V30 11 2 10 9
M  V30 12 1 11 8
M  V30 13 2 12 11
M  V30 14 1 13 11
M  V30 15 1 14 1
M  V30 16 1 15 1
M  V30 17 1 16 5
M  V30 18 1 17 6
M  V30 19 1 18 6
M  V30 20 1 19 9
M  V30 21 1 20 10
M  V30 22 1 21 13
M  V30 23 1 22 13
M  V30 24 1 23 13
M  V30 25 1 24 8
M  V30 END BOND
M  V30 END CTAB
M  END
>  <i_epik_Tot_Q>  (1) 
0

>  <i_epik_Tot_abs_Q>  (1) 
0

>  <i_i_glide_confnum>  (1) 
1

>  <i_i_glide_lignum>  (1) 
107

>  <i_i_glide_posenum>  (1) 
85

>  <i_i_glide_rotatable_bonds>  (1) 
2

>  <i_lp_mmshare_version>  (1) 
72125

>  <i_m_source_file_index>  (1) 
99

>  <i_f3d_flags>  (1) 
0

>  <num_sample>  (1) 
100

>  <b_lp_Chiralities_Consistent>  (1) 
1

>  <r_epik_Charging_Adjusted_Penalty>  (1) 
0

>  <r_epik_Ionization_Penalty>  (1) 
1.4103773659367358e-07

>  <r_epik_Ionization_Penalty_Charging>  (1) 
0

>  <r_epik_Ionization_Penalty_Neutral>  (1) 
1.4103773659367358e-07

>  <r_epik_State_Penalty>  (1) 
-0

>  <r_glide_ring_energy>  (1) 
0

>  <r_i_docking_score>  (1) 
-6.6570078462636921

>  <r_i_glide_ecoul>  (1) 
-1.5911972328000774

>  <r_i_glide_eff_state_penalty>  (1) 
-0

>  <r_i_glide_einternal>  (1) 
2.3261675201762575

>  <r_i_glide_emodel>  (1) 
-39.655324411125676

>  <r_i_glide_emodel_strain>  (1) 
0.00086951049700445537

>  <r_i_glide_energy>  (1) 
-30.43573946110342

>  <r_i_glide_erotb>  (1) 
0

>  <r_i_glide_esite>  (1) 
-0.061293807028348905

>  <r_i_glide_evdw>  (1) 
-28.844542228303343

>  <r_i_glide_gscore>  (1) 
-6.6570078462636921

>  <r_i_glide_gscore_strain>  (1) 
0

>  <r_i_glide_hbond>  (1) 
0

>  <r_i_glide_ligand_efficiency>  (1) 
-0.51207752663566863

>  <r_i_glide_ligand_efficiency_ln>  (1) 
-1.8673499056390219

>  <r_i_glide_ligand_efficiency_sa>  (1) 
-1.204065651180698

>  <r_i_glide_lipo>  (1) 
-2.2909073523757773

>  <r_i_glide_metal>  (1) 
-0

>  <r_i_glide_rewards>  (1) 
-2.6238999905243876

>  <r_lp_Energy>  (1) 
14.229996

>  <r_lp_tautomer_probability>  (1) 
1

>  <s_epik_cmdline>  (1) 
J2VwaWtfcHl0aG9uJywgJy1waHQnLCAnMS4wJywgJy1waCcsICc3LjQnLCAnLXRuJywgJzgnLCAnLW1hJywgJzUwMCcsICctaW1hZScsICc8aW5maWxlLm1hZT4nLCAnLW9tYWUnLCAnPG91dGZpbGUubWFlPic=

>  <s_epik_input>  (1) 
TzFbQ0gyXVtDSDJdYyhjMTIpW2NIXWMoW2NIXVtjSF0yKS9OPUMoXFtPSF0pW0NIM10=

>  <s_glide_docking_method>  (1) 
confgen

>  <s_i_glide_gridfile>  (1) 
gpcr_drd2_6luq_protein_autoprepared_prepared

>  <s_lp_Force_Field>  (1) 
S-OPLS

>  <s_lp_Variant>  (1) 
Pocket2Mol_98-1

>  <s_m_source_file>  (1) 
generated_generic_title2_ligand_Pocket2Mol_2026-06-23_prepared.sdf

>  <GenAI_Model>  (1) 
Pocket2Mol

>  <Protein>  (1) 
generic_title2

$$$$
Pocket2Mol_94
     RDKit          3D

  0  0  0  0  0  0  0  0  0  0999 V3000
M  V30 BEGIN CTAB
M  V30 COUNTS 24 25 0 0 1
M  V30 BEGIN ATOM
M  V30 1 C 12.569078 8.436297 -2.054279 0
M  V30 2 O 12.575366 9.482228 -3.096949 0
M  V30 3 C 12.037484 8.831025 -4.146281 0
M  V30 4 C 11.775410 7.521625 -3.951263 0
M  V30 5 C 11.194527 6.730508 -4.954240 0
M  V30 6 C 12.131833 7.009876 -2.622451 0
M  V30 7 C 11.750359 9.459526 -5.367742 0
M  V30 8 C 10.887737 7.317428 -6.204073 0
M  V30 9 N 10.278387 6.490324 -7.219118 0
M  V30 10 C 11.172864 8.705113 -6.411835 0
M  V30 11 C 10.080865 6.834075 -8.516991 0
M  V30 12 C 9.375373 5.795208 -9.379034 0
M  V30 13 O 10.442979 7.896372 -9.015553 0
M  V30 14 H 13.545045 8.390356 -1.575460 0
M  V30 15 H 11.862507 8.751075 -1.284833 0
M  V30 16 H 10.985391 5.686320 -4.772360 0
M  V30 17 H 11.284475 6.574669 -2.091381 0
M  V30 18 H 12.960719 6.304124 -2.675513 0
M  V30 19 H 11.962566 10.508650 -5.505657 0
M  V30 20 H 9.983598 5.570231 -6.932235 0
M  V30 21 H 10.944952 9.190596 -7.336739 0
M  V30 22 H 8.310731 5.780405 -9.140833 0
M  V30 23 H 9.485639 6.038150 -10.436199 0
M  V30 24 H 9.777488 4.797037 -9.206094 0
M  V30 END ATOM
M  V30 BEGIN BOND
M  V30 1 1 2 1
M  V30 2 1 3 2
M  V30 3 2 4 3
M  V30 4 1 5 4
M  V30 5 1 6 1
M  V30 6 1 6 4
M  V30 7 1 7 3
M  V30 8 2 8 5
M  V30 9 1 9 8
M  V30 10 2 10 7
M  V30 11 1 10 8
M  V30 12 1 11 9
M  V30 13 1 12 11
M  V30 14 2 13 11
M  V30 15 1 14 1
M  V30 16 1 15 1
M  V30 17 1 16 5
M  V30 18 1 17 6
M  V30 19 1 18 6
M  V30 20 1 19 7
M  V30 21 1 20 9
M  V30 22 1 21 10
M  V30 23 1 22 12
M  V30 24 1 23 12
M  V30 25 1 24 12
M  V30 END BOND
M  V30 END CTAB
M  END
>  <i_epik_Tot_Q>  (1) 
0

>  <i_epik_Tot_abs_Q>  (1) 
0

>  <i_i_glide_confnum>  (1) 
1

>  <i_i_glide_lignum>  (1) 
103

>  <i_i_glide_posenum>  (1) 
168

>  <i_i_glide_rotatable_bonds>  (1) 
2

>  <i_lp_mmshare_version>  (1) 
72125

>  <i_m_source_file_index>  (1) 
95

>  <i_f3d_flags>  (1) 
0

>  <num_sample>  (1) 
100

>  <b_lp_Chiralities_Consistent>  (1) 
1

>  <r_epik_Charging_Adjusted_Penalty>  (1) 
0

>  <r_epik_Ionization_Penalty>  (1) 
1.4103773659367358e-07

>  <r_epik_Ionization_Penalty_Charging>  (1) 
0

>  <r_epik_Ionization_Penalty_Neutral>  (1) 
1.4103773659367358e-07

>  <r_epik_State_Penalty>  (1) 
-0

>  <r_glide_ring_energy>  (1) 
0

>  <r_i_docking_score>  (1) 
-6.5581624327043935

>  <r_i_glide_ecoul>  (1) 
-1.5580498244534482

>  <r_i_glide_eff_state_penalty>  (1) 
-0

>  <r_i_glide_einternal>  (1) 
1.2679774284219931

>  <r_i_glide_emodel>  (1) 
-39.877912050416015

>  <r_i_glide_emodel_strain>  (1) 
0

>  <r_i_glide_energy>  (1) 
-30.302752482070996

>  <r_i_glide_erotb>  (1) 
0

>  <r_i_glide_esite>  (1) 
-0.059131565852027279

>  <r_i_glide_evdw>  (1) 
-28.744702657617548

>  <r_i_glide_gscore>  (1) 
-6.5581624327043935

>  <r_i_glide_gscore_strain>  (1) 
0

>  <r_i_glide_hbond>  (1) 
0

>  <r_i_glide_ligand_efficiency>  (1) 
-0.50447403328495333

>  <r_i_glide_ligand_efficiency_ln>  (1) 
-1.8396228880441119

>  <r_i_glide_ligand_efficiency_sa>  (1) 
-1.186187293517307

>  <r_i_glide_lipo>  (1) 
-2.3134695680702477

>  <r_i_glide_metal>  (1) 
-0

>  <r_i_glide_rewards>  (1) 
-2.5146186922332241

>  <r_lp_Energy>  (1) 
14.229996

>  <r_lp_tautomer_probability>  (1) 
1

>  <s_epik_cmdline>  (1) 
J2VwaWtfcHl0aG9uJywgJy1waHQnLCAnMS4wJywgJy1waCcsICc3LjQnLCAnLXRuJywgJzgnLCAnLW1hJywgJzUwMCcsICctaW1hZScsICc8aW5maWxlLm1hZT4nLCAnLW9tYWUnLCAnPG91dGZpbGUubWFlPic=

>  <s_epik_input>  (1) 
TzFbQ0gyXVtDSDJdYyhjMTIpW2NIXWMoW2NIXVtjSF0yKVtOSF1DKD1PKVtDSDNd

>  <s_glide_docking_method>  (1) 
confgen

>  <s_i_glide_gridfile>  (1) 
gpcr_drd2_6luq_protein_autoprepared_prepared

>  <s_lp_Force_Field>  (1) 
S-OPLS

>  <s_lp_Variant>  (1) 
Pocket2Mol_94-1

>  <s_m_source_file>  (1) 
generated_generic_title2_ligand_Pocket2Mol_2026-06-23_prepared.sdf

>  <GenAI_Model>  (1) 
Pocket2Mol

>  <Protein>  (1) 
generic_title2

$$$$
Pocket2Mol_61
     RDKit          3D

  0  0  0  0  0  0  0  0  0  0999 V3000
M  V30 BEGIN CTAB
M  V30 COUNTS 18 19 0 0 1
M  V30 BEGIN ATOM
M  V30 1 C 12.860896 8.390227 -2.337527 0
M  V30 2 O 12.560506 9.395195 -3.235781 0
M  V30 3 C 11.888472 8.816159 -4.282059 0
M  V30 4 C 11.775410 7.436769 -4.054328 0
M  V30 5 C 11.094054 6.677653 -5.044012 0
M  V30 6 C 10.550886 7.306303 -6.199234 0
M  V30 7 C 12.407865 7.168561 -2.798011 0
M  V30 8 N 9.857833 6.533433 -7.148472 0
M  V30 9 C 10.697032 8.706709 -6.377436 0
M  V30 10 C 11.375406 9.462956 -5.408806 0
M  V30 11 O 9.775411 7.111049 -8.429919 0
M  V30 12 H 13.386819 8.698249 -1.445158 0
M  V30 13 H 10.975410 5.613314 -4.908181 0
M  V30 14 H 12.497566 6.206149 -2.314686 0
M  V30 15 H 10.053635 5.543715 -7.202231 0
M  V30 16 H 10.285445 9.190229 -7.248977 0
M  V30 17 H 11.491792 10.529622 -5.528595 0
M  V30 18 H 8.845580 7.256274 -8.597021 0
M  V30 END ATOM
M  V30 BEGIN BOND
M  V30 1 1 2 1
M  V30 2 1 3 2
M  V30 3 1 4 3
M  V30 4 2 5 4
M  V30 5 1 6 5
M  V30 6 2 7 1
M  V30 7 1 7 4
M  V30 8 1 8 6
M  V30 9 2 9 6
M  V30 10 2 10 3
M  V30 11 1 10 9
M  V30 12 1 11 8
M  V30 13 1 12 1
M  V30 14 1 13 5
M  V30 15 1 14 7
M  V30 16 1 15 8
M  V30 17 1 16 9
M  V30 18 1 17 10
M  V30 19 1 18 11
M  V30 END BOND
M  V30 END CTAB
M  END
>  <i_epik_Tot_Q>  (1) 
0

>  <i_epik_Tot_abs_Q>  (1) 
0

>  <i_i_glide_confnum>  (1) 
1

>  <i_i_glide_lignum>  (1) 
68

>  <i_i_glide_posenum>  (1) 
262

>  <i_i_glide_rotatable_bonds>  (1) 
2

>  <i_lp_mmshare_version>  (1) 
72125

>  <i_m_source_file_index>  (1) 
62

>  <i_f3d_flags>  (1) 
0

>  <num_sample>  (1) 
100

>  <b_lp_Chiralities_Consistent>  (1) 
1

>  <r_epik_Charging_Adjusted_Penalty>  (1) 
0

>  <r_epik_Ionization_Penalty>  (1) 
0.00016546089717554426

>  <r_epik_Ionization_Penalty_Charging>  (1) 
0

>  <r_epik_Ionization_Penalty_Neutral>  (1) 
0.00016546089717554426

>  <r_epik_State_Penalty>  (1) 
-0

>  <r_glide_ring_energy>  (1) 
0

>  <r_i_docking_score>  (1) 
-6.5552845935230968

>  <r_i_glide_ecoul>  (1) 
-2.8194616122102651

>  <r_i_glide_eff_state_penalty>  (1) 
-0

>  <r_i_glide_einternal>  (1) 
0.88947869023394777

>  <r_i_glide_emodel>  (1) 
-36.391160257461223

>  <r_i_glide_emodel_strain>  (1) 
0

>  <r_i_glide_energy>  (1) 
-26.142713809898385

>  <r_i_glide_erotb>  (1) 
0

>  <r_i_glide_esite>  (1) 
0

>  <r_i_glide_evdw>  (1) 
-23.32325219768812

>  <r_i_glide_gscore>  (1) 
-6.5552845935230968

>  <r_i_glide_gscore_strain>  (1) 
0

>  <r_i_glide_hbond>  (1) 
-0.11673465241988912

>  <r_i_glide_ligand_efficiency>  (1) 
-0.59593496304755422

>  <r_i_glide_ligand_efficiency_ln>  (1) 
-1.9292191392715958

>  <r_i_glide_ligand_efficiency_sa>  (1) 
-1.3253474930919216

>  <r_i_glide_lipo>  (1) 
-2.2661542578663569

>  <r_i_glide_metal>  (1) 
-0

>  <r_i_glide_rewards>  (1) 
-2.583313831520905

>  <r_lp_Energy>  (1) 
13.798807999999999

>  <r_lp_tautomer_probability>  (1) 
1

>  <s_epik_Chemistry_Notes>  (1) 
This compound has a N-S or N-O group and may undergo hydrolysis at high or low pH.

>  <s_epik_cmdline>  (1) 
J2VwaWtfcHl0aG9uJywgJy1waHQnLCAnMS4wJywgJy1waCcsICc3LjQnLCAnLXRuJywgJzgnLCAnLW1hJywgJzUwMCcsICctaW1hZScsICc8aW5maWxlLm1hZT4nLCAnLW9tYWUnLCAnPG91dGZpbGUubWFlPic=

>  <s_epik_input>  (1) 
bzFbY0hdW2NIXWMoYzEyKVtjSF1jKFtOSF1bT0hdKVtjSF1bY0hdMg==

>  <s_glide_docking_method>  (1) 
confgen

>  <s_i_glide_gridfile>  (1) 
gpcr_drd2_6luq_protein_autoprepared_prepared

>  <s_lp_Force_Field>  (1) 
S-OPLS

>  <s_lp_Variant>  (1) 
Pocket2Mol_61-1

>  <s_m_source_file>  (1) 
generated_generic_title2_ligand_Pocket2Mol_2026-06-23_prepared.sdf

>  <GenAI_Model>  (1) 
Pocket2Mol

>  <Protein>  (1) 
generic_title2

$$$$
Pocket2Mol_83
     RDKit          3D

  0  0  0  0  0  0  0  0  0  0999 V3000
M  V30 BEGIN CTAB
M  V30 COUNTS 21 22 0 0 1
M  V30 BEGIN ATOM
M  V30 1 C 12.421652 8.097214 -2.442373 0
M  V30 2 O 12.599529 9.190414 -3.418182 0
M  V30 3 C 11.946627 8.707712 -4.496102 0
M  V30 4 C 11.483299 7.443730 -4.385045 0
M  V30 5 C 10.761106 6.828598 -5.426312 0
M  V30 6 C 11.775426 6.790179 -3.097994 0
M  V30 7 C 11.752300 9.453674 -5.666982 0
M  V30 8 C 10.518545 7.556941 -6.623652 0
M  V30 9 N 9.751763 6.984909 -7.674288 0
M  V30 10 C 11.038345 8.876676 -6.741033 0
M  V30 11 O 9.775414 7.697057 -8.883866 0
M  V30 12 O 9.760276 5.590229 -7.715194 0
M  V30 13 H 11.768245 8.469310 -1.651894 0
M  V30 14 H 13.375390 7.875980 -1.971259 0
M  V30 15 H 10.383862 5.827444 -5.306286 0
M  V30 16 H 10.884148 6.430692 -2.582346 0
M  V30 17 H 12.497526 5.981048 -3.185024 0
M  V30 18 H 12.138815 10.458818 -5.745118 0
M  V30 19 H 10.887524 9.440448 -7.641171 0
M  V30 20 H 8.854364 7.850984 -9.099177 0
M  V30 21 H 8.855437 5.339566 -7.597338 0
M  V30 END ATOM
M  V30 BEGIN BOND
M  V30 1 1 2 1
M  V30 2 1 3 2
M  V30 3 2 4 3
M  V30 4 1 5 4
M  V30 5 1 6 1
M  V30 6 1 6 4
M  V30 7 1 7 3
M  V30 8 2 8 5
M  V30 9 1 9 8
M  V30 10 2 10 7
M  V30 11 1 10 8
M  V30 12 1 11 9
M  V30 13 1 12 9
M  V30 14 1 13 1
M  V30 15 1 14 1
M  V30 16 1 15 5
M  V30 17 1 16 6
M  V30 18 1 17 6
M  V30 19 1 18 7
M  V30 20 1 19 10
M  V30 21 1 20 11
M  V30 22 1 21 12
M  V30 END BOND
M  V30 END CTAB
M  END
>  <i_epik_Tot_Q>  (1) 
0

>  <i_epik_Tot_abs_Q>  (1) 
0

>  <i_i_glide_confnum>  (1) 
1

>  <i_i_glide_lignum>  (1) 
90

>  <i_i_glide_posenum>  (1) 
200

>  <i_i_glide_rotatable_bonds>  (1) 
3

>  <i_lp_mmshare_version>  (1) 
72125

>  <i_m_source_file_index>  (1) 
84

>  <i_f3d_flags>  (1) 
0

>  <num_sample>  (1) 
100

>  <b_lp_Chiralities_Consistent>  (1) 
1

>  <r_epik_Charging_Adjusted_Penalty>  (1) 
0

>  <r_epik_Ionization_Penalty>  (1) 
0.00063218327523872333

>  <r_epik_Ionization_Penalty_Charging>  (1) 
0

>  <r_epik_Ionization_Penalty_Neutral>  (1) 
0.00063218327523872333

>  <r_epik_State_Penalty>  (1) 
-0

>  <r_glide_ring_energy>  (1) 
0

>  <r_i_docking_score>  (1) 
-6.5547987118605997

>  <r_i_glide_ecoul>  (1) 
-3.7181874113415549

>  <r_i_glide_eff_state_penalty>  (1) 
-0

>  <r_i_glide_einternal>  (1) 
0.88446109205507772

>  <r_i_glide_emodel>  (1) 
-38.108275200033006

>  <r_i_glide_emodel_strain>  (1) 
0.0081245444572104475

>  <r_i_glide_energy>  (1) 
-25.373510433112052

>  <r_i_glide_erotb>  (1) 
0

>  <r_i_glide_esite>  (1) 
-0.047977436897391167

>  <r_i_glide_evdw>  (1) 
-21.655323021770496

>  <r_i_glide_gscore>  (1) 
-6.5547987118605997

>  <r_i_glide_gscore_strain>  (1) 
0

>  <r_i_glide_hbond>  (1) 
-0.16

>  <r_i_glide_ligand_efficiency>  (1) 
-0.54623322598838331

>  <r_i_glide_ligand_efficiency_ln>  (1) 
-1.880910845132495

>  <r_i_glide_ligand_efficiency_sa>  (1) 
-1.2505619070895104

>  <r_i_glide_lipo>  (1) 
-2.0274868313442136

>  <r_i_glide_metal>  (1) 
-0

>  <r_i_glide_rewards>  (1) 
-2.678840180829237

>  <r_lp_Energy>  (1) 
14.636832

>  <r_lp_tautomer_probability>  (1) 
1

>  <s_epik_Chemistry_Notes>  (1) 
This compound has a N-S or N-O group and may undergo hydrolysis at high or low pH.

>  <s_epik_cmdline>  (1) 
J2VwaWtfcHl0aG9uJywgJy1waHQnLCAnMS4wJywgJy1waCcsICc3LjQnLCAnLXRuJywgJzgnLCAnLW1hJywgJzUwMCcsICctaW1hZScsICc8aW5maWxlLm1hZT4nLCAnLW9tYWUnLCAnPG91dGZpbGUubWFlPic=

>  <s_epik_input>  (1) 
TzFbQ0gyXVtDSDJdYyhjMTIpW2NIXWMoTihbT0hdKVtPSF0pW2NIXVtjSF0y

>  <s_glide_docking_method>  (1) 
confgen

>  <s_i_glide_gridfile>  (1) 
gpcr_drd2_6luq_protein_autoprepared_prepared

>  <s_lp_Force_Field>  (1) 
S-OPLS

>  <s_lp_Variant>  (1) 
Pocket2Mol_83-1

>  <s_m_source_file>  (1) 
generated_generic_title2_ligand_Pocket2Mol_2026-06-23_prepared.sdf

>  <GenAI_Model>  (1) 
Pocket2Mol

>  <Protein>  (1) 
generic_title2

$$$$
Pocket2Mol_51
     RDKit          3D

  0  0  0  0  0  0  0  0  0  0999 V3000
M  V30 BEGIN CTAB
M  V30 COUNTS 15 16 0 0 1
M  V30 BEGIN ATOM
M  V30 1 C 12.613770 8.790227 -2.153183 0
M  V30 2 O 12.575460 9.590163 -3.370700 0
M  V30 3 C 12.036672 8.790284 -4.327759 0
M  V30 4 C 11.775392 7.489484 -3.984786 0
M  V30 5 C 11.206869 6.596169 -4.897985 0
M  V30 6 C 11.751917 9.258266 -5.626064 0
M  V30 7 C 11.188797 8.368414 -6.572455 0
M  V30 8 S 12.172495 7.012762 -2.387890 0
M  V30 9 F 10.917371 8.790231 -7.826692 0
M  V30 10 C 10.911987 7.034495 -6.203326 0
M  V30 11 H 13.618552 8.813394 -1.732353 0
M  V30 12 H 11.943255 9.228712 -1.413484 0
M  V30 13 H 10.997934 5.589833 -4.605197 0
M  V30 14 H 11.963176 10.281726 -5.897151 0
M  V30 15 H 10.477518 6.352390 -6.919603 0
M  V30 END ATOM
M  V30 BEGIN BOND
M  V30 1 1 2 1
M  V30 2 1 3 2
M  V30 3 2 4 3
M  V30 4 1 5 4
M  V30 5 1 6 3
M  V30 6 2 7 6
M  V30 7 1 8 1
M  V30 8 1 8 4
M  V30 9 1 9 7
M  V30 10 2 10 5
M  V30 11 1 10 7
M  V30 12 1 11 1
M  V30 13 1 12 1
M  V30 14 1 13 5
M  V30 15 1 14 6
M  V30 16 1 15 10
M  V30 END BOND
M  V30 END CTAB
M  END
>  <i_epik_Tot_Q>  (1) 
0

>  <i_epik_Tot_abs_Q>  (1) 
0

>  <i_i_glide_confnum>  (1) 
1

>  <i_i_glide_lignum>  (1) 
58

>  <i_i_glide_posenum>  (1) 
148

>  <i_i_glide_rotatable_bonds>  (1) 
0

>  <i_lp_mmshare_version>  (1) 
72125

>  <i_m_source_file_index>  (1) 
52

>  <i_f3d_flags>  (1) 
0

>  <num_sample>  (1) 
100

>  <b_lp_Chiralities_Consistent>  (1) 
1

>  <r_epik_Charging_Adjusted_Penalty>  (1) 
0

>  <r_epik_Ionization_Penalty>  (1) 
0

>  <r_epik_Ionization_Penalty_Charging>  (1) 
0

>  <r_epik_Ionization_Penalty_Neutral>  (1) 
0

>  <r_epik_State_Penalty>  (1) 
-0

>  <r_glide_ring_energy>  (1) 
0

>  <r_i_docking_score>  (1) 
-6.5358675005316433

>  <r_i_glide_ecoul>  (1) 
-0.9291612099837967

>  <r_i_glide_eff_state_penalty>  (1) 
-0

>  <r_i_glide_einternal>  (1) 
0

>  <r_i_glide_emodel>  (1) 
-31.287438737712527

>  <r_i_glide_emodel_strain>  (1) 
0

>  <r_i_glide_energy>  (1) 
-22.809491320895738

>  <r_i_glide_erotb>  (1) 
0

>  <r_i_glide_esite>  (1) 
0

>  <r_i_glide_evdw>  (1) 
-21.880330110911942

>  <r_i_glide_gscore>  (1) 
-6.5358675005316433

>  <r_i_glide_gscore_strain>  (1) 
0

>  <r_i_glide_hbond>  (1) 
0

>  <r_i_glide_ligand_efficiency>  (1) 
-0.65358675005316436

>  <r_i_glide_ligand_efficiency_ln>  (1) 
-1.9790156245774064

>  <r_i_glide_ligand_efficiency_sa>  (1) 
-1.4081099672597355

>  <r_i_glide_lipo>  (1) 
-2.3115801118279409

>  <r_i_glide_metal>  (1) 
-0

>  <r_i_glide_rewards>  (1) 
-2.9908967016605361

>  <r_lp_Energy>  (1) 
4.072584

>  <r_lp_tautomer_probability>  (1) 
1

>  <s_epik_Chemistry_Notes>  (1) 
This compound contains an acetal/aminal-like group ( X-CH(R)-Y where X, Y are N, S, or O) that may be acid/base labile, releasing an aldehyde.

>  <s_epik_cmdline>  (1) 
J2VwaWtfcHl0aG9uJywgJy1waHQnLCAnMS4wJywgJy1waCcsICc3LjQnLCAnLXRuJywgJzgnLCAnLW1hJywgJzUwMCcsICctaW1hZScsICc8aW5maWxlLm1hZT4nLCAnLW9tYWUnLCAnPG91dGZpbGUubWFlPic=

>  <s_epik_input>  (1) 
TzFbQ0gyXVNjKGMxMilbY0hdW2NIXWMoRilbY0hdMg==

>  <s_glide_docking_method>  (1) 
confgen

>  <s_i_glide_gridfile>  (1) 
gpcr_drd2_6luq_protein_autoprepared_prepared

>  <s_lp_Force_Field>  (1) 
S-OPLS

>  <s_lp_Variant>  (1) 
Pocket2Mol_51-1

>  <s_m_source_file>  (1) 
generated_generic_title2_ligand_Pocket2Mol_2026-06-23_prepared.sdf

>  <GenAI_Model>  (1) 
Pocket2Mol

>  <Protein>  (1) 
generic_title2

$$$$
Pocket2Mol_90
     RDKit          3D

  0  0  0  0  0  0  0  0  0  0999 V3000
M  V30 BEGIN CTAB
M  V30 COUNTS 23 24 0 0 1
M  V30 BEGIN ATOM
M  V30 1 C 12.428864 8.243832 -1.967246 0
M  V30 2 O 12.429380 9.394796 -2.888038 0
M  V30 3 C 11.973802 8.835162 -4.025934 0
M  V30 4 C 11.775410 7.499769 -3.985036 0
M  V30 5 C 11.282846 6.793772 -5.096876 0
M  V30 6 C 12.098992 6.865566 -2.702992 0
M  V30 7 C 11.704994 9.578272 -5.184302 0
M  V30 8 C 10.998717 7.500739 -6.290531 0
M  V30 9 N 10.489511 6.761066 -7.424997 0
M  V30 10 C 11.215800 8.916847 -6.329892 0
M  V30 11 C 10.296911 7.254322 -8.674347 0
M  V30 12 O 10.572347 8.392296 -9.032311 0
M  V30 13 N 9.775406 6.350094 -9.494863 0
M  V30 14 H 13.375411 8.196643 -1.433396 0
M  V30 15 H 11.667393 8.436224 -1.211129 0
M  V30 16 H 11.125152 5.727164 -5.040450 0
M  V30 17 H 11.251213 6.333320 -2.269946 0
M  V30 18 H 12.967877 6.214188 -2.785025 0
M  V30 19 H 11.864154 10.645617 -5.198136 0
M  V30 20 H 10.261255 5.793208 -7.263886 0
M  V30 21 H 11.005725 9.491980 -7.204622 0
M  V30 22 H 9.557802 5.425908 -9.160760 0
M  V30 23 H 9.572173 6.604205 -10.449517 0
M  V30 END ATOM
M  V30 BEGIN BOND
M  V30 1 1 2 1
M  V30 2 1 3 2
M  V30 3 2 4 3
M  V30 4 1 5 4
M  V30 5 1 6 1
M  V30 6 1 6 4
M  V30 7 1 7 3
M  V30 8 2 8 5
M  V30 9 1 9 8
M  V30 10 2 10 7
M  V30 11 1 10 8
M  V30 12 1 11 9
M  V30 13 2 12 11
M  V30 14 1 13 11
M  V30 15 1 14 1
M  V30 16 1 15 1
M  V30 17 1 16 5
M  V30 18 1 17 6
M  V30 19 1 18 6
M  V30 20 1 19 7
M  V30 21 1 20 9
M  V30 22 1 21 10
M  V30 23 1 22 13
M  V30 24 1 23 13
M  V30 END BOND
M  V30 END CTAB
M  END
>  <i_epik_Tot_Q>  (1) 
0

>  <i_epik_Tot_abs_Q>  (1) 
0

>  <i_i_glide_confnum>  (1) 
1

>  <i_i_glide_lignum>  (1) 
97

>  <i_i_glide_posenum>  (1) 
382

>  <i_i_glide_rotatable_bonds>  (1) 
2

>  <i_lp_mmshare_version>  (1) 
72125

>  <i_m_source_file_index>  (1) 
91

>  <i_f3d_flags>  (1) 
0

>  <num_sample>  (1) 
100

>  <b_lp_Chiralities_Consistent>  (1) 
1

>  <r_epik_Charging_Adjusted_Penalty>  (1) 
0

>  <r_epik_Ionization_Penalty>  (1) 
1.9038757045197726e-05

>  <r_epik_Ionization_Penalty_Charging>  (1) 
0

>  <r_epik_Ionization_Penalty_Neutral>  (1) 
1.9038757045197726e-05

>  <r_epik_State_Penalty>  (1) 
-0

>  <r_glide_ring_energy>  (1) 
0

>  <r_i_docking_score>  (1) 
-6.526642853657397

>  <r_i_glide_ecoul>  (1) 
-1.5099164175442128

>  <r_i_glide_eff_state_penalty>  (1) 
-0

>  <r_i_glide_einternal>  (1) 
1.5293830864090436

>  <r_i_glide_emodel>  (1) 
-40.312023290460331

>  <r_i_glide_emodel_strain>  (1) 
0

>  <r_i_glide_energy>  (1) 
-29.587071289597535

>  <r_i_glide_erotb>  (1) 
0

>  <r_i_glide_esite>  (1) 
-0.12194780571441691

>  <r_i_glide_evdw>  (1) 
-28.077154872053324

>  <r_i_glide_gscore>  (1) 
-6.526642853657397

>  <r_i_glide_gscore_strain>  (1) 
0

>  <r_i_glide_hbond>  (1) 
0

>  <r_i_glide_ligand_efficiency>  (1) 
-0.50204945028133818

>  <r_i_glide_ligand_efficiency_ln>  (1) 
-1.8307813657989152

>  <r_i_glide_ligand_efficiency_sa>  (1) 
-1.1804862873976485

>  <r_i_glide_lipo>  (1) 
-2.3014998998487655

>  <r_i_glide_metal>  (1) 
-0

>  <r_i_glide_rewards>  (1) 
-2.4728499418599164

>  <r_lp_Energy>  (1) 
13.450968999999999

>  <r_lp_tautomer_probability>  (1) 
1

>  <s_epik_cmdline>  (1) 
J2VwaWtfcHl0aG9uJywgJy1waHQnLCAnMS4wJywgJy1waCcsICc3LjQnLCAnLXRuJywgJzgnLCAnLW1hJywgJzUwMCcsICctaW1hZScsICc8aW5maWxlLm1hZT4nLCAnLW9tYWUnLCAnPG91dGZpbGUubWFlPic=

>  <s_epik_input>  (1) 
TzFbQ0gyXVtDSDJdYyhjMTIpW2NIXWMoW2NIXVtjSF0yKVtOSF1DKD1PKVtOSDJd

>  <s_glide_docking_method>  (1) 
confgen

>  <s_i_glide_gridfile>  (1) 
gpcr_drd2_6luq_protein_autoprepared_prepared

>  <s_lp_Force_Field>  (1) 
S-OPLS

>  <s_lp_Variant>  (1) 
Pocket2Mol_90-1

>  <s_m_source_file>  (1) 
generated_generic_title2_ligand_Pocket2Mol_2026-06-23_prepared.sdf

>  <GenAI_Model>  (1) 
Pocket2Mol

>  <Protein>  (1) 
generic_title2

$$$$
Pocket2Mol_50
     RDKit          3D

  0  0  0  0  0  0  0  0  0  0999 V3000
M  V30 BEGIN CTAB
M  V30 COUNTS 16 17 0 0 1
M  V30 BEGIN ATOM
M  V30 1 C 10.991262 8.787137 -6.785385 0
M  V30 2 O 11.639636 9.658632 -5.806332 0
M  V30 3 C 11.775410 8.790227 -4.799255 0
M  V30 4 C 11.315852 7.568993 -5.064994 0
M  V30 5 C 11.375410 6.536992 -4.118677 0
M  V30 6 C 12.351195 9.106033 -3.559141 0
M  V30 7 C 12.431931 8.104888 -2.568880 0
M  V30 8 O 12.975410 8.390227 -1.351849 0
M  V30 9 C 11.940440 6.804499 -2.848881 0
M  V30 10 O 10.802770 7.429593 -6.289134 0
M  V30 11 H 10.009871 9.190227 -7.037724 0
M  V30 12 H 11.597107 8.754092 -7.691855 0
M  V30 13 H 10.991273 5.564380 -4.354420 0
M  V30 14 H 12.724248 10.088232 -3.364739 0
M  V30 15 H 13.261149 9.293396 -1.271129 0
M  V30 16 H 11.993771 6.026475 -2.100617 0
M  V30 END ATOM
M  V30 BEGIN BOND
M  V30 1 1 2 1
M  V30 2 1 3 2
M  V30 3 2 4 3
M  V30 4 1 5 4
M  V30 5 1 6 3
M  V30 6 2 7 6
M  V30 7 1 8 7
M  V30 8 2 9 5
M  V30 9 1 9 7
M  V30 10 1 10 1
M  V30 11 1 10 4
M  V30 12 1 11 1
M  V30 13 1 12 1
M  V30 14 1 13 5
M  V30 15 1 14 6
M  V30 16 1 15 8
M  V30 17 1 16 9
M  V30 END BOND
M  V30 END CTAB
M  END
>  <i_epik_Tot_Q>  (1) 
0

>  <i_epik_Tot_abs_Q>  (1) 
0

>  <i_i_glide_confnum>  (1) 
1

>  <i_i_glide_lignum>  (1) 
57

>  <i_i_glide_posenum>  (1) 
303

>  <i_i_glide_rotatable_bonds>  (1) 
1

>  <i_lp_mmshare_version>  (1) 
72125

>  <i_m_source_file_index>  (1) 
51

>  <i_f3d_flags>  (1) 
0

>  <num_sample>  (1) 
100

>  <b_lp_Chiralities_Consistent>  (1) 
1

>  <r_epik_Charging_Adjusted_Penalty>  (1) 
0

>  <r_epik_Ionization_Penalty>  (1) 
0.0018243540331301816

>  <r_epik_Ionization_Penalty_Charging>  (1) 
0

>  <r_epik_Ionization_Penalty_Neutral>  (1) 
0.0018243540331301816

>  <r_epik_State_Penalty>  (1) 
-0

>  <r_glide_ring_energy>  (1) 
0

>  <r_i_docking_score>  (1) 
-6.5150757259355849

>  <r_i_glide_ecoul>  (1) 
-3.61600658791511

>  <r_i_glide_eff_state_penalty>  (1) 
-0

>  <r_i_glide_einternal>  (1) 
0.00061720816132032619

>  <r_i_glide_emodel>  (1) 
-33.03316174857185

>  <r_i_glide_emodel_strain>  (1) 
0

>  <r_i_glide_energy>  (1) 
-22.554045051835871

>  <r_i_glide_erotb>  (1) 
0

>  <r_i_glide_esite>  (1) 
0

>  <r_i_glide_evdw>  (1) 
-18.938038463920762

>  <r_i_glide_gscore>  (1) 
-6.5150757259355849

>  <r_i_glide_gscore_strain>  (1) 
0

>  <r_i_glide_hbond>  (1) 
-0.32000000000000001

>  <r_i_glide_ligand_efficiency>  (1) 
-0.65150757259355851

>  <r_i_glide_ligand_efficiency_ln>  (1) 
-1.972720018556485

>  <r_i_glide_ligand_efficiency_sa>  (1) 
-1.4036305152140283

>  <r_i_glide_lipo>  (1) 
-1.7187430957333645

>  <r_i_glide_metal>  (1) 
-0

>  <r_i_glide_rewards>  (1) 
-2.9870297188189157

>  <r_lp_Energy>  (1) 
16.555202999999999

>  <r_lp_tautomer_probability>  (1) 
1

>  <s_epik_Chemistry_Notes>  (1) 
This compound contains an acetal/aminal-like group ( X-CH(R)-Y where X, Y are N, S, or O) that may be acid/base labile, releasing an aldehyde.

>  <s_epik_cmdline>  (1) 
J2VwaWtfcHl0aG9uJywgJy1waHQnLCAnMS4wJywgJy1waCcsICc3LjQnLCAnLXRuJywgJzgnLCAnLW1hJywgJzUwMCcsICctaW1hZScsICc8aW5maWxlLm1hZT4nLCAnLW9tYWUnLCAnPG91dGZpbGUubWFlPic=

>  <s_epik_input>  (1) 
TzFbQ0gyXU9jKGMxMilbY0hdW2NIXWMoW2NIXTIpW09IXQ==

>  <s_glide_docking_method>  (1) 
confgen

>  <s_i_glide_gridfile>  (1) 
gpcr_drd2_6luq_protein_autoprepared_prepared

>  <s_lp_Force_Field>  (1) 
S-OPLS

>  <s_lp_Variant>  (1) 
Pocket2Mol_50-1

>  <s_m_source_file>  (1) 
generated_generic_title2_ligand_Pocket2Mol_2026-06-23_prepared.sdf

>  <GenAI_Model>  (1) 
Pocket2Mol

>  <Protein>  (1) 
generic_title2

$$$$
Pocket2Mol_74
     RDKit          3D

  0  0  0  0  0  0  0  0  0  0999 V3000
M  V30 BEGIN CTAB
M  V30 COUNTS 20 21 0 0 1
M  V30 BEGIN ATOM
M  V30 1 C 10.255080 8.131538 -7.494096 0
M  V30 2 O 11.344477 8.958360 -7.229850 0
M  V30 3 C 10.781671 6.786132 -7.112943 0
M  V30 4 O 10.459377 6.744296 -5.764275 0
M  V30 5 C 11.609329 9.577214 -6.069678 0
M  V30 6 C 11.235718 7.312771 -4.785107 0
M  V30 7 C 11.448257 6.566525 -3.611451 0
M  V30 8 O 11.775518 10.790227 -5.996924 0
M  V30 9 C 11.775409 8.651815 -4.872399 0
M  V30 10 C 12.502353 9.161842 -3.770247 0
M  V30 11 C 12.699971 8.389505 -2.616770 0
M  V30 12 C 12.175931 7.097192 -2.538014 0
M  V30 13 H 10.030238 8.171633 -8.560406 0
M  V30 14 H 9.355054 8.415668 -6.944526 0
M  V30 15 H 11.844353 6.634927 -7.310303 0
M  V30 16 H 10.228047 5.994925 -7.619584 0
M  V30 17 H 11.031210 5.590044 -3.531759 0
M  V30 18 H 12.918302 10.148954 -3.817614 0
M  V30 19 H 13.260798 8.795496 -1.788356 0
M  V30 20 H 12.325776 6.507039 -1.645226 0
M  V30 END ATOM
M  V30 BEGIN BOND
M  V30 1 1 2 1
M  V30 2 1 3 1
M  V30 3 1 4 3
M  V30 4 1 5 2
M  V30 5 1 6 4
M  V30 6 2 7 6
M  V30 7 2 8 5
M  V30 8 1 9 5
M  V30 9 1 9 6
M  V30 10 2 10 9
M  V30 11 1 11 10
M  V30 12 1 12 7
M  V30 13 2 12 11
M  V30 14 1 13 1
M  V30 15 1 14 1
M  V30 16 1 15 3
M  V30 17 1 16 3
M  V30 18 1 17 7
M  V30 19 1 18 10
M  V30 20 1 19 11
M  V30 21 1 20 12
M  V30 END BOND
M  V30 END CTAB
M  END
>  <i_epik_Tot_Q>  (1) 
0

>  <i_epik_Tot_abs_Q>  (1) 
0

>  <i_i_glide_confnum>  (1) 
1

>  <i_i_glide_lignum>  (1) 
81

>  <i_i_glide_posenum>  (1) 
13

>  <i_i_glide_rotatable_bonds>  (1) 
0

>  <i_lp_mmshare_version>  (1) 
72125

>  <i_m_source_file_index>  (1) 
75

>  <i_f3d_flags>  (1) 
0

>  <num_sample>  (1) 
100

>  <b_lp_Chiralities_Consistent>  (1) 
1

>  <r_epik_Charging_Adjusted_Penalty>  (1) 
0

>  <r_epik_Ionization_Penalty>  (1) 
6.5779134034160639e-16

>  <r_epik_Ionization_Penalty_Charging>  (1) 
0

>  <r_epik_Ionization_Penalty_Neutral>  (1) 
6.5779134034160639e-16

>  <r_epik_State_Penalty>  (1) 
-0

>  <r_glide_ring_energy>  (1) 
0

>  <r_i_docking_score>  (1) 
-6.5115385299737314

>  <r_i_glide_ecoul>  (1) 
-1.0988140359527008

>  <r_i_glide_eff_state_penalty>  (1) 
-0

>  <r_i_glide_einternal>  (1) 
0

>  <r_i_glide_emodel>  (1) 
-32.18513042945856

>  <r_i_glide_emodel_strain>  (1) 
0.19526694179000259

>  <r_i_glide_energy>  (1) 
-22.76042155239513

>  <r_i_glide_erotb>  (1) 
0

>  <r_i_glide_esite>  (1) 
0

>  <r_i_glide_evdw>  (1) 
-21.66160751644243

>  <r_i_glide_gscore>  (1) 
-6.5115385299737314

>  <r_i_glide_gscore_strain>  (1) 
0

>  <r_i_glide_hbond>  (1) 
0

>  <r_i_glide_ligand_efficiency>  (1) 
-0.54262821083114432

>  <r_i_glide_ligand_efficiency_ln>  (1) 
-1.8684972610011956

>  <r_i_glide_ligand_efficiency_sa>  (1) 
-1.2423084826992861

>  <r_i_glide_lipo>  (1) 
-1.8894320688461106

>  <r_i_glide_metal>  (1) 
-0

>  <r_i_glide_rewards>  (1) 
-3.3742039799125942

>  <r_lp_Energy>  (1) 
17.344456999999998

>  <r_lp_tautomer_probability>  (1) 
1

>  <s_epik_Chemistry_Notes>  (1) 
This compound has an ester and may undergo hydrolysis at high or low pH.

>  <s_epik_cmdline>  (1) 
J2VwaWtfcHl0aG9uJywgJy1waHQnLCAnMS4wJywgJy1waCcsICc3LjQnLCAnLXRuJywgJzgnLCAnLW1hJywgJzUwMCcsICctaW1hZScsICc8aW5maWxlLm1hZT4nLCAnLW9tYWUnLCAnPG91dGZpbGUubWFlPic=

>  <s_epik_input>  (1) 
TzFbQ0gyXVtDSDJdT0MoPU8pYyhjMTIpW2NIXVtjSF1bY0hdW2NIXTI=

>  <s_glide_docking_method>  (1) 
confgen

>  <s_i_glide_gridfile>  (1) 
gpcr_drd2_6luq_protein_autoprepared_prepared

>  <s_lp_Force_Field>  (1) 
S-OPLS

>  <s_lp_Variant>  (1) 
Pocket2Mol_74-1

>  <s_m_source_file>  (1) 
generated_generic_title2_ligand_Pocket2Mol_2026-06-23_prepared.sdf

>  <GenAI_Model>  (1) 
Pocket2Mol

>  <Protein>  (1) 
generic_title2

$$$$
Pocket2Mol_84
     RDKit          3D

  0  0  0  0  0  0  0  0  0  0999 V3000
M  V30 BEGIN CTAB
M  V30 COUNTS 23 24 0 0 1
M  V30 BEGIN ATOM
M  V30 1 C 12.441954 8.285920 -2.381369 0
M  V30 2 O 12.649159 9.391237 -3.336359 0
M  V30 3 C 12.096588 8.895544 -4.462444 0
M  V30 4 C 11.642840 7.628250 -4.384916 0
M  V30 5 C 11.026891 6.996612 -5.483178 0
M  V30 6 C 11.845102 6.978413 -3.082051 0
M  V30 7 C 10.903966 7.709194 -6.708842 0
M  V30 8 N 10.306148 7.107301 -7.844728 0
M  V30 9 C 11.998093 9.632223 -5.651494 0
M  V30 10 C 11.409758 9.036164 -6.785447 0
M  V30 11 O 9.775499 8.034605 -8.763743 0
M  V30 12 C 9.271928 6.121867 -7.550079 0
M  V30 13 H 11.740212 8.646129 -1.628569 0
M  V30 14 H 13.375010 8.073800 -1.859716 0
M  V30 15 H 10.667189 5.986322 -5.394206 0
M  V30 16 H 10.935237 6.610494 -2.615934 0
M  V30 17 H 12.575487 6.175566 -3.162125 0
M  V30 18 H 12.374749 10.640360 -5.702490 0
M  V30 19 H 11.345569 9.589958 -7.708425 0
M  V30 20 H 8.823880 7.955088 -8.733308 0
M  V30 21 H 9.729198 5.189892 -7.228019 0
M  V30 22 H 8.596373 6.468067 -6.765083 0
M  V30 23 H 8.669816 5.898398 -8.434430 0
M  V30 END ATOM
M  V30 BEGIN BOND
M  V30 1 1 2 1
M  V30 2 1 3 2
M  V30 3 2 4 3
M  V30 4 1 5 4
M  V30 5 1 6 1
M  V30 6 1 6 4
M  V30 7 2 7 5
M  V30 8 1 8 7
M  V30 9 1 9 3
M  V30 10 1 10 7
M  V30 11 2 10 9
M  V30 12 1 11 8
M  V30 13 1 12 8
M  V30 14 1 13 1
M  V30 15 1 14 1
M  V30 16 1 15 5
M  V30 17 1 16 6
M  V30 18 1 17 6
M  V30 19 1 18 9
M  V30 20 1 19 10
M  V30 21 1 20 11
M  V30 22 1 21 12
M  V30 23 1 22 12
M  V30 24 1 23 12
M  V30 END BOND
M  V30 END CTAB
M  END
>  <i_epik_Tot_Q>  (1) 
0

>  <i_epik_Tot_abs_Q>  (1) 
0

>  <i_i_glide_confnum>  (1) 
2

>  <i_i_glide_lignum>  (1) 
91

>  <i_i_glide_posenum>  (1) 
236

>  <i_i_glide_rotatable_bonds>  (1) 
2

>  <i_lp_mmshare_version>  (1) 
72125

>  <i_m_source_file_index>  (1) 
85

>  <i_f3d_flags>  (1) 
0

>  <num_sample>  (1) 
100

>  <b_lp_Chiralities_Consistent>  (1) 
1

>  <r_epik_Charging_Adjusted_Penalty>  (1) 
0

>  <r_epik_Ionization_Penalty>  (1) 
0.00097486698469066322

>  <r_epik_Ionization_Penalty_Charging>  (1) 
0

>  <r_epik_Ionization_Penalty_Neutral>  (1) 
0.00097486698469066322

>  <r_epik_State_Penalty>  (1) 
-0

>  <r_glide_ring_energy>  (1) 
0

>  <r_i_docking_score>  (1) 
-6.5064351406865786

>  <r_i_glide_ecoul>  (1) 
-3.6205255071330957

>  <r_i_glide_eff_state_penalty>  (1) 
-0

>  <r_i_glide_einternal>  (1) 
1.181296237671372

>  <r_i_glide_emodel>  (1) 
-35.364806455393797

>  <r_i_glide_emodel_strain>  (1) 
0.67904729077265102

>  <r_i_glide_energy>  (1) 
-25.920551555095791

>  <r_i_glide_erotb>  (1) 
0

>  <r_i_glide_esite>  (1) 
-0.014183982749484342

>  <r_i_glide_evdw>  (1) 
-22.300026047962696

>  <r_i_glide_gscore>  (1) 
-6.5064351406865786

>  <r_i_glide_gscore_strain>  (1) 
0

>  <r_i_glide_hbond>  (1) 
-0.16

>  <r_i_glide_ligand_efficiency>  (1) 
-0.54220292839054818

>  <r_i_glide_ligand_efficiency_ln>  (1) 
-1.8670328346047345

>  <r_i_glide_ligand_efficiency_sa>  (1) 
-1.2413348289655697

>  <r_i_glide_lipo>  (1) 
-2.0532532589562309

>  <r_i_glide_metal>  (1) 
-0

>  <r_i_glide_rewards>  (1) 
-2.6209177705127633

>  <r_lp_Energy>  (1) 
21.474352

>  <r_lp_tautomer_probability>  (1) 
1

>  <s_epik_Chemistry_Notes>  (1) 
This compound has a N-S or N-O group and may undergo hydrolysis at high or low pH.

>  <s_epik_cmdline>  (1) 
J2VwaWtfcHl0aG9uJywgJy1waHQnLCAnMS4wJywgJy1waCcsICc3LjQnLCAnLXRuJywgJzgnLCAnLW1hJywgJzUwMCcsICctaW1hZScsICc8aW5maWxlLm1hZT4nLCAnLW9tYWUnLCAnPG91dGZpbGUubWFlPic=

>  <s_epik_input>  (1) 
TzFbQ0gyXVtDSDJdYyhjMTIpW2NIXWMoTihbT0hdKVtDSDNdKVtjSF1bY0hdMg==

>  <s_glide_docking_method>  (1) 
confgen

>  <s_i_glide_gridfile>  (1) 
gpcr_drd2_6luq_protein_autoprepared_prepared

>  <s_lp_Force_Field>  (1) 
S-OPLS

>  <s_lp_Variant>  (1) 
Pocket2Mol_84-1

>  <s_m_source_file>  (1) 
generated_generic_title2_ligand_Pocket2Mol_2026-06-23_prepared.sdf

>  <GenAI_Model>  (1) 
Pocket2Mol

>  <Protein>  (1) 
generic_title2

$$$$
Pocket2Mol_93
     RDKit          3D

  0  0  0  0  0  0  0  0  0  0999 V3000
M  V30 BEGIN CTAB
M  V30 COUNTS 23 25 0 0 1
M  V30 BEGIN ATOM
M  V30 1 C 12.387389 8.337430 -2.102811 0
M  V30 2 O 12.175298 7.023465 -2.743706 0
M  V30 3 C 11.775410 7.383462 -3.985025 0
M  V30 4 C 11.775410 8.706117 -4.240760 0
M  V30 5 C 11.380364 9.217482 -5.490752 0
M  V30 6 C 10.973573 8.315608 -6.499468 0
M  V30 7 O 10.586507 8.790227 -7.730923 0
M  V30 8 C 12.207102 9.541566 -3.129405 0
M  V30 9 C 10.966550 6.916610 -6.225085 0
M  V30 10 O 10.566118 6.015212 -7.185026 0
M  V30 11 C 11.375408 6.456939 -4.954632 0
M  V30 12 C 10.479749 7.818525 -8.763589 0
M  V30 13 C 9.775410 6.569449 -8.225600 0
M  V30 14 H 11.664672 8.434552 -1.292176 0
M  V30 15 H 13.375410 8.379092 -1.643920 0
M  V30 16 H 11.388215 10.281505 -5.677104 0
M  V30 17 H 13.165761 9.990227 -3.374295 0
M  V30 18 H 11.461127 10.275454 -2.820537 0
M  V30 19 H 11.377305 5.412036 -4.730434 0
M  V30 20 H 9.912252 8.245881 -9.590675 0
M  V30 21 H 11.472323 7.571500 -9.142921 0
M  V30 22 H 8.778719 6.808304 -7.851194 0
M  V30 23 H 9.655263 5.827624 -9.015230 0
M  V30 END ATOM
M  V30 BEGIN BOND
M  V30 1 1 2 1
M  V30 2 1 3 2
M  V30 3 1 4 3
M  V30 4 2 5 4
M  V30 5 1 6 5
M  V30 6 1 7 6
M  V30 7 1 8 1
M  V30 8 1 8 4
M  V30 9 2 9 6
M  V30 10 1 10 9
M  V30 11 2 11 3
M  V30 12 1 11 9
M  V30 13 1 12 7
M  V30 14 1 13 10
M  V30 15 1 13 12
M  V30 16 1 14 1
M  V30 17 1 15 1
M  V30 18 1 16 5
M  V30 19 1 17 8
M  V30 20 1 18 8
M  V30 21 1 19 11
M  V30 22 1 20 12
M  V30 23 1 21 12
M  V30 24 1 22 13
M  V30 25 1 23 13
M  V30 END BOND
M  V30 END CTAB
M  END
>  <i_epik_Tot_Q>  (1) 
0

>  <i_epik_Tot_abs_Q>  (1) 
0

>  <i_i_glide_confnum>  (1) 
2

>  <i_i_glide_lignum>  (1) 
102

>  <i_i_glide_posenum>  (1) 
60

>  <i_i_glide_rotatable_bonds>  (1) 
0

>  <i_lp_mmshare_version>  (1) 
72125

>  <i_m_source_file_index>  (1) 
94

>  <i_f3d_flags>  (1) 
0

>  <num_sample>  (1) 
100

>  <b_lp_Chiralities_Consistent>  (1) 
1

>  <r_epik_Charging_Adjusted_Penalty>  (1) 
0

>  <r_epik_Ionization_Penalty>  (1) 
0

>  <r_epik_Ionization_Penalty_Charging>  (1) 
0

>  <r_epik_Ionization_Penalty_Neutral>  (1) 
0

>  <r_epik_State_Penalty>  (1) 
-0

>  <r_glide_ring_energy>  (1) 
0.0016243131038040329

>  <r_i_docking_score>  (1) 
-6.4788192007554164

>  <r_i_glide_ecoul>  (1) 
-1.0102613088991128

>  <r_i_glide_eff_state_penalty>  (1) 
-0

>  <r_i_glide_einternal>  (1) 
0

>  <r_i_glide_emodel>  (1) 
-35.484844491259935

>  <r_i_glide_emodel_strain>  (1) 
0

>  <r_i_glide_energy>  (1) 
-24.62374319241815

>  <r_i_glide_erotb>  (1) 
0

>  <r_i_glide_esite>  (1) 
0

>  <r_i_glide_evdw>  (1) 
-23.613481883519036

>  <r_i_glide_gscore>  (1) 
-6.4788192007554164

>  <r_i_glide_gscore_strain>  (1) 
0

>  <r_i_glide_hbond>  (1) 
0

>  <r_i_glide_ligand_efficiency>  (1) 
-0.49837070775041664

>  <r_i_glide_ligand_efficiency_ln>  (1) 
-1.817366405835491

>  <r_i_glide_ligand_efficiency_sa>  (1) 
-1.171836332477499

>  <r_i_glide_lipo>  (1) 
-2.2379954129896991

>  <r_i_glide_metal>  (1) 
-0

>  <r_i_glide_rewards>  (1) 
-2.9086104972548972

>  <r_lp_Energy>  (1) 
18.084001999999998

>  <r_lp_tautomer_probability>  (1) 
1

>  <s_epik_cmdline>  (1) 
J2VwaWtfcHl0aG9uJywgJy1waHQnLCAnMS4wJywgJy1waCcsICc3LjQnLCAnLXRuJywgJzgnLCAnLW1hJywgJzUwMCcsICctaW1hZScsICc8aW5maWxlLm1hZT4nLCAnLW9tYWUnLCAnPG91dGZpbGUubWFlPic=

>  <s_epik_input>  (1) 
TzFbQ0gyXVtDSDJdYyhjMTIpW2NIXWMzYyhbY0hdMilPW0NIMl1bQ0gyXU8z

>  <s_glide_docking_method>  (1) 
confgen

>  <s_i_glide_gridfile>  (1) 
gpcr_drd2_6luq_protein_autoprepared_prepared

>  <s_lp_Force_Field>  (1) 
S-OPLS

>  <s_lp_Variant>  (1) 
Pocket2Mol_93-1

>  <s_m_source_file>  (1) 
generated_generic_title2_ligand_Pocket2Mol_2026-06-23_prepared.sdf

>  <GenAI_Model>  (1) 
Pocket2Mol

>  <Protein>  (1) 
generic_title2

$$$$
Pocket2Mol_83
     RDKit          3D

  0  0  0  0  0  0  0  0  0  0999 V3000
M  V30 BEGIN CTAB
M  V30 COUNTS 21 22 0 0 1
M  V30 BEGIN ATOM
M  V30 1 C 12.234697 8.124699 -2.374460 0
M  V30 2 O 12.252631 9.300225 -3.268280 0
M  V30 3 C 11.794160 8.778771 -4.426736 0
M  V30 4 C 11.519666 7.456691 -4.407791 0
M  V30 5 C 11.025558 6.790227 -5.546187 0
M  V30 6 C 11.775412 6.790229 -3.123212 0
M  V30 7 C 11.612651 9.544009 -5.588577 0
M  V30 8 C 10.823571 7.527431 -6.746960 0
M  V30 9 N 10.342081 6.889336 -7.921229 0
M  V30 10 C 11.130881 8.915906 -6.759458 0
M  V30 11 O 9.724980 5.657015 -7.698913 0
M  V30 12 O 9.775409 7.756654 -8.869339 0
M  V30 13 H 11.554775 8.338327 -1.549210 0
M  V30 14 H 13.224709 7.997260 -1.938362 0
M  V30 15 H 10.812218 5.734425 -5.504839 0
M  V30 16 H 10.874005 6.347963 -2.698193 0
M  V30 17 H 12.572750 6.051199 -3.185022 0
M  V30 18 H 11.842336 10.599199 -5.589552 0
M  V30 19 H 10.999897 9.490876 -7.659352 0
M  V30 20 H 10.255407 5.026159 -8.162488 0
M  V30 21 H 8.826342 7.672136 -8.784682 0
M  V30 END ATOM
M  V30 BEGIN BOND
M  V30 1 1 2 1
M  V30 2 1 3 2
M  V30 3 2 4 3
M  V30 4 1 5 4
M  V30 5 1 6 1
M  V30 6 1 6 4
M  V30 7 1 7 3
M  V30 8 2 8 5
M  V30 9 1 9 8
M  V30 10 2 10 7
M  V30 11 1 10 8
M  V30 12 1 11 9
M  V30 13 1 12 9
M  V30 14 1 13 1
M  V30 15 1 14 1
M  V30 16 1 15 5
M  V30 17 1 16 6
M  V30 18 1 17 6
M  V30 19 1 18 7
M  V30 20 1 19 10
M  V30 21 1 20 11
M  V30 22 1 21 12
M  V30 END BOND
M  V30 END CTAB
M  END
>  <i_epik_Tot_Q>  (1) 
0

>  <i_epik_Tot_abs_Q>  (1) 
0

>  <i_i_glide_confnum>  (1) 
1

>  <i_i_glide_lignum>  (1) 
90

>  <i_i_glide_posenum>  (1) 
302

>  <i_i_glide_rotatable_bonds>  (1) 
3

>  <i_lp_mmshare_version>  (1) 
72125

>  <i_m_source_file_index>  (1) 
84

>  <i_f3d_flags>  (1) 
0

>  <num_sample>  (1) 
100

>  <b_lp_Chiralities_Consistent>  (1) 
1

>  <r_epik_Charging_Adjusted_Penalty>  (1) 
0

>  <r_epik_Ionization_Penalty>  (1) 
0.00063218327523872333

>  <r_epik_Ionization_Penalty_Charging>  (1) 
0

>  <r_epik_Ionization_Penalty_Neutral>  (1) 
0.00063218327523872333

>  <r_epik_State_Penalty>  (1) 
-0

>  <r_glide_ring_energy>  (1) 
0

>  <r_i_docking_score>  (1) 
-6.4744140334114437

>  <r_i_glide_ecoul>  (1) 
-2.9628935510765091

>  <r_i_glide_eff_state_penalty>  (1) 
-0

>  <r_i_glide_einternal>  (1) 
0.62172730946329091

>  <r_i_glide_emodel>  (1) 
-38.586172211522893

>  <r_i_glide_emodel_strain>  (1) 
0.27382510220198952

>  <r_i_glide_energy>  (1) 
-26.147436636213687

>  <r_i_glide_erotb>  (1) 
0

>  <r_i_glide_esite>  (1) 
-0.0074980794971290345

>  <r_i_glide_evdw>  (1) 
-23.184543085137179

>  <r_i_glide_gscore>  (1) 
-6.4744140334114437

>  <r_i_glide_gscore_strain>  (1) 
0

>  <r_i_glide_hbond>  (1) 
-0.16

>  <r_i_glide_ligand_efficiency>  (1) 
-0.53953450278428694

>  <r_i_glide_ligand_efficiency_ln>  (1) 
-1.8578443224025258

>  <r_i_glide_ligand_efficiency_sa>  (1) 
-1.2352256593722073

>  <r_i_glide_lipo>  (1) 
-2.0621449769981979

>  <r_i_glide_metal>  (1) 
-0

>  <r_i_glide_rewards>  (1) 
-2.6411097899977807

>  <r_lp_Energy>  (1) 
14.636832

>  <r_lp_tautomer_probability>  (1) 
1

>  <s_epik_Chemistry_Notes>  (1) 
This compound has a N-S or N-O group and may undergo hydrolysis at high or low pH.

>  <s_epik_cmdline>  (1) 
J2VwaWtfcHl0aG9uJywgJy1waHQnLCAnMS4wJywgJy1waCcsICc3LjQnLCAnLXRuJywgJzgnLCAnLW1hJywgJzUwMCcsICctaW1hZScsICc8aW5maWxlLm1hZT4nLCAnLW9tYWUnLCAnPG91dGZpbGUubWFlPic=

>  <s_epik_input>  (1) 
TzFbQ0gyXVtDSDJdYyhjMTIpW2NIXWMoTihbT0hdKVtPSF0pW2NIXVtjSF0y

>  <s_glide_docking_method>  (1) 
confgen

>  <s_i_glide_gridfile>  (1) 
gpcr_drd2_6luq_protein_autoprepared_prepared

>  <s_lp_Force_Field>  (1) 
S-OPLS

>  <s_lp_Variant>  (1) 
Pocket2Mol_83-1

>  <s_m_source_file>  (1) 
generated_generic_title2_ligand_Pocket2Mol_2026-06-23_prepared.sdf

>  <GenAI_Model>  (1) 
Pocket2Mol

>  <Protein>  (1) 
generic_title2

$$$$
Pocket2Mol_92
     RDKit          3D

  0  0  0  0  0  0  0  0  0  0999 V3000
M  V30 BEGIN CTAB
M  V30 COUNTS 26 27 0 0 1
M  V30 BEGIN ATOM
M  V30 1 C 9.943267 7.283575 -9.368361 0
M  V30 2 O 11.275056 7.590544 -9.748793 0
M  V30 3 C 9.849391 6.755861 -7.926501 0
M  V30 4 O 9.757412 7.827673 -6.997767 0
M  V30 5 C 11.807614 8.732124 -9.100895 0
M  V30 6 C 10.942991 8.547005 -6.663458 0 CFG=1
M  V30 7 C 11.375409 8.271224 -5.229840 0
M  V30 8 C 12.136766 8.418726 -7.637257 0
M  V30 9 C 11.363840 6.956476 -4.717904 0
M  V30 10 N 11.776318 9.348545 -4.509281 0
M  V30 11 C 12.175587 9.124780 -3.233989 0
M  V30 12 C 12.191144 7.850025 -2.636659 0
M  V30 13 C 11.775413 6.745725 -3.393912 0
M  V30 14 H 9.590683 6.508638 -10.048966 0
M  V30 15 H 9.295019 8.146960 -9.519255 0
M  V30 16 H 10.653139 6.058923 -7.686762 0
M  V30 17 H 8.919987 6.193737 -7.828632 0
M  V30 18 H 12.728003 8.989646 -9.624492 0
M  V30 19 H 11.143420 9.590191 -9.195238 0
M  V30 20 H 12.912396 9.110030 -7.304753 0
M  V30 21 H 12.582399 7.426729 -7.580798 0
M  V30 22 H 11.038856 6.128361 -5.330111 0
M  V30 23 H 12.490052 9.990210 -2.673683 0
M  V30 24 H 12.516879 7.725392 -1.615048 0
M  V30 25 H 11.775171 5.753378 -2.967199 0
M  V30 26 H 10.625568 9.590227 -6.684332 0
M  V30 END ATOM
M  V30 BEGIN BOND
M  V30 1 1 2 1
M  V30 2 1 3 1
M  V30 3 1 4 3
M  V30 4 1 5 2
M  V30 5 1 6 4
M  V30 6 1 7 6
M  V30 7 1 8 5
M  V30 8 1 8 6
M  V30 9 1 9 7
M  V30 10 2 10 7
M  V30 11 1 11 10
M  V30 12 2 12 11
M  V30 13 2 13 9
M  V30 14 1 13 12
M  V30 15 1 14 1
M  V30 16 1 15 1
M  V30 17 1 16 3
M  V30 18 1 17 3
M  V30 19 1 18 5
M  V30 20 1 19 5
M  V30 21 1 20 8
M  V30 22 1 21 8
M  V30 23 1 22 9
M  V30 24 1 23 11
M  V30 25 1 24 12
M  V30 26 1 25 13
M  V30 27 1 6 26 CFG=1
M  V30 END BOND
M  V30 END CTAB
M  END
>  <i_epik_Tot_Q>  (1) 
0

>  <i_epik_Tot_abs_Q>  (1) 
0

>  <i_i_glide_confnum>  (1) 
16

>  <i_i_glide_lignum>  (1) 
100

>  <i_i_glide_posenum>  (1) 
25

>  <i_i_glide_rotatable_bonds>  (1) 
1

>  <i_lp_mmshare_version>  (1) 
72125

>  <i_m_source_file_index>  (1) 
93

>  <i_f3d_flags>  (1) 
0

>  <num_sample>  (1) 
100

>  <b_lp_Chiralities_Consistent>  (1) 
1

>  <r_epik_Charging_Adjusted_Penalty>  (1) 
0.0037896276157117258

>  <r_epik_Ionization_Penalty>  (1) 
0.0037896276174286705

>  <r_epik_Ionization_Penalty_Charging>  (1) 
0

>  <r_epik_Ionization_Penalty_Neutral>  (1) 
0.0037896276174286705

>  <r_epik_State_Penalty>  (1) 
0.0037896276157117258

>  <r_glide_ring_energy>  (1) 
1.3090148209089068

>  <r_i_docking_score>  (1) 
-6.4448361000400949

>  <r_i_glide_ecoul>  (1) 
-1.9643661849395881

>  <r_i_glide_eff_state_penalty>  (1) 
0.0037896276157117258

>  <r_i_glide_einternal>  (1) 
1.519852781491875

>  <r_i_glide_emodel>  (1) 
-40.99609309434306

>  <r_i_glide_emodel_strain>  (1) 
0

>  <r_i_glide_energy>  (1) 
-30.529937599577163

>  <r_i_glide_erotb>  (1) 
0.4895878840251785

>  <r_i_glide_esite>  (1) 
0

>  <r_i_glide_evdw>  (1) 
-28.565571414637574

>  <r_i_glide_gscore>  (1) 
-6.4486257276558065

>  <r_i_glide_gscore_strain>  (1) 
0

>  <r_i_glide_hbond>  (1) 
0

>  <r_i_glide_ligand_efficiency>  (1) 
-0.49575662308000729

>  <r_i_glide_ligand_efficiency_ln>  (1) 
-1.8078338438527539

>  <r_i_glide_ligand_efficiency_sa>  (1) 
-1.1656897445153265

>  <r_i_glide_lipo>  (1) 
-2.2811342863588293

>  <r_i_glide_metal>  (1) 
-0

>  <r_i_glide_rewards>  (1) 
-2.9341458268493397

>  <r_lp_Energy>  (1) 
20.645538999999999

>  <s_epik_cmdline>  (1) 
J2VwaWtfcHl0aG9uJywgJy1waHQnLCAnMS4wJywgJy1waCcsICc3LjQnLCAnLXRuJywgJzgnLCAnLW1hJywgJzUwMCcsICctaW1hZScsICc8aW5maWxlLm1hZT4nLCAnLW9tYWUnLCAnPG91dGZpbGUubWFlPic=

>  <s_epik_input>  (1) 
W0NIMl0xW0NIMl1PW0NIMl1bQ0gyXU8vQzE9QzJcW0NIXT1bQ0hdW0NIXT1bQ0hdW05IXTI=

>  <s_glide_docking_method>  (1) 
confgen

>  <s_i_glide_gridfile>  (1) 
gpcr_drd2_6luq_protein_autoprepared_prepared

>  <s_lp_Force_Field>  (1) 
S-OPLS

>  <s_lp_Variant>  (1) 
Pocket2Mol_92-1

>  <s_m_source_file>  (1) 
generated_generic_title2_ligand_Pocket2Mol_2026-06-23_prepared.sdf

>  <GenAI_Model>  (1) 
Pocket2Mol

>  <Protein>  (1) 
generic_title2

$$$$
Pocket2Mol_73
     RDKit          3D

  0  0  0  0  0  0  0  0  0  0999 V3000
M  V30 BEGIN CTAB
M  V30 COUNTS 20 21 0 0 1
M  V30 BEGIN ATOM
M  V30 1 C 12.437164 8.506978 -2.049664 0
M  V30 2 O 12.214109 9.590227 -3.030196 0
M  V30 3 C 11.814366 8.903775 -4.120306 0
M  V30 4 C 11.775410 7.560733 -3.985025 0
M  V30 5 C 11.357763 6.727766 -5.036943 0
M  V30 6 C 12.176108 7.058004 -2.668260 0
M  V30 7 C 11.448396 9.527046 -5.325484 0
M  V30 8 C 10.975948 7.312010 -6.267731 0
M  V30 9 N 10.565519 6.493572 -7.331772 0
M  V30 10 C 11.027239 8.727139 -6.412351 0
M  V30 11 O 9.775410 7.142523 -8.299597 0
M  V30 12 H 11.775412 8.673658 -1.198965 0
M  V30 13 H 13.454685 8.582741 -1.668092 0
M  V30 14 H 11.328516 5.656047 -4.906408 0
M  V30 15 H 11.369112 6.516605 -2.173116 0
M  V30 16 H 13.075835 6.447047 -2.724037 0
M  V30 17 H 11.486057 10.602366 -5.419355 0
M  V30 18 H 10.212378 5.569087 -7.124520 0
M  V30 19 H 10.745921 9.190226 -7.345281 0
M  V30 20 H 8.886086 7.190221 -7.963846 0
M  V30 END ATOM
M  V30 BEGIN BOND
M  V30 1 1 2 1
M  V30 2 1 3 2
M  V30 3 2 4 3
M  V30 4 1 5 4
M  V30 5 1 6 1
M  V30 6 1 6 4
M  V30 7 1 7 3
M  V30 8 2 8 5
M  V30 9 1 9 8
M  V30 10 2 10 7
M  V30 11 1 10 8
M  V30 12 1 11 9
M  V30 13 1 12 1
M  V30 14 1 13 1
M  V30 15 1 14 5
M  V30 16 1 15 6
M  V30 17 1 16 6
M  V30 18 1 17 7
M  V30 19 1 18 9
M  V30 20 1 19 10
M  V30 21 1 20 11
M  V30 END BOND
M  V30 END CTAB
M  END
>  <i_epik_Tot_Q>  (1) 
0

>  <i_epik_Tot_abs_Q>  (1) 
0

>  <i_i_glide_confnum>  (1) 
1

>  <i_i_glide_lignum>  (1) 
80

>  <i_i_glide_posenum>  (1) 
83

>  <i_i_glide_rotatable_bonds>  (1) 
2

>  <i_lp_mmshare_version>  (1) 
72125

>  <i_m_source_file_index>  (1) 
74

>  <i_f3d_flags>  (1) 
0

>  <num_sample>  (1) 
100

>  <b_lp_Chiralities_Consistent>  (1) 
1

>  <r_epik_Charging_Adjusted_Penalty>  (1) 
0

>  <r_epik_Ionization_Penalty>  (1) 
0.00049506315318442675

>  <r_epik_Ionization_Penalty_Charging>  (1) 
0

>  <r_epik_Ionization_Penalty_Neutral>  (1) 
0.00049506315318442675

>  <r_epik_State_Penalty>  (1) 
-0

>  <r_glide_ring_energy>  (1) 
0

>  <r_i_docking_score>  (1) 
-6.4441681732691141

>  <r_i_glide_ecoul>  (1) 
-1.8903719500023997

>  <r_i_glide_eff_state_penalty>  (1) 
-0

>  <r_i_glide_einternal>  (1) 
0.53017584905590809

>  <r_i_glide_emodel>  (1) 
-36.884730075303345

>  <r_i_glide_emodel_strain>  (1) 
0

>  <r_i_glide_energy>  (1) 
-26.560557362792274

>  <r_i_glide_erotb>  (1) 
0

>  <r_i_glide_esite>  (1) 
0

>  <r_i_glide_evdw>  (1) 
-24.670185412789873

>  <r_i_glide_gscore>  (1) 
-6.4441681732691141

>  <r_i_glide_gscore_strain>  (1) 
0

>  <r_i_glide_hbond>  (1) 
0

>  <r_i_glide_ligand_efficiency>  (1) 
-0.58583347029719224

>  <r_i_glide_ligand_efficiency_ln>  (1) 
-1.8965175957179972

>  <r_i_glide_ligand_efficiency_sa>  (1) 
-1.3028819743300861

>  <r_i_glide_lipo>  (1) 
-2.2746752942118058

>  <r_i_glide_metal>  (1) 
-0

>  <r_i_glide_rewards>  (1) 
-2.6524278159174552

>  <r_lp_Energy>  (1) 
14.863064999999999

>  <r_lp_tautomer_probability>  (1) 
1

>  <s_epik_Chemistry_Notes>  (1) 
This compound has a N-S or N-O group and may undergo hydrolysis at high or low pH.

>  <s_epik_cmdline>  (1) 
J2VwaWtfcHl0aG9uJywgJy1waHQnLCAnMS4wJywgJy1waCcsICc3LjQnLCAnLXRuJywgJzgnLCAnLW1hJywgJzUwMCcsICctaW1hZScsICc8aW5maWxlLm1hZT4nLCAnLW9tYWUnLCAnPG91dGZpbGUubWFlPic=

>  <s_epik_input>  (1) 
TzFbQ0gyXVtDSDJdYyhjMTIpW2NIXWMoW05IXVtPSF0pW2NIXVtjSF0y

>  <s_glide_docking_method>  (1) 
confgen

>  <s_i_glide_gridfile>  (1) 
gpcr_drd2_6luq_protein_autoprepared_prepared

>  <s_lp_Force_Field>  (1) 
S-OPLS

>  <s_lp_Variant>  (1) 
Pocket2Mol_73-1

>  <s_m_source_file>  (1) 
generated_generic_title2_ligand_Pocket2Mol_2026-06-23_prepared.sdf

>  <GenAI_Model>  (1) 
Pocket2Mol

>  <Protein>  (1) 
generic_title2

$$$$
Pocket2Mol_84
     RDKit          3D

  0  0  0  0  0  0  0  0  0  0999 V3000
M  V30 BEGIN CTAB
M  V30 COUNTS 23 24 0 0 1
M  V30 BEGIN ATOM
M  V30 1 C 11.958159 9.619645 -4.632285 0
M  V30 2 O 11.446726 8.260701 -4.384785 0
M  V30 3 C 11.050599 7.882562 -5.616429 0
M  V30 4 C 11.323090 8.747147 -6.609892 0
M  V30 5 C 10.957980 8.476456 -7.944154 0
M  V30 6 C 12.019133 9.967798 -6.186661 0
M  V30 7 C 10.286586 7.260691 -8.241920 0
M  V30 8 N 9.905920 6.965844 -9.575685 0
M  V30 9 C 10.399829 6.670842 -5.862987 0
M  V30 10 C 10.014101 6.348109 -7.181540 0
M  V30 11 O 9.375414 8.075685 -10.253489 0
M  V30 12 C 8.955075 5.866383 -9.723589 0
M  V30 13 H 12.934910 9.745451 -4.163266 0
M  V30 14 H 11.277463 10.312512 -4.134605 0
M  V30 15 H 11.185550 9.183434 -8.728413 0
M  V30 16 H 13.052091 9.985335 -6.528556 0
M  V30 17 H 11.491942 10.886325 -6.434462 0
M  V30 18 H 10.193076 5.990822 -5.051667 0
M  V30 19 H 9.511657 5.414850 -7.373327 0
M  V30 20 H 8.444513 8.088535 -9.990266 0
M  V30 21 H 8.573047 5.820381 -10.744335 0
M  V30 22 H 9.431464 4.908148 -9.515639 0
M  V30 23 H 8.097536 5.989158 -9.060892 0
M  V30 END ATOM
M  V30 BEGIN BOND
M  V30 1 1 2 1
M  V30 2 1 3 2
M  V30 3 2 4 3
M  V30 4 1 5 4
M  V30 5 1 6 1
M  V30 6 1 6 4
M  V30 7 2 7 5
M  V30 8 1 8 7
M  V30 9 1 9 3
M  V30 10 1 10 7
M  V30 11 2 10 9
M  V30 12 1 11 8
M  V30 13 1 12 8
M  V30 14 1 13 1
M  V30 15 1 14 1
M  V30 16 1 15 5
M  V30 17 1 16 6
M  V30 18 1 17 6
M  V30 19 1 18 9
M  V30 20 1 19 10
M  V30 21 1 20 11
M  V30 22 1 21 12
M  V30 23 1 22 12
M  V30 24 1 23 12
M  V30 END BOND
M  V30 END CTAB
M  END
>  <i_epik_Tot_Q>  (1) 
0

>  <i_epik_Tot_abs_Q>  (1) 
0

>  <i_i_glide_confnum>  (1) 
2

>  <i_i_glide_lignum>  (1) 
91

>  <i_i_glide_posenum>  (1) 
220

>  <i_i_glide_rotatable_bonds>  (1) 
2

>  <i_lp_mmshare_version>  (1) 
72125

>  <i_m_source_file_index>  (1) 
85

>  <i_f3d_flags>  (1) 
0

>  <num_sample>  (1) 
100

>  <b_lp_Chiralities_Consistent>  (1) 
1

>  <r_epik_Charging_Adjusted_Penalty>  (1) 
0

>  <r_epik_Ionization_Penalty>  (1) 
0.00097486698469066322

>  <r_epik_Ionization_Penalty_Charging>  (1) 
0

>  <r_epik_Ionization_Penalty_Neutral>  (1) 
0.00097486698469066322

>  <r_epik_State_Penalty>  (1) 
-0

>  <r_glide_ring_energy>  (1) 
0

>  <r_i_docking_score>  (1) 
-6.4417358408821661

>  <r_i_glide_ecoul>  (1) 
-6.7392519723978443

>  <r_i_glide_eff_state_penalty>  (1) 
-0

>  <r_i_glide_einternal>  (1) 
0.7758171516761827

>  <r_i_glide_emodel>  (1) 
-35.731280060916774

>  <r_i_glide_emodel_strain>  (1) 
0.021469126358020674

>  <r_i_glide_energy>  (1) 
-25.533245836853141

>  <r_i_glide_erotb>  (1) 
0

>  <r_i_glide_esite>  (1) 
-0.088213443149369658

>  <r_i_glide_evdw>  (1) 
-18.793993864455295

>  <r_i_glide_gscore>  (1) 
-6.4417358408821661

>  <r_i_glide_gscore_strain>  (1) 
0

>  <r_i_glide_hbond>  (1) 
-0.16

>  <r_i_glide_ligand_efficiency>  (1) 
-0.53681132007351384

>  <r_i_glide_ligand_efficiency_ln>  (1) 
-1.8484672584483834

>  <r_i_glide_ligand_efficiency_sa>  (1) 
-1.2289911273040133

>  <r_i_glide_lipo>  (1) 
-1.6835867184553659

>  <r_i_glide_metal>  (1) 
-0

>  <r_i_glide_rewards>  (1) 
-2.5593481901949886

>  <r_lp_Energy>  (1) 
21.474352

>  <r_lp_tautomer_probability>  (1) 
1

>  <s_epik_Chemistry_Notes>  (1) 
This compound has a N-S or N-O group and may undergo hydrolysis at high or low pH.

>  <s_epik_cmdline>  (1) 
J2VwaWtfcHl0aG9uJywgJy1waHQnLCAnMS4wJywgJy1waCcsICc3LjQnLCAnLXRuJywgJzgnLCAnLW1hJywgJzUwMCcsICctaW1hZScsICc8aW5maWxlLm1hZT4nLCAnLW9tYWUnLCAnPG91dGZpbGUubWFlPic=

>  <s_epik_input>  (1) 
TzFbQ0gyXVtDSDJdYyhjMTIpW2NIXWMoTihbT0hdKVtDSDNdKVtjSF1bY0hdMg==

>  <s_glide_docking_method>  (1) 
confgen

>  <s_i_glide_gridfile>  (1) 
gpcr_drd2_6luq_protein_autoprepared_prepared

>  <s_lp_Force_Field>  (1) 
S-OPLS

>  <s_lp_Variant>  (1) 
Pocket2Mol_84-1

>  <s_m_source_file>  (1) 
generated_generic_title2_ligand_Pocket2Mol_2026-06-23_prepared.sdf

>  <GenAI_Model>  (1) 
Pocket2Mol

>  <Protein>  (1) 
generic_title2

$$$$
Pocket2Mol_63
     RDKit          3D

  0  0  0  0  0  0  0  0  0  0999 V3000
M  V30 BEGIN CTAB
M  V30 COUNTS 19 20 0 0 1
M  V30 BEGIN ATOM
M  V30 1 C 9.916448 7.582083 -7.706328 0
M  V30 2 O 10.439739 8.790227 -7.290011 0
M  V30 3 C 11.009333 8.580610 -6.059356 0
M  V30 4 C 10.853121 7.235020 -5.696995 0
M  V30 5 C 11.386365 6.840345 -4.440503 0
M  V30 6 C 12.045474 7.782151 -3.602212 0
M  V30 7 O 12.543427 7.366970 -2.383668 0
M  V30 8 C 11.650229 9.530501 -5.263456 0
M  V30 9 C 10.149611 6.597407 -6.765889 0
M  V30 10 C 12.175649 9.137772 -4.024624 0
M  V30 11 C 12.977375 8.353698 -1.458072 0
M  V30 12 H 9.419681 7.586676 -8.667096 0
M  V30 13 H 11.287961 5.815160 -4.117441 0
M  V30 14 H 11.737669 10.553273 -5.597848 0
M  V30 15 H 9.858368 5.562167 -6.815504 0
M  V30 16 H 12.669677 9.864542 -3.401317 0
M  V30 17 H 13.375367 7.885931 -0.558412 0
M  V30 18 H 13.807755 8.913690 -1.873556 0
M  V30 19 H 12.176842 9.039403 -1.175467 0
M  V30 END ATOM
M  V30 BEGIN BOND
M  V30 1 1 2 1
M  V30 2 1 3 2
M  V30 3 1 4 3
M  V30 4 2 5 4
M  V30 5 1 6 5
M  V30 6 1 7 6
M  V30 7 2 8 3
M  V30 8 2 9 1
M  V30 9 1 9 4
M  V30 10 2 10 6
M  V30 11 1 10 8
M  V30 12 1 11 7
M  V30 13 1 12 1
M  V30 14 1 13 5
M  V30 15 1 14 8
M  V30 16 1 15 9
M  V30 17 1 16 10
M  V30 18 1 17 11
M  V30 19 1 18 11
M  V30 20 1 19 11
M  V30 END BOND
M  V30 END CTAB
M  END
>  <i_epik_Tot_Q>  (1) 
0

>  <i_epik_Tot_abs_Q>  (1) 
0

>  <i_i_glide_confnum>  (1) 
1

>  <i_i_glide_lignum>  (1) 
70

>  <i_i_glide_posenum>  (1) 
357

>  <i_i_glide_rotatable_bonds>  (1) 
1

>  <i_lp_mmshare_version>  (1) 
72125

>  <i_m_source_file_index>  (1) 
64

>  <i_f3d_flags>  (1) 
0

>  <num_sample>  (1) 
100

>  <b_lp_Chiralities_Consistent>  (1) 
1

>  <r_epik_Charging_Adjusted_Penalty>  (1) 
0

>  <r_epik_Ionization_Penalty>  (1) 
0

>  <r_epik_Ionization_Penalty_Charging>  (1) 
0

>  <r_epik_Ionization_Penalty_Neutral>  (1) 
0

>  <r_epik_State_Penalty>  (1) 
-0

>  <r_glide_ring_energy>  (1) 
0

>  <r_i_docking_score>  (1) 
-6.4304439653290331

>  <r_i_glide_ecoul>  (1) 
-1.6470133704561087

>  <r_i_glide_eff_state_penalty>  (1) 
-0

>  <r_i_glide_einternal>  (1) 
3.8830759359950626

>  <r_i_glide_emodel>  (1) 
-32.130067563619264

>  <r_i_glide_emodel_strain>  (1) 
1.1764456075979979e-10

>  <r_i_glide_energy>  (1) 
-24.248564624372595

>  <r_i_glide_erotb>  (1) 
0

>  <r_i_glide_esite>  (1) 
0

>  <r_i_glide_evdw>  (1) 
-22.601551253916487

>  <r_i_glide_gscore>  (1) 
-6.4304439653290331

>  <r_i_glide_gscore_strain>  (1) 
0

>  <r_i_glide_hbond>  (1) 
0

>  <r_i_glide_ligand_efficiency>  (1) 
-0.58458581502991214

>  <r_i_glide_ligand_efficiency_ln>  (1) 
-1.8924785636589607

>  <r_i_glide_ligand_efficiency_sa>  (1) 
-1.3001072138557612

>  <r_i_glide_lipo>  (1) 
-2.2646442623935958

>  <r_i_glide_metal>  (1) 
-0

>  <r_i_glide_rewards>  (1) 
-2.7886701346711966

>  <r_lp_Energy>  (1) 
14.639571

>  <r_lp_tautomer_probability>  (1) 
1

>  <s_epik_cmdline>  (1) 
J2VwaWtfcHl0aG9uJywgJy1waHQnLCAnMS4wJywgJy1waCcsICc3LjQnLCAnLXRuJywgJzgnLCAnLW1hJywgJzUwMCcsICctaW1hZScsICc8aW5maWxlLm1hZT4nLCAnLW9tYWUnLCAnPG91dGZpbGUubWFlPic=

>  <s_epik_input>  (1) 
bzFbY0hdW2NIXWMoYzEyKVtjSF1jKE9bQ0gzXSlbY0hdW2NIXTI=

>  <s_glide_docking_method>  (1) 
confgen

>  <s_i_glide_gridfile>  (1) 
gpcr_drd2_6luq_protein_autoprepared_prepared

>  <s_lp_Force_Field>  (1) 
S-OPLS

>  <s_lp_Variant>  (1) 
Pocket2Mol_63-1

>  <s_m_source_file>  (1) 
generated_generic_title2_ligand_Pocket2Mol_2026-06-23_prepared.sdf

>  <GenAI_Model>  (1) 
Pocket2Mol

>  <Protein>  (1) 
generic_title2

$$$$
Pocket2Mol_75
     RDKit          3D

  0  0  0  0  0  0  0  0  0  0999 V3000
M  V30 BEGIN CTAB
M  V30 COUNTS 17 18 0 0 1
M  V30 BEGIN ATOM
M  V30 1 C 9.775460 7.350198 -8.063465 0
M  V30 2 O 10.137359 8.615902 -7.648595 0
M  V30 3 C 10.747341 8.482906 -6.425393 0
M  V30 4 C 10.777913 7.127699 -6.066661 0
M  V30 5 C 11.375407 6.806887 -4.819326 0
M  V30 6 C 11.912141 7.831222 -3.984975 0
M  V30 7 C 10.154347 6.402250 -7.131853 0
M  V30 8 N 12.525687 7.481263 -2.686905 0 CHG=1
M  V30 9 C 11.854899 9.187037 -4.401155 0
M  V30 10 O 12.561292 6.297394 -2.377705 0 CHG=-1
M  V30 11 C 11.267640 9.509735 -5.632784 0
M  V30 12 O 12.960783 8.396246 -1.998586 0
M  V30 13 H 9.267487 7.291524 -9.017503 0
M  V30 14 H 11.418218 5.775959 -4.500579 0
M  V30 15 H 10.006163 5.335432 -7.185008 0
M  V30 16 H 12.259848 9.967084 -3.773887 0
M  V30 17 H 11.215103 10.536223 -5.964022 0
M  V30 END ATOM
M  V30 BEGIN BOND
M  V30 1 1 2 1
M  V30 2 1 3 2
M  V30 3 1 4 3
M  V30 4 2 5 4
M  V30 5 1 6 5
M  V30 6 2 7 1
M  V30 7 1 7 4
M  V30 8 1 8 6
M  V30 9 2 9 6
M  V30 10 1 10 8
M  V30 11 2 11 3
M  V30 12 1 11 9
M  V30 13 2 12 8
M  V30 14 1 13 1
M  V30 15 1 14 5
M  V30 16 1 15 7
M  V30 17 1 16 9
M  V30 18 1 17 11
M  V30 END BOND
M  V30 END CTAB
M  END
>  <i_epik_Tot_Q>  (1) 
0

>  <i_epik_Tot_abs_Q>  (1) 
2

>  <i_i_glide_confnum>  (1) 
1

>  <i_i_glide_lignum>  (1) 
82

>  <i_i_glide_posenum>  (1) 
80

>  <i_i_glide_rotatable_bonds>  (1) 
1

>  <i_lp_mmshare_version>  (1) 
72125

>  <i_m_source_file_index>  (1) 
76

>  <i_f3d_flags>  (1) 
0

>  <num_sample>  (1) 
100

>  <b_lp_Chiralities_Consistent>  (1) 
1

>  <r_epik_Charging_Adjusted_Penalty>  (1) 
0

>  <r_epik_Ionization_Penalty>  (1) 
0

>  <r_epik_Ionization_Penalty_Charging>  (1) 
0

>  <r_epik_Ionization_Penalty_Neutral>  (1) 
0

>  <r_epik_State_Penalty>  (1) 
-0

>  <r_glide_ring_energy>  (1) 
0

>  <r_i_docking_score>  (1) 
-6.4302715265498191

>  <r_i_glide_ecoul>  (1) 
-0.52817661361709478

>  <r_i_glide_eff_state_penalty>  (1) 
-0

>  <r_i_glide_einternal>  (1) 
0.016576203176195792

>  <r_i_glide_emodel>  (1) 
-36.634623158469594

>  <r_i_glide_emodel_strain>  (1) 
0

>  <r_i_glide_energy>  (1) 
-26.176890509438525

>  <r_i_glide_erotb>  (1) 
0

>  <r_i_glide_esite>  (1) 
0

>  <r_i_glide_evdw>  (1) 
-25.64871389582143

>  <r_i_glide_gscore>  (1) 
-6.4302715265498191

>  <r_i_glide_gscore_strain>  (1) 
0

>  <r_i_glide_hbond>  (1) 
0

>  <r_i_glide_ligand_efficiency>  (1) 
-0.5358559605458183

>  <r_i_glide_ligand_efficiency_ln>  (1) 
-1.8451775535912838

>  <r_i_glide_ligand_efficiency_sa>  (1) 
-1.226803899987789

>  <r_i_glide_lipo>  (1) 
-1.8269426730495164

>  <r_i_glide_metal>  (1) 
-0

>  <r_i_glide_rewards>  (1) 
-3.2416666666666667

>  <r_lp_Energy>  (1) 
17.097996999999999

>  <r_lp_tautomer_probability>  (1) 
1

>  <s_epik_cmdline>  (1) 
J2VwaWtfcHl0aG9uJywgJy1waHQnLCAnMS4wJywgJy1waCcsICc3LjQnLCAnLXRuJywgJzgnLCAnLW1hJywgJzUwMCcsICctaW1hZScsICc8aW5maWxlLm1hZT4nLCAnLW9tYWUnLCAnPG91dGZpbGUubWFlPic=

>  <s_epik_input>  (1) 
bzFbY0hdW2NIXWMoYzEyKVtjSF1jKFtOK10oW08tXSk9TylbY0hdW2NIXTI=

>  <s_glide_docking_method>  (1) 
confgen

>  <s_i_glide_gridfile>  (1) 
gpcr_drd2_6luq_protein_autoprepared_prepared

>  <s_lp_Force_Field>  (1) 
S-OPLS

>  <s_lp_Variant>  (1) 
Pocket2Mol_75-1

>  <s_m_source_file>  (1) 
generated_generic_title2_ligand_Pocket2Mol_2026-06-23_prepared.sdf

>  <GenAI_Model>  (1) 
Pocket2Mol

>  <Protein>  (1) 
generic_title2

$$$$
Pocket2Mol_0
     RDKit          3D

  0  0  0  0  0  0  0  0  0  0999 V3000
M  V30 BEGIN CTAB
M  V30 COUNTS 21 23 0 0 1
M  V30 BEGIN ATOM
M  V30 1 C 12.575385 8.671681 -2.226077 0
M  V30 2 O 12.549314 9.580575 -3.389795 0
M  V30 3 C 12.030620 8.790230 -4.352604 0
M  V30 4 C 11.775414 7.523340 -3.992595 0
M  V30 5 C 11.227303 6.601953 -4.892002 0
M  V30 6 C 12.115450 7.191211 -2.603066 0
M  V30 7 C 11.771339 9.244932 -5.650556 0
M  V30 8 C 10.934827 6.995841 -6.223812 0
M  V30 9 N 10.400019 6.112151 -7.106227 0
M  V30 10 C 10.131459 6.583416 -8.336800 0
M  V30 11 C 11.222768 8.362316 -6.618004 0
M  V30 12 C 10.415020 7.898232 -8.717779 0
M  V30 13 N 10.975410 8.790227 -7.880910 0
M  V30 14 H 11.908523 9.081847 -1.466509 0
M  V30 15 H 13.574630 8.671572 -1.791635 0
M  V30 16 H 11.026372 5.590228 -4.573418 0
M  V30 17 H 11.253424 6.846070 -2.031082 0
M  V30 18 H 12.929102 6.467230 -2.552626 0
M  V30 19 H 11.990283 10.268023 -5.916975 0
M  V30 20 H 9.680192 5.892313 -9.033796 0
M  V30 21 H 10.187214 8.244529 -9.715215 0
M  V30 END ATOM
M  V30 BEGIN BOND
M  V30 1 1 2 1
M  V30 2 1 3 2
M  V30 3 1 4 3
M  V30 4 2 5 4
M  V30 5 1 6 1
M  V30 6 1 6 4
M  V30 7 2 7 3
M  V30 8 1 8 5
M  V30 9 2 9 8
M  V30 10 1 10 9
M  V30 11 1 11 7
M  V30 12 1 11 8
M  V30 13 2 12 10
M  V30 14 2 13 11
M  V30 15 1 13 12
M  V30 16 1 14 1
M  V30 17 1 15 1
M  V30 18 1 16 5
M  V30 19 1 17 6
M  V30 20 1 18 6
M  V30 21 1 19 7
M  V30 22 1 20 10
M  V30 23 1 21 12
M  V30 END BOND
M  V30 END CTAB
M  END
>  <i_epik_Tot_Q>  (1) 
0

>  <i_epik_Tot_abs_Q>  (1) 
0

>  <i_i_glide_confnum>  (1) 
1

>  <i_i_glide_lignum>  (1) 
1

>  <i_i_glide_posenum>  (1) 
237

>  <i_i_glide_rotatable_bonds>  (1) 
0

>  <i_lp_mmshare_version>  (1) 
72125

>  <i_m_source_file_index>  (1) 
1

>  <i_f3d_flags>  (1) 
0

>  <num_sample>  (1) 
100

>  <b_lp_Chiralities_Consistent>  (1) 
1

>  <r_epik_Charging_Adjusted_Penalty>  (1) 
0

>  <r_epik_Ionization_Penalty>  (1) 
2.4588925185764017e-06

>  <r_epik_Ionization_Penalty_Charging>  (1) 
0

>  <r_epik_Ionization_Penalty_Neutral>  (1) 
2.4588925185764017e-06

>  <r_epik_State_Penalty>  (1) 
-0

>  <r_glide_ring_energy>  (1) 
0

>  <r_i_docking_score>  (1) 
-6.4289392162436663

>  <r_i_glide_ecoul>  (1) 
-1.2285317717239952

>  <r_i_glide_eff_state_penalty>  (1) 
-0

>  <r_i_glide_einternal>  (1) 
0

>  <r_i_glide_emodel>  (1) 
-36.919712201448014

>  <r_i_glide_emodel_strain>  (1) 
0

>  <r_i_glide_energy>  (1) 
-26.65501350660049

>  <r_i_glide_erotb>  (1) 
0

>  <r_i_glide_esite>  (1) 
0

>  <r_i_glide_evdw>  (1) 
-25.426481734876496

>  <r_i_glide_gscore>  (1) 
-6.4289392162436663

>  <r_i_glide_gscore_strain>  (1) 
0

>  <r_i_glide_hbond>  (1) 
0

>  <r_i_glide_ligand_efficiency>  (1) 
-0.49453378586489738

>  <r_i_glide_ligand_efficiency_ln>  (1) 
-1.8033746265673369

>  <r_i_glide_ligand_efficiency_sa>  (1) 
-1.1628144449540028

>  <r_i_glide_lipo>  (1) 
-2.3021838799527825

>  <r_i_glide_metal>  (1) 
-0

>  <r_i_glide_rewards>  (1) 
-2.67115148378846

>  <r_lp_Energy>  (1) 
22.769921999999998

>  <r_lp_tautomer_probability>  (1) 
1

>  <s_epik_cmdline>  (1) 
J2VwaWtfcHl0aG9uJywgJy1waHQnLCAnMS4wJywgJy1waCcsICc3LjQnLCAnLXRuJywgJzgnLCAnLW1hJywgJzUwMCcsICctaW1hZScsICc8aW5maWxlLm1hZT4nLCAnLW9tYWUnLCAnPG91dGZpbGUubWFlPic=

>  <s_epik_input>  (1) 
TzFbQ0gyXVtDSDJdYyhjMTIpW2NIXWMzYyhbY0hdMiluW2NIXVtjSF1uMw==

>  <s_glide_docking_method>  (1) 
confgen

>  <s_i_glide_gridfile>  (1) 
gpcr_drd2_6luq_protein_autoprepared_prepared

>  <s_lp_Force_Field>  (1) 
S-OPLS

>  <s_lp_Variant>  (1) 
Pocket2Mol_0-1

>  <s_m_source_file>  (1) 
generated_generic_title2_ligand_Pocket2Mol_2026-06-23_prepared.sdf

>  <GenAI_Model>  (1) 
Pocket2Mol

>  <Protein>  (1) 
generic_title2

$$$$
Pocket2Mol_49
     RDKit          3D

  0  0  0  0  0  0  0  0  0  0999 V3000
M  V30 BEGIN CTAB
M  V30 COUNTS 20 21 0 0 1
M  V30 BEGIN ATOM
M  V30 1 C 11.826111 9.473617 -6.733588 0
M  V30 2 O 11.956559 9.848536 -5.373714 0
M  V30 3 C 11.951859 8.826739 -4.454465 0
M  V30 4 C 11.375417 7.566765 -4.770006 0
M  V30 5 C 11.384354 6.538435 -3.812806 0
M  V30 6 C 12.524112 9.035287 -3.185351 0
M  V30 7 C 12.530685 8.000900 -2.233233 0
M  V30 8 C 10.745430 7.322630 -6.131046 0
M  V30 9 C 11.961578 6.753397 -2.545708 0
M  V30 10 C 10.583626 8.609475 -6.931846 0
M  V30 11 H 11.775408 10.388816 -7.314497 0
M  V30 12 H 12.723232 8.947301 -7.063394 0
M  V30 13 H 10.944336 5.590184 -4.048276 0
M  V30 14 H 12.961091 9.990227 -2.943322 0
M  V30 15 H 12.972066 8.165709 -1.261203 0
M  V30 16 H 11.387581 6.628686 -6.674860 0
M  V30 17 H 9.779203 6.830103 -6.011071 0
M  V30 18 H 11.964480 5.959592 -1.812847 0
M  V30 19 H 9.710734 9.157386 -6.578150 0
M  V30 20 H 10.411528 8.388265 -7.985645 0
M  V30 END ATOM
M  V30 BEGIN BOND
M  V30 1 1 2 1
M  V30 2 1 3 2
M  V30 3 1 4 3
M  V30 4 2 5 4
M  V30 5 2 6 3
M  V30 6 1 7 6
M  V30 7 1 8 4
M  V30 8 1 9 5
M  V30 9 2 9 7
M  V30 10 1 10 1
M  V30 11 1 10 8
M  V30 12 1 11 1
M  V30 13 1 12 1
M  V30 14 1 13 5
M  V30 15 1 14 6
M  V30 16 1 15 7
M  V30 17 1 16 8
M  V30 18 1 17 8
M  V30 19 1 18 9
M  V30 20 1 19 10
M  V30 21 1 20 10
M  V30 END BOND
M  V30 END CTAB
M  END
>  <i_epik_Tot_Q>  (1) 
0

>  <i_epik_Tot_abs_Q>  (1) 
0

>  <i_i_glide_confnum>  (1) 
1

>  <i_i_glide_lignum>  (1) 
56

>  <i_i_glide_posenum>  (1) 
27

>  <i_i_glide_rotatable_bonds>  (1) 
0

>  <i_lp_mmshare_version>  (1) 
72125

>  <i_m_source_file_index>  (1) 
50

>  <i_f3d_flags>  (1) 
0

>  <num_sample>  (1) 
100

>  <b_lp_Chiralities_Consistent>  (1) 
1

>  <r_epik_Charging_Adjusted_Penalty>  (1) 
0

>  <r_epik_Ionization_Penalty>  (1) 
0

>  <r_epik_Ionization_Penalty_Charging>  (1) 
0

>  <r_epik_Ionization_Penalty_Neutral>  (1) 
0

>  <r_epik_State_Penalty>  (1) 
-0

>  <r_glide_ring_energy>  (1) 
0

>  <r_i_docking_score>  (1) 
-6.4165700102727232

>  <r_i_glide_ecoul>  (1) 
-1.502924965991947

>  <r_i_glide_eff_state_penalty>  (1) 
-0

>  <r_i_glide_einternal>  (1) 
0

>  <r_i_glide_emodel>  (1) 
-28.996148123870679

>  <r_i_glide_emodel_strain>  (1) 
0

>  <r_i_glide_energy>  (1) 
-20.723145214780356

>  <r_i_glide_erotb>  (1) 
0

>  <r_i_glide_esite>  (1) 
0

>  <r_i_glide_evdw>  (1) 
-19.220220248788408

>  <r_i_glide_gscore>  (1) 
-6.4165700102727232

>  <r_i_glide_gscore_strain>  (1) 
0

>  <r_i_glide_hbond>  (1) 
0

>  <r_i_glide_ligand_efficiency>  (1) 
-0.6416570010272723

>  <r_i_glide_ligand_efficiency_ln>  (1) 
-1.9428931668966058

>  <r_i_glide_ligand_efficiency_sa>  (1) 
-1.3824081021149797

>  <r_i_glide_lipo>  (1) 
-2.4018510318533752

>  <r_i_glide_metal>  (1) 
-0

>  <r_i_glide_rewards>  (1) 
-2.8282692210811353

>  <r_lp_Energy>  (1) 
14.978437

>  <r_lp_tautomer_probability>  (1) 
1

>  <s_epik_cmdline>  (1) 
J2VwaWtfcHl0aG9uJywgJy1waHQnLCAnMS4wJywgJy1waCcsICc3LjQnLCAnLXRuJywgJzgnLCAnLW1hJywgJzUwMCcsICctaW1hZScsICc8aW5maWxlLm1hZT4nLCAnLW9tYWUnLCAnPG91dGZpbGUubWFlPic=

>  <s_epik_input>  (1) 
TzFbQ0gyXVtDSDJdW0NIMl1jKGMxMilbY0hdW2NIXVtjSF1bY0hdMg==

>  <s_glide_docking_method>  (1) 
confgen

>  <s_i_glide_gridfile>  (1) 
gpcr_drd2_6luq_protein_autoprepared_prepared

>  <s_lp_Force_Field>  (1) 
S-OPLS

>  <s_lp_Variant>  (1) 
Pocket2Mol_49-1

>  <s_m_source_file>  (1) 
generated_generic_title2_ligand_Pocket2Mol_2026-06-23_prepared.sdf

>  <GenAI_Model>  (1) 
Pocket2Mol

>  <Protein>  (1) 
generic_title2

$$$$
Pocket2Mol_80
     RDKit          3D

  0  0  0  0  0  0  0  0  0  0999 V3000
M  V30 BEGIN CTAB
M  V30 COUNTS 19 20 0 0 1
M  V30 BEGIN ATOM
M  V30 1 C 10.172291 7.489849 -8.180574 0
M  V30 2 O 10.766247 8.790227 -7.804896 0
M  V30 3 C 11.175985 8.556447 -6.540133 0
M  V30 4 C 10.975410 7.303034 -6.082026 0
M  V30 5 C 11.360309 6.922621 -4.785025 0
M  V30 6 C 10.335462 6.391636 -7.034481 0
M  V30 7 C 11.969219 7.885176 -3.938758 0
M  V30 8 N 12.381513 7.520610 -2.568965 0 CHG=1
M  V30 9 O 12.175413 6.372122 -2.202142 0 CHG=-1
M  V30 10 O 12.904496 8.390227 -1.882514 0
M  V30 11 C 12.175410 9.205147 -4.422226 0
M  V30 12 C 11.775408 9.540861 -5.735690 0
M  V30 13 H 9.113014 7.648950 -8.385019 0
M  V30 14 H 10.622365 7.140705 -9.110367 0
M  V30 15 H 11.190475 5.913347 -4.438873 0
M  V30 16 H 11.001933 5.578760 -7.319404 0
M  V30 17 H 9.382113 6.009976 -6.666803 0
M  V30 18 H 12.637191 9.950225 -3.791471 0
M  V30 19 H 11.927774 10.540205 -6.116157 0
M  V30 END ATOM
M  V30 BEGIN BOND
M  V30 1 1 2 1
M  V30 2 1 3 2
M  V30 3 2 4 3
M  V30 4 1 5 4
M  V30 5 1 6 1
M  V30 6 1 6 4
M  V30 7 2 7 5
M  V30 8 1 8 7
M  V30 9 1 9 8
M  V30 10 2 10 8
M  V30 11 1 11 7
M  V30 12 1 12 3
M  V30 13 2 12 11
M  V30 14 1 13 1
M  V30 15 1 14 1
M  V30 16 1 15 5
M  V30 17 1 16 6
M  V30 18 1 17 6
M  V30 19 1 18 11
M  V30 20 1 19 12
M  V30 END BOND
M  V30 END CTAB
M  END
>  <i_epik_Tot_Q>  (1) 
0

>  <i_epik_Tot_abs_Q>  (1) 
2

>  <i_i_glide_confnum>  (1) 
1

>  <i_i_glide_lignum>  (1) 
87

>  <i_i_glide_posenum>  (1) 
181

>  <i_i_glide_rotatable_bonds>  (1) 
1

>  <i_lp_mmshare_version>  (1) 
72125

>  <i_m_source_file_index>  (1) 
81

>  <i_f3d_flags>  (1) 
0

>  <num_sample>  (1) 
100

>  <b_lp_Chiralities_Consistent>  (1) 
1

>  <r_epik_Charging_Adjusted_Penalty>  (1) 
0

>  <r_epik_Ionization_Penalty>  (1) 
0

>  <r_epik_Ionization_Penalty_Charging>  (1) 
0

>  <r_epik_Ionization_Penalty_Neutral>  (1) 
0

>  <r_epik_State_Penalty>  (1) 
-0

>  <r_glide_ring_energy>  (1) 
0

>  <r_i_docking_score>  (1) 
-6.4155372434533202

>  <r_i_glide_ecoul>  (1) 
-0.24458011614796171

>  <r_i_glide_eff_state_penalty>  (1) 
-0

>  <r_i_glide_einternal>  (1) 
0.0012473481405876896

>  <r_i_glide_emodel>  (1) 
-37.26920958547727

>  <r_i_glide_emodel_strain>  (1) 
0

>  <r_i_glide_energy>  (1) 
-26.634359660928734

>  <r_i_glide_erotb>  (1) 
0

>  <r_i_glide_esite>  (1) 
0

>  <r_i_glide_evdw>  (1) 
-26.389779544780772

>  <r_i_glide_gscore>  (1) 
-6.4155372434533202

>  <r_i_glide_gscore_strain>  (1) 
0

>  <r_i_glide_hbond>  (1) 
0

>  <r_i_glide_ligand_efficiency>  (1) 
-0.53462810362111002

>  <r_i_glide_ligand_efficiency_ln>  (1) 
-1.8409495255328003

>  <r_i_glide_ligand_efficiency_sa>  (1) 
-1.2239928093687265

>  <r_i_glide_lipo>  (1) 
-1.8535332327344454

>  <r_i_glide_metal>  (1) 
-0

>  <r_i_glide_rewards>  (1) 
-3.2058280160576418

>  <r_lp_Energy>  (1) 
14.797289999999998

>  <r_lp_tautomer_probability>  (1) 
1

>  <s_epik_cmdline>  (1) 
J2VwaWtfcHl0aG9uJywgJy1waHQnLCAnMS4wJywgJy1waCcsICc3LjQnLCAnLXRuJywgJzgnLCAnLW1hJywgJzUwMCcsICctaW1hZScsICc8aW5maWxlLm1hZT4nLCAnLW9tYWUnLCAnPG91dGZpbGUubWFlPic=

>  <s_epik_input>  (1) 
TzFbQ0gyXVtDSDJdYyhjMTIpW2NIXWMoW04rXShbTy1dKT1PKVtjSF1bY0hdMg==

>  <s_glide_docking_method>  (1) 
confgen

>  <s_i_glide_gridfile>  (1) 
gpcr_drd2_6luq_protein_autoprepared_prepared

>  <s_lp_Force_Field>  (1) 
S-OPLS

>  <s_lp_Variant>  (1) 
Pocket2Mol_80-1

>  <s_m_source_file>  (1) 
generated_generic_title2_ligand_Pocket2Mol_2026-06-23_prepared.sdf

>  <GenAI_Model>  (1) 
Pocket2Mol

>  <Protein>  (1) 
generic_title2

$$$$
Pocket2Mol_69
     RDKit          3D

  0  0  0  0  0  0  0  0  0  0999 V3000
M  V30 BEGIN CTAB
M  V30 COUNTS 18 19 0 0 1
M  V30 BEGIN ATOM
M  V30 1 C 9.661232 6.968337 -7.282849 0
M  V30 2 O 10.193508 6.402240 -6.063735 0
M  V30 3 C 10.975410 7.145938 -5.188414 0
M  V30 4 C 11.383490 8.455335 -5.522077 0
M  V30 5 C 12.178287 9.194911 -4.624282 0
M  V30 6 C 11.375461 6.583680 -3.964362 0
M  V30 7 C 12.175411 7.319967 -3.072665 0
M  V30 8 C 10.995706 9.012365 -6.785025 0
M  V30 9 F 12.563271 6.768651 -1.902522 0
M  V30 10 C 10.205407 8.340241 -7.615435 0
M  V30 11 C 12.574020 8.627160 -3.399612 0
M  V30 12 H 8.575553 7.027926 -7.200095 0
M  V30 13 H 9.883767 6.290048 -8.106641 0
M  V30 14 H 12.490436 10.195038 -4.879746 0
M  V30 15 H 11.068017 5.590227 -3.708408 0
M  V30 16 H 11.374863 9.990227 -7.043520 0
M  V30 17 H 9.920930 8.768158 -8.566016 0
M  V30 18 H 13.187702 9.192129 -2.713461 0
M  V30 END ATOM
M  V30 BEGIN BOND
M  V30 1 1 2 1
M  V30 2 1 3 2
M  V30 3 2 4 3
M  V30 4 1 5 4
M  V30 5 1 6 3
M  V30 6 2 7 6
M  V30 7 1 8 4
M  V30 8 1 9 7
M  V30 9 1 10 1
M  V30 10 2 10 8
M  V30 11 2 11 5
M  V30 12 1 11 7
M  V30 13 1 12 1
M  V30 14 1 13 1
M  V30 15 1 14 5
M  V30 16 1 15 6
M  V30 17 1 16 8
M  V30 18 1 17 10
M  V30 19 1 18 11
M  V30 END BOND
M  V30 END CTAB
M  END
>  <i_epik_Tot_Q>  (1) 
0

>  <i_epik_Tot_abs_Q>  (1) 
0

>  <i_i_glide_confnum>  (1) 
1

>  <i_i_glide_lignum>  (1) 
76

>  <i_i_glide_posenum>  (1) 
233

>  <i_i_glide_rotatable_bonds>  (1) 
0

>  <i_lp_mmshare_version>  (1) 
72125

>  <i_m_source_file_index>  (1) 
70

>  <i_f3d_flags>  (1) 
0

>  <num_sample>  (1) 
100

>  <b_lp_Chiralities_Consistent>  (1) 
1

>  <r_epik_Charging_Adjusted_Penalty>  (1) 
0

>  <r_epik_Ionization_Penalty>  (1) 
0

>  <r_epik_Ionization_Penalty_Charging>  (1) 
0

>  <r_epik_Ionization_Penalty_Neutral>  (1) 
0

>  <r_epik_State_Penalty>  (1) 
-0

>  <r_glide_ring_energy>  (1) 
0

>  <r_i_docking_score>  (1) 
-6.3972007890663685

>  <r_i_glide_ecoul>  (1) 
-0.54873850315794093

>  <r_i_glide_eff_state_penalty>  (1) 
-0

>  <r_i_glide_einternal>  (1) 
0

>  <r_i_glide_emodel>  (1) 
-28.610724274352638

>  <r_i_glide_emodel_strain>  (1) 
0

>  <r_i_glide_energy>  (1) 
-20.401107057615626

>  <r_i_glide_erotb>  (1) 
0

>  <r_i_glide_esite>  (1) 
0

>  <r_i_glide_evdw>  (1) 
-19.852368554457684

>  <r_i_glide_gscore>  (1) 
-6.3972007890663685

>  <r_i_glide_gscore_strain>  (1) 
0

>  <r_i_glide_hbond>  (1) 
0

>  <r_i_glide_ligand_efficiency>  (1) 
-0.58156370809694258

>  <r_i_glide_ligand_efficiency_ln>  (1) 
-1.8826951025473748

>  <r_i_glide_ligand_efficiency_sa>  (1) 
-1.2933861082052656

>  <r_i_glide_lipo>  (1) 
-2.0555660108534792

>  <r_i_glide_metal>  (1) 
-0

>  <r_i_glide_rewards>  (1) 
-3.2667055750163136

>  <r_lp_Energy>  (1) 
13.322941

>  <r_lp_tautomer_probability>  (1) 
1

>  <s_epik_cmdline>  (1) 
J2VwaWtfcHl0aG9uJywgJy1waHQnLCAnMS4wJywgJy1waCcsICc3LjQnLCAnLXRuJywgJzgnLCAnLW1hJywgJzUwMCcsICctaW1hZScsICc8aW5maWxlLm1hZT4nLCAnLW9tYWUnLCAnPG91dGZpbGUubWFlPic=

>  <s_epik_input>  (1) 
TzFbQ0gyXVtDSF09W0NIXWMoYzEyKVtjSF1bY0hdYyhGKVtjSF0y

>  <s_glide_docking_method>  (1) 
confgen

>  <s_i_glide_gridfile>  (1) 
gpcr_drd2_6luq_protein_autoprepared_prepared

>  <s_lp_Force_Field>  (1) 
S-OPLS

>  <s_lp_Variant>  (1) 
Pocket2Mol_69-1

>  <s_m_source_file>  (1) 
generated_generic_title2_ligand_Pocket2Mol_2026-06-23_prepared.sdf

>  <GenAI_Model>  (1) 
Pocket2Mol

>  <Protein>  (1) 
generic_title2

$$$$
Pocket2Mol_62
     RDKit          3D

  0  0  0  0  0  0  0  0  0  0999 V3000
M  V30 BEGIN CTAB
M  V30 COUNTS 21 22 0 0 1
M  V30 BEGIN ATOM
M  V30 1 C 10.033401 7.484635 -7.750621 0
M  V30 2 O 10.596787 8.790205 -7.354379 0
M  V30 3 C 11.075554 8.529541 -6.120070 0
M  V30 4 C 10.918638 7.262079 -5.688270 0
M  V30 5 C 11.375411 6.850017 -4.424051 0
M  V30 6 C 12.016069 7.793340 -3.585003 0
M  V30 7 O 12.464177 7.402220 -2.339025 0
M  V30 8 C 10.243934 6.371544 -6.631010 0
M  V30 9 C 11.699840 9.500749 -5.322349 0
M  V30 10 C 12.175422 9.137190 -4.042991 0
M  V30 11 C 12.975536 8.390153 -1.456739 0
M  V30 12 H 10.487643 7.168709 -8.689635 0
M  V30 13 H 8.971556 7.611606 -7.950180 0
M  V30 14 H 11.239008 5.828960 -4.097171 0
M  V30 15 H 10.903648 5.573431 -6.961775 0
M  V30 16 H 9.304972 5.990103 -6.229977 0
M  V30 17 H 11.814466 10.512536 -5.682511 0
M  V30 18 H 12.654771 9.876900 -3.423598 0
M  V30 19 H 13.375358 7.927877 -0.554554 0
M  V30 20 H 13.817559 8.902169 -1.912603 0
M  V30 21 H 12.215471 9.118434 -1.169243 0
M  V30 END ATOM
M  V30 BEGIN BOND
M  V30 1 1 2 1
M  V30 2 1 3 2
M  V30 3 2 4 3
M  V30 4 1 5 4
M  V30 5 2 6 5
M  V30 6 1 7 6
M  V30 7 1 8 1
M  V30 8 1 8 4
M  V30 9 1 9 3
M  V30 10 1 10 6
M  V30 11 2 10 9
M  V30 12 1 11 7
M  V30 13 1 12 1
M  V30 14 1 13 1
M  V30 15 1 14 5
M  V30 16 1 15 8
M  V30 17 1 16 8
M  V30 18 1 17 9
M  V30 19 1 18 10
M  V30 20 1 19 11
M  V30 21 1 20 11
M  V30 22 1 21 11
M  V30 END BOND
M  V30 END CTAB
M  END
>  <i_epik_Tot_Q>  (1) 
0

>  <i_epik_Tot_abs_Q>  (1) 
0

>  <i_i_glide_confnum>  (1) 
1

>  <i_i_glide_lignum>  (1) 
69

>  <i_i_glide_posenum>  (1) 
66

>  <i_i_glide_rotatable_bonds>  (1) 
1

>  <i_lp_mmshare_version>  (1) 
72125

>  <i_m_source_file_index>  (1) 
63

>  <i_f3d_flags>  (1) 
0

>  <num_sample>  (1) 
100

>  <b_lp_Chiralities_Consistent>  (1) 
1

>  <r_epik_Charging_Adjusted_Penalty>  (1) 
0

>  <r_epik_Ionization_Penalty>  (1) 
0

>  <r_epik_Ionization_Penalty_Charging>  (1) 
0

>  <r_epik_Ionization_Penalty_Neutral>  (1) 
0

>  <r_epik_State_Penalty>  (1) 
-0

>  <r_glide_ring_energy>  (1) 
0

>  <r_i_docking_score>  (1) 
-6.3890963199148549

>  <r_i_glide_ecoul>  (1) 
-1.6512593443778198

>  <r_i_glide_eff_state_penalty>  (1) 
-0

>  <r_i_glide_einternal>  (1) 
0.18337105083697036

>  <r_i_glide_emodel>  (1) 
-32.645187575442719

>  <r_i_glide_emodel_strain>  (1) 
0

>  <r_i_glide_energy>  (1) 
-23.424933506531811

>  <r_i_glide_erotb>  (1) 
0

>  <r_i_glide_esite>  (1) 
0

>  <r_i_glide_evdw>  (1) 
-21.773674162153991

>  <r_i_glide_gscore>  (1) 
-6.3890963199148549

>  <r_i_glide_gscore_strain>  (1) 
0

>  <r_i_glide_hbond>  (1) 
0

>  <r_i_glide_ligand_efficiency>  (1) 
-0.58082693817407771

>  <r_i_glide_ligand_efficiency_ln>  (1) 
-1.8803099586565688

>  <r_i_glide_ligand_efficiency_sa>  (1) 
-1.2917475465654837

>  <r_i_glide_lipo>  (1) 
-2.2659689289309268

>  <r_i_glide_metal>  (1) 
-0

>  <r_i_glide_rewards>  (1) 
-2.7867547812195563

>  <r_lp_Energy>  (1) 
15.977421

>  <r_lp_tautomer_probability>  (1) 
1

>  <s_epik_cmdline>  (1) 
J2VwaWtfcHl0aG9uJywgJy1waHQnLCAnMS4wJywgJy1waCcsICc3LjQnLCAnLXRuJywgJzgnLCAnLW1hJywgJzUwMCcsICctaW1hZScsICc8aW5maWxlLm1hZT4nLCAnLW9tYWUnLCAnPG91dGZpbGUubWFlPic=

>  <s_epik_input>  (1) 
TzFbQ0gyXVtDSDJdYyhjMTIpW2NIXWMoT1tDSDNdKVtjSF1bY0hdMg==

>  <s_glide_docking_method>  (1) 
confgen

>  <s_i_glide_gridfile>  (1) 
gpcr_drd2_6luq_protein_autoprepared_prepared

>  <s_lp_Force_Field>  (1) 
S-OPLS

>  <s_lp_Variant>  (1) 
Pocket2Mol_62-1

>  <s_m_source_file>  (1) 
generated_generic_title2_ligand_Pocket2Mol_2026-06-23_prepared.sdf

>  <GenAI_Model>  (1) 
Pocket2Mol

>  <Protein>  (1) 
generic_title2

$$$$
Pocket2Mol_84
     RDKit          3D

  0  0  0  0  0  0  0  0  0  0999 V3000
M  V30 BEGIN CTAB
M  V30 COUNTS 23 24 0 0 1
M  V30 BEGIN ATOM
M  V30 1 C 12.314082 9.590227 -4.283226 0
M  V30 2 O 11.775389 8.235972 -4.071327 0
M  V30 3 C 11.345630 7.920415 -5.312329 0
M  V30 4 C 11.638174 8.813137 -6.279977 0
M  V30 5 C 11.256222 8.604744 -7.615653 0
M  V30 6 C 12.379095 9.989866 -5.828297 0
M  V30 7 C 10.537372 7.425048 -7.951734 0
M  V30 8 N 10.140017 7.173749 -9.286780 0
M  V30 9 C 10.641322 6.743693 -5.597536 0
M  V30 10 C 10.232775 6.488854 -6.925697 0
M  V30 11 O 8.975508 6.390141 -9.389318 0
M  V30 12 C 9.957302 8.359919 -10.113152 0
M  V30 13 H 13.286515 9.695169 -3.801117 0
M  V30 14 H 11.622179 10.261025 -3.772820 0
M  V30 15 H 11.510057 9.332145 -8.370286 0
M  V30 16 H 13.397044 9.990122 -6.219686 0
M  V30 17 H 11.867239 10.924538 -6.058989 0
M  V30 18 H 10.414708 6.037807 -4.811443 0
M  V30 19 H 9.691938 5.584000 -7.157526 0
M  V30 20 H 8.229258 6.992464 -9.278800 0
M  V30 21 H 10.923647 8.781658 -10.387751 0
M  V30 22 H 9.435116 8.113653 -11.038898 0
M  V30 23 H 9.370913 9.118220 -9.591051 0
M  V30 END ATOM
M  V30 BEGIN BOND
M  V30 1 1 2 1
M  V30 2 1 3 2
M  V30 3 2 4 3
M  V30 4 1 5 4
M  V30 5 1 6 1
M  V30 6 1 6 4
M  V30 7 2 7 5
M  V30 8 1 8 7
M  V30 9 1 9 3
M  V30 10 1 10 7
M  V30 11 2 10 9
M  V30 12 1 11 8
M  V30 13 1 12 8
M  V30 14 1 13 1
M  V30 15 1 14 1
M  V30 16 1 15 5
M  V30 17 1 16 6
M  V30 18 1 17 6
M  V30 19 1 18 9
M  V30 20 1 19 10
M  V30 21 1 20 11
M  V30 22 1 21 12
M  V30 23 1 22 12
M  V30 24 1 23 12
M  V30 END BOND
M  V30 END CTAB
M  END
>  <i_epik_Tot_Q>  (1) 
0

>  <i_epik_Tot_abs_Q>  (1) 
0

>  <i_i_glide_confnum>  (1) 
1

>  <i_i_glide_lignum>  (1) 
91

>  <i_i_glide_posenum>  (1) 
257

>  <i_i_glide_rotatable_bonds>  (1) 
2

>  <i_lp_mmshare_version>  (1) 
72125

>  <i_m_source_file_index>  (1) 
85

>  <i_f3d_flags>  (1) 
0

>  <num_sample>  (1) 
100

>  <b_lp_Chiralities_Consistent>  (1) 
1

>  <r_epik_Charging_Adjusted_Penalty>  (1) 
0

>  <r_epik_Ionization_Penalty>  (1) 
0.00097486698469066322

>  <r_epik_Ionization_Penalty_Charging>  (1) 
0

>  <r_epik_Ionization_Penalty_Neutral>  (1) 
0.00097486698469066322

>  <r_epik_State_Penalty>  (1) 
-0

>  <r_glide_ring_energy>  (1) 
0

>  <r_i_docking_score>  (1) 
-6.3635017552233224

>  <r_i_glide_ecoul>  (1) 
-5.1585768665159435

>  <r_i_glide_eff_state_penalty>  (1) 
-0

>  <r_i_glide_einternal>  (1) 
0.34133231248821083

>  <r_i_glide_emodel>  (1) 
-34.659067333220264

>  <r_i_glide_emodel_strain>  (1) 
0.0074686357294027061

>  <r_i_glide_energy>  (1) 
-24.358615905817409

>  <r_i_glide_erotb>  (1) 
0

>  <r_i_glide_esite>  (1) 
-0.068406400539667511

>  <r_i_glide_evdw>  (1) 
-19.200039039301465

>  <r_i_glide_gscore>  (1) 
-6.3635017552233224

>  <r_i_glide_gscore_strain>  (1) 
0

>  <r_i_glide_hbond>  (1) 
-0.16

>  <r_i_glide_ligand_efficiency>  (1) 
-0.53029181293527683

>  <r_i_glide_ligand_efficiency_ln>  (1) 
-1.826017852045029

>  <r_i_glide_ligand_efficiency_sa>  (1) 
-1.2140651819528774

>  <r_i_glide_lipo>  (1) 
-1.7967749478008221

>  <r_i_glide_metal>  (1) 
-0

>  <r_i_glide_rewards>  (1) 
-2.604531924940368

>  <r_lp_Energy>  (1) 
21.474352

>  <r_lp_tautomer_probability>  (1) 
1

>  <s_epik_Chemistry_Notes>  (1) 
This compound has a N-S or N-O group and may undergo hydrolysis at high or low pH.

>  <s_epik_cmdline>  (1) 
J2VwaWtfcHl0aG9uJywgJy1waHQnLCAnMS4wJywgJy1waCcsICc3LjQnLCAnLXRuJywgJzgnLCAnLW1hJywgJzUwMCcsICctaW1hZScsICc8aW5maWxlLm1hZT4nLCAnLW9tYWUnLCAnPG91dGZpbGUubWFlPic=

>  <s_epik_input>  (1) 
TzFbQ0gyXVtDSDJdYyhjMTIpW2NIXWMoTihbT0hdKVtDSDNdKVtjSF1bY0hdMg==

>  <s_glide_docking_method>  (1) 
confgen

>  <s_i_glide_gridfile>  (1) 
gpcr_drd2_6luq_protein_autoprepared_prepared

>  <s_lp_Force_Field>  (1) 
S-OPLS

>  <s_lp_Variant>  (1) 
Pocket2Mol_84-1

>  <s_m_source_file>  (1) 
generated_generic_title2_ligand_Pocket2Mol_2026-06-23_prepared.sdf

>  <GenAI_Model>  (1) 
Pocket2Mol

>  <Protein>  (1) 
generic_title2

$$$$
Pocket2Mol_71
     RDKit          3D

  0  0  0  0  0  0  0  0  0  0999 V3000
M  V30 BEGIN CTAB
M  V30 COUNTS 16 17 0 0 1
M  V30 BEGIN ATOM
M  V30 1 C 11.612911 9.191737 -6.936713 0
M  V30 2 O 11.995298 9.650430 -5.707841 0
M  V30 3 C 11.945330 8.700160 -4.683987 0
M  V30 4 C 11.375410 7.384635 -4.921061 0
M  V30 5 C 11.375411 6.466161 -3.853383 0
M  V30 6 C 12.476733 9.019497 -3.423727 0
M  V30 7 C 12.460061 8.075942 -2.388586 0
M  V30 8 N 10.862111 7.030982 -6.127055 0 CHG=-1
M  V30 9 C 11.081446 7.951225 -7.064609 0
M  V30 10 F 12.975414 8.390742 -1.185025 0
M  V30 11 C 11.912056 6.805536 -2.601079 0
M  V30 12 H 11.775409 9.899188 -7.732852 0
M  V30 13 H 10.956797 5.493115 -4.001648 0
M  V30 14 H 12.906569 9.990224 -3.253608 0
M  V30 15 H 10.793680 7.645101 -8.092813 0
M  V30 16 H 11.901318 6.082515 -1.798688 0
M  V30 END ATOM
M  V30 BEGIN BOND
M  V30 1 1 2 1
M  V30 2 1 3 2
M  V30 3 2 4 3
M  V30 4 1 5 4
M  V30 5 1 6 3
M  V30 6 2 7 6
M  V30 7 1 8 4
M  V30 8 2 9 1
M  V30 9 1 9 8
M  V30 10 1 10 7
M  V30 11 2 11 5
M  V30 12 1 11 7
M  V30 13 1 12 1
M  V30 14 1 13 5
M  V30 15 1 14 6
M  V30 16 1 15 9
M  V30 17 1 16 11
M  V30 END BOND
M  V30 END CTAB
M  END
>  <i_epik_Tot_Q>  (1) 
-1

>  <i_epik_Tot_abs_Q>  (1) 
1

>  <i_i_glide_confnum>  (1) 
1

>  <i_i_glide_lignum>  (1) 
78

>  <i_i_glide_posenum>  (1) 
261

>  <i_i_glide_rotatable_bonds>  (1) 
0

>  <i_lp_mmshare_version>  (1) 
72125

>  <i_m_source_file_index>  (1) 
72

>  <i_f3d_flags>  (1) 
0

>  <num_sample>  (1) 
100

>  <b_lp_Chiralities_Consistent>  (1) 
1

>  <r_epik_Charging_Adjusted_Penalty>  (1) 
0.017639978051431922

>  <r_epik_Ionization_Penalty>  (1) 
0.017639978051431908

>  <r_epik_Ionization_Penalty_Charging>  (1) 
0

>  <r_epik_Ionization_Penalty_Neutral>  (1) 
0.017639978051431908

>  <r_epik_State_Penalty>  (1) 
0.017639978051431922

>  <r_glide_ring_energy>  (1) 
0

>  <r_i_docking_score>  (1) 
-6.3519301210625487

>  <r_i_glide_ecoul>  (1) 
-2.146896061865939

>  <r_i_glide_eff_state_penalty>  (1) 
0.017639978051431922

>  <r_i_glide_einternal>  (1) 
0

>  <r_i_glide_emodel>  (1) 
-27.919497672746957

>  <r_i_glide_emodel_strain>  (1) 
0

>  <r_i_glide_energy>  (1) 
-19.174033087353195

>  <r_i_glide_erotb>  (1) 
0

>  <r_i_glide_esite>  (1) 
0

>  <r_i_glide_evdw>  (1) 
-17.027137025487256

>  <r_i_glide_gscore>  (1) 
-6.3695700991139805

>  <r_i_glide_gscore_strain>  (1) 
0

>  <r_i_glide_hbond>  (1) 
0

>  <r_i_glide_ligand_efficiency>  (1) 
-0.57744819282386806

>  <r_i_glide_ligand_efficiency_ln>  (1) 
-1.869371952665084

>  <r_i_glide_ligand_efficiency_sa>  (1) 
-1.2842332841755137

>  <r_i_glide_lipo>  (1) 
-2.0661626424299273

>  <r_i_glide_metal>  (1) 
-0

>  <r_i_glide_rewards>  (1) 
-3.1300161961297994

>  <r_lp_Energy>  (1) 
25.3598

>  <s_epik_Chemistry_Notes>  (1) 
This compound has an imine and may undergo hydrolysis.

>  <s_epik_cmdline>  (1) 
J2VwaWtfcHl0aG9uJywgJy1waHQnLCAnMS4wJywgJy1waCcsICc3LjQnLCAnLXRuJywgJzgnLCAnLW1hJywgJzUwMCcsICctaW1hZScsICc8aW5maWxlLm1hZT4nLCAnLW9tYWUnLCAnPG91dGZpbGUubWFlPic=

>  <s_epik_input>  (1) 
TzFbQ0gyXVtDSF09TmMoYzEyKVtjSF1bY0hdYyhGKVtjSF0y

>  <s_glide_docking_method>  (1) 
confgen

>  <s_i_glide_gridfile>  (1) 
gpcr_drd2_6luq_protein_autoprepared_prepared

>  <s_lp_Force_Field>  (1) 
S-OPLS

>  <s_lp_Variant>  (1) 
Pocket2Mol_71-1

>  <s_m_source_file>  (1) 
generated_generic_title2_ligand_Pocket2Mol_2026-06-23_prepared.sdf

>  <GenAI_Model>  (1) 
Pocket2Mol

>  <Protein>  (1) 
generic_title2

$$$$
Pocket2Mol_51
     RDKit          3D

  0  0  0  0  0  0  0  0  0  0999 V3000
M  V30 BEGIN CTAB
M  V30 COUNTS 15 16 0 0 1
M  V30 BEGIN ATOM
M  V30 1 C 10.947765 8.781189 -6.843960 0
M  V30 2 O 11.662848 9.502124 -5.797354 0
M  V30 3 C 11.775418 8.627079 -4.758321 0
M  V30 4 C 11.309612 7.351863 -4.951833 0
M  V30 5 C 11.375410 6.390278 -3.936933 0
M  V30 6 C 12.348171 8.996662 -3.527617 0
M  V30 7 C 12.430746 8.046945 -2.486977 0
M  V30 8 S 10.644665 6.993879 -6.484026 0
M  V30 9 F 12.975428 8.390227 -1.297001 0
M  V30 10 C 11.940517 6.737718 -2.691044 0
M  V30 11 H 9.965806 9.229692 -6.981220 0
M  V30 12 H 11.484840 8.877149 -7.787809 0
M  V30 13 H 10.995998 5.403652 -4.107357 0
M  V30 14 H 12.720679 9.990236 -3.378652 0
M  V30 15 H 11.997678 6.005915 -1.898126 0
M  V30 END ATOM
M  V30 BEGIN BOND
M  V30 1 1 2 1
M  V30 2 1 3 2
M  V30 3 2 4 3
M  V30 4 1 5 4
M  V30 5 1 6 3
M  V30 6 2 7 6
M  V30 7 1 8 1
M  V30 8 1 8 4
M  V30 9 1 9 7
M  V30 10 2 10 5
M  V30 11 1 10 7
M  V30 12 1 11 1
M  V30 13 1 12 1
M  V30 14 1 13 5
M  V30 15 1 14 6
M  V30 16 1 15 10
M  V30 END BOND
M  V30 END CTAB
M  END
>  <i_epik_Tot_Q>  (1) 
0

>  <i_epik_Tot_abs_Q>  (1) 
0

>  <i_i_glide_confnum>  (1) 
1

>  <i_i_glide_lignum>  (1) 
58

>  <i_i_glide_posenum>  (1) 
218

>  <i_i_glide_rotatable_bonds>  (1) 
0

>  <i_lp_mmshare_version>  (1) 
72125

>  <i_m_source_file_index>  (1) 
52

>  <i_f3d_flags>  (1) 
0

>  <num_sample>  (1) 
100

>  <b_lp_Chiralities_Consistent>  (1) 
1

>  <r_epik_Charging_Adjusted_Penalty>  (1) 
0

>  <r_epik_Ionization_Penalty>  (1) 
0

>  <r_epik_Ionization_Penalty_Charging>  (1) 
0

>  <r_epik_Ionization_Penalty_Neutral>  (1) 
0

>  <r_epik_State_Penalty>  (1) 
-0

>  <r_glide_ring_energy>  (1) 
0

>  <r_i_docking_score>  (1) 
-6.3430642619706887

>  <r_i_glide_ecoul>  (1) 
-0.20549526834147105

>  <r_i_glide_eff_state_penalty>  (1) 
-0

>  <r_i_glide_einternal>  (1) 
0

>  <r_i_glide_emodel>  (1) 
-28.361506625931497

>  <r_i_glide_emodel_strain>  (1) 
0

>  <r_i_glide_energy>  (1) 
-20.133652363264297

>  <r_i_glide_erotb>  (1) 
0

>  <r_i_glide_esite>  (1) 
0

>  <r_i_glide_evdw>  (1) 
-19.928157094922824

>  <r_i_glide_gscore>  (1) 
-6.3430642619706887

>  <r_i_glide_gscore_strain>  (1) 
0

>  <r_i_glide_hbond>  (1) 
0

>  <r_i_glide_ligand_efficiency>  (1) 
-0.6343064261970689

>  <r_i_glide_ligand_efficiency_ln>  (1) 
-1.9206361330179129

>  <r_i_glide_ligand_efficiency_sa>  (1) 
-1.3665717687091141

>  <r_i_glide_lipo>  (1) 
-2.1267655157819525

>  <r_i_glide_metal>  (1) 
-0

>  <r_i_glide_rewards>  (1) 
-3.1890666011913744

>  <r_lp_Energy>  (1) 
4.072584

>  <r_lp_tautomer_probability>  (1) 
1

>  <s_epik_Chemistry_Notes>  (1) 
This compound contains an acetal/aminal-like group ( X-CH(R)-Y where X, Y are N, S, or O) that may be acid/base labile, releasing an aldehyde.

>  <s_epik_cmdline>  (1) 
J2VwaWtfcHl0aG9uJywgJy1waHQnLCAnMS4wJywgJy1waCcsICc3LjQnLCAnLXRuJywgJzgnLCAnLW1hJywgJzUwMCcsICctaW1hZScsICc8aW5maWxlLm1hZT4nLCAnLW9tYWUnLCAnPG91dGZpbGUubWFlPic=

>  <s_epik_input>  (1) 
TzFbQ0gyXVNjKGMxMilbY0hdW2NIXWMoRilbY0hdMg==

>  <s_glide_docking_method>  (1) 
confgen

>  <s_i_glide_gridfile>  (1) 
gpcr_drd2_6luq_protein_autoprepared_prepared

>  <s_lp_Force_Field>  (1) 
S-OPLS

>  <s_lp_Variant>  (1) 
Pocket2Mol_51-1

>  <s_m_source_file>  (1) 
generated_generic_title2_ligand_Pocket2Mol_2026-06-23_prepared.sdf

>  <GenAI_Model>  (1) 
Pocket2Mol

>  <Protein>  (1) 
generic_title2

$$$$
Pocket2Mol_93
     RDKit          3D

  0  0  0  0  0  0  0  0  0  0999 V3000
M  V30 BEGIN CTAB
M  V30 COUNTS 23 25 0 0 1
M  V30 BEGIN ATOM
M  V30 1 C 10.245239 7.571266 -9.263325 0
M  V30 2 O 10.805648 8.790152 -8.646200 0
M  V30 3 C 11.003265 8.393609 -7.370465 0
M  V30 4 C 10.605240 7.139946 -7.081863 0
M  V30 5 C 10.774624 6.592101 -5.804104 0
M  V30 6 C 11.375420 7.366932 -4.795902 0
M  V30 7 O 11.577415 6.824471 -3.547005 0
M  V30 8 C 9.998267 6.409228 -8.197566 0
M  V30 9 C 11.775394 8.707653 -5.086207 0
M  V30 10 O 12.356011 9.492643 -4.116478 0
M  V30 11 C 11.588609 9.218395 -6.390863 0
M  V30 12 C 12.560835 7.490774 -2.774664 0
M  V30 13 C 12.258202 8.990861 -2.790301 0
M  V30 14 H 9.326410 7.819544 -9.791627 0
M  V30 15 H 10.951233 7.226086 -10.019667 0
M  V30 16 H 10.458819 5.590228 -5.597886 0
M  V30 17 H 10.527507 5.485000 -8.427715 0
M  V30 18 H 8.938448 6.222175 -8.016927 0
M  V30 19 H 11.896451 10.223926 -6.634530 0
M  V30 20 H 12.540734 7.101216 -1.756761 0
M  V30 21 H 13.550483 7.285909 -3.184786 0
M  V30 22 H 11.270512 9.198561 -2.385019 0
M  V30 23 H 12.975205 9.516122 -2.166669 0
M  V30 END ATOM
M  V30 BEGIN BOND
M  V30 1 1 2 1
M  V30 2 1 3 2
M  V30 3 1 4 3
M  V30 4 2 5 4
M  V30 5 1 6 5
M  V30 6 1 7 6
M  V30 7 1 8 1
M  V30 8 1 8 4
M  V30 9 2 9 6
M  V30 10 1 10 9
M  V30 11 2 11 3
M  V30 12 1 11 9
M  V30 13 1 12 7
M  V30 14 1 13 10
M  V30 15 1 13 12
M  V30 16 1 14 1
M  V30 17 1 15 1
M  V30 18 1 16 5
M  V30 19 1 17 8
M  V30 20 1 18 8
M  V30 21 1 19 11
M  V30 22 1 20 12
M  V30 23 1 21 12
M  V30 24 1 22 13
M  V30 25 1 23 13
M  V30 END BOND
M  V30 END CTAB
M  END
>  <i_epik_Tot_Q>  (1) 
0

>  <i_epik_Tot_abs_Q>  (1) 
0

>  <i_i_glide_confnum>  (1) 
2

>  <i_i_glide_lignum>  (1) 
102

>  <i_i_glide_posenum>  (1) 
38

>  <i_i_glide_rotatable_bonds>  (1) 
0

>  <i_lp_mmshare_version>  (1) 
72125

>  <i_m_source_file_index>  (1) 
94

>  <i_f3d_flags>  (1) 
0

>  <num_sample>  (1) 
100

>  <b_lp_Chiralities_Consistent>  (1) 
1

>  <r_epik_Charging_Adjusted_Penalty>  (1) 
0

>  <r_epik_Ionization_Penalty>  (1) 
0

>  <r_epik_Ionization_Penalty_Charging>  (1) 
0

>  <r_epik_Ionization_Penalty_Neutral>  (1) 
0

>  <r_epik_State_Penalty>  (1) 
-0

>  <r_glide_ring_energy>  (1) 
0.0016243131038040329

>  <r_i_docking_score>  (1) 
-6.3327226002795127

>  <r_i_glide_ecoul>  (1) 
-1.4044192388331709

>  <r_i_glide_eff_state_penalty>  (1) 
-0

>  <r_i_glide_einternal>  (1) 
0

>  <r_i_glide_emodel>  (1) 
-35.946549748223291

>  <r_i_glide_emodel_strain>  (1) 
0

>  <r_i_glide_energy>  (1) 
-25.330364988648444

>  <r_i_glide_erotb>  (1) 
0

>  <r_i_glide_esite>  (1) 
0

>  <r_i_glide_evdw>  (1) 
-23.925945749815273

>  <r_i_glide_gscore>  (1) 
-6.3327226002795127

>  <r_i_glide_gscore_strain>  (1) 
0

>  <r_i_glide_hbond>  (1) 
0

>  <r_i_glide_ligand_efficiency>  (1) 
-0.48713250771380867

>  <r_i_glide_ligand_efficiency_ln>  (1) 
-1.7763850100773384

>  <r_i_glide_ligand_efficiency_sa>  (1) 
-1.1454115629038779

>  <r_i_glide_lipo>  (1) 
-1.983599287146169

>  <r_i_glide_metal>  (1) 
-0

>  <r_i_glide_rewards>  (1) 
-2.9421631398176049

>  <r_lp_Energy>  (1) 
18.084001999999998

>  <r_lp_tautomer_probability>  (1) 
1

>  <s_epik_cmdline>  (1) 
J2VwaWtfcHl0aG9uJywgJy1waHQnLCAnMS4wJywgJy1waCcsICc3LjQnLCAnLXRuJywgJzgnLCAnLW1hJywgJzUwMCcsICctaW1hZScsICc8aW5maWxlLm1hZT4nLCAnLW9tYWUnLCAnPG91dGZpbGUubWFlPic=

>  <s_epik_input>  (1) 
TzFbQ0gyXVtDSDJdYyhjMTIpW2NIXWMzYyhbY0hdMilPW0NIMl1bQ0gyXU8z

>  <s_glide_docking_method>  (1) 
confgen

>  <s_i_glide_gridfile>  (1) 
gpcr_drd2_6luq_protein_autoprepared_prepared

>  <s_lp_Force_Field>  (1) 
S-OPLS

>  <s_lp_Variant>  (1) 
Pocket2Mol_93-1

>  <s_m_source_file>  (1) 
generated_generic_title2_ligand_Pocket2Mol_2026-06-23_prepared.sdf

>  <GenAI_Model>  (1) 
Pocket2Mol

>  <Protein>  (1) 
generic_title2

$$$$
Pocket2Mol_65
     RDKit          3D

  0  0  0  0  0  0  0  0  0  0999 V3000
M  V30 BEGIN CTAB
M  V30 COUNTS 18 19 0 0 1
M  V30 BEGIN ATOM
M  V30 1 C 10.602099 8.296560 -7.023633 0
M  V30 2 O 10.836184 7.194314 -6.160625 0
M  V30 3 C 11.375410 7.501407 -4.930292 0
M  V30 4 C 11.375420 6.533601 -3.914344 0
M  V30 5 C 11.841606 9.190160 -6.986396 0
M  V30 6 C 11.935971 8.783418 -4.683255 0
M  V30 7 O 11.965966 9.733899 -5.677624 0
M  V30 8 C 12.476605 9.073680 -3.416434 0
M  V30 9 C 12.462887 8.101403 -2.401105 0
M  V30 10 F 12.975416 8.390174 -1.185020 0
M  V30 11 C 11.916804 6.829955 -2.650116 0
M  V30 12 H 9.710518 8.841326 -6.710433 0
M  V30 13 H 10.420506 7.930596 -8.034565 0
M  V30 14 H 10.950341 5.570021 -4.102629 0
M  V30 15 H 11.775408 9.990310 -7.716517 0
M  V30 16 H 12.734806 8.619786 -7.243629 0
M  V30 17 H 12.907219 10.034540 -3.223183 0
M  V30 18 H 11.908601 6.082333 -1.870196 0
M  V30 END ATOM
M  V30 BEGIN BOND
M  V30 1 1 2 1
M  V30 2 1 3 2
M  V30 3 1 4 3
M  V30 4 1 5 1
M  V30 5 2 6 3
M  V30 6 1 7 5
M  V30 7 1 7 6
M  V30 8 1 8 6
M  V30 9 2 9 8
M  V30 10 1 10 9
M  V30 11 2 11 4
M  V30 12 1 11 9
M  V30 13 1 12 1
M  V30 14 1 13 1
M  V30 15 1 14 4
M  V30 16 1 15 5
M  V30 17 1 16 5
M  V30 18 1 17 8
M  V30 19 1 18 11
M  V30 END BOND
M  V30 END CTAB
M  END
>  <i_epik_Tot_Q>  (1) 
0

>  <i_epik_Tot_abs_Q>  (1) 
0

>  <i_i_glide_confnum>  (1) 
2

>  <i_i_glide_lignum>  (1) 
72

>  <i_i_glide_posenum>  (1) 
47

>  <i_i_glide_rotatable_bonds>  (1) 
0

>  <i_lp_mmshare_version>  (1) 
72125

>  <i_m_source_file_index>  (1) 
66

>  <i_f3d_flags>  (1) 
0

>  <num_sample>  (1) 
100

>  <b_lp_Chiralities_Consistent>  (1) 
1

>  <r_epik_Charging_Adjusted_Penalty>  (1) 
0

>  <r_epik_Ionization_Penalty>  (1) 
0

>  <r_epik_Ionization_Penalty_Charging>  (1) 
0

>  <r_epik_Ionization_Penalty_Neutral>  (1) 
0

>  <r_epik_State_Penalty>  (1) 
-0

>  <r_glide_ring_energy>  (1) 
0.0030884427186306492

>  <r_i_docking_score>  (1) 
-6.3239570021968499

>  <r_i_glide_ecoul>  (1) 
-0.50404517685470329

>  <r_i_glide_eff_state_penalty>  (1) 
-0

>  <r_i_glide_einternal>  (1) 
0

>  <r_i_glide_emodel>  (1) 
-29.170375102081277

>  <r_i_glide_emodel_strain>  (1) 
0

>  <r_i_glide_energy>  (1) 
-20.207612978145313

>  <r_i_glide_erotb>  (1) 
0

>  <r_i_glide_esite>  (1) 
0

>  <r_i_glide_evdw>  (1) 
-19.70356780129061

>  <r_i_glide_gscore>  (1) 
-6.3239570021968499

>  <r_i_glide_gscore_strain>  (1) 
0

>  <r_i_glide_hbond>  (1) 
0

>  <r_i_glide_ligand_efficiency>  (1) 
-0.57490518201789542

>  <r_i_glide_ligand_efficiency_ln>  (1) 
-1.8611394685477436

>  <r_i_glide_ligand_efficiency_sa>  (1) 
-1.2785776787729282

>  <r_i_glide_lipo>  (1) 
-2.0616291777533378

>  <r_i_glide_metal>  (1) 
-0

>  <r_i_glide_rewards>  (1) 
-3.2015426578507764

>  <r_lp_Energy>  (1) 
15.305638999999999

>  <r_lp_tautomer_probability>  (1) 
1

>  <s_epik_cmdline>  (1) 
J2VwaWtfcHl0aG9uJywgJy1waHQnLCAnMS4wJywgJy1waCcsICc3LjQnLCAnLXRuJywgJzgnLCAnLW1hJywgJzUwMCcsICctaW1hZScsICc8aW5maWxlLm1hZT4nLCAnLW9tYWUnLCAnPG91dGZpbGUubWFlPic=

>  <s_epik_input>  (1) 
TzFbQ0gyXVtDSDJdT2MoYzEyKVtjSF1jKEYpW2NIXVtjSF0y

>  <s_glide_docking_method>  (1) 
confgen

>  <s_i_glide_gridfile>  (1) 
gpcr_drd2_6luq_protein_autoprepared_prepared

>  <s_lp_Force_Field>  (1) 
S-OPLS

>  <s_lp_Variant>  (1) 
Pocket2Mol_65-1

>  <s_m_source_file>  (1) 
generated_generic_title2_ligand_Pocket2Mol_2026-06-23_prepared.sdf

>  <GenAI_Model>  (1) 
Pocket2Mol

>  <Protein>  (1) 
generic_title2

$$$$
Pocket2Mol_69
     RDKit          3D

  0  0  0  0  0  0  0  0  0  0999 V3000
M  V30 BEGIN CTAB
M  V30 COUNTS 18 19 0 0 1
M  V30 BEGIN ATOM
M  V30 1 C 12.477951 8.981629 -2.665222 0
M  V30 2 O 12.246546 9.539558 -3.980793 0
M  V30 3 C 11.763060 8.768359 -5.030559 0
M  V30 4 C 11.463690 7.395522 -4.840314 0
M  V30 5 C 10.975410 6.629965 -5.914464 0
M  V30 6 C 11.587595 9.350557 -6.302635 0
M  V30 7 C 11.117758 8.568660 -7.379334 0
M  V30 8 C 11.701137 6.790227 -3.549672 0
M  V30 9 F 10.975410 9.120098 -8.607949 0
M  V30 10 C 12.175410 7.506152 -2.539900 0
M  V30 11 C 10.803465 7.214300 -7.180804 0
M  V30 12 H 11.864400 9.525991 -1.946757 0
M  V30 13 H 13.515698 9.152279 -2.385033 0
M  V30 14 H 10.747537 5.590227 -5.771094 0
M  V30 15 H 11.824440 10.392709 -6.455800 0
M  V30 16 H 11.487927 5.738024 -3.432410 0
M  V30 17 H 12.353972 7.043211 -1.585025 0
M  V30 18 H 10.439056 6.618660 -8.005211 0
M  V30 END ATOM
M  V30 BEGIN BOND
M  V30 1 1 2 1
M  V30 2 1 3 2
M  V30 3 2 4 3
M  V30 4 1 5 4
M  V30 5 1 6 3
M  V30 6 2 7 6
M  V30 7 1 8 4
M  V30 8 1 9 7
M  V30 9 1 10 1
M  V30 10 2 10 8
M  V30 11 2 11 5
M  V30 12 1 11 7
M  V30 13 1 12 1
M  V30 14 1 13 1
M  V30 15 1 14 5
M  V30 16 1 15 6
M  V30 17 1 16 8
M  V30 18 1 17 10
M  V30 19 1 18 11
M  V30 END BOND
M  V30 END CTAB
M  END
>  <i_epik_Tot_Q>  (1) 
0

>  <i_epik_Tot_abs_Q>  (1) 
0

>  <i_i_glide_confnum>  (1) 
1

>  <i_i_glide_lignum>  (1) 
76

>  <i_i_glide_posenum>  (1) 
202

>  <i_i_glide_rotatable_bonds>  (1) 
0

>  <i_lp_mmshare_version>  (1) 
72125

>  <i_m_source_file_index>  (1) 
70

>  <i_f3d_flags>  (1) 
0

>  <num_sample>  (1) 
100

>  <b_lp_Chiralities_Consistent>  (1) 
1

>  <r_epik_Charging_Adjusted_Penalty>  (1) 
0

>  <r_epik_Ionization_Penalty>  (1) 
0

>  <r_epik_Ionization_Penalty_Charging>  (1) 
0

>  <r_epik_Ionization_Penalty_Neutral>  (1) 
0

>  <r_epik_State_Penalty>  (1) 
-0

>  <r_glide_ring_energy>  (1) 
0

>  <r_i_docking_score>  (1) 
-6.3230175858502848

>  <r_i_glide_ecoul>  (1) 
-1.4793079066682451

>  <r_i_glide_eff_state_penalty>  (1) 
-0

>  <r_i_glide_einternal>  (1) 
0

>  <r_i_glide_emodel>  (1) 
-27.443187320485897

>  <r_i_glide_emodel_strain>  (1) 
4.0331986639330353e-09

>  <r_i_glide_energy>  (1) 
-19.328770449681052

>  <r_i_glide_erotb>  (1) 
0

>  <r_i_glide_esite>  (1) 
0

>  <r_i_glide_evdw>  (1) 
-17.849462543012805

>  <r_i_glide_gscore>  (1) 
-6.3230175858502848

>  <r_i_glide_gscore_strain>  (1) 
0

>  <r_i_glide_hbond>  (1) 
0

>  <r_i_glide_ligand_efficiency>  (1) 
-0.57481978053184413

>  <r_i_glide_ligand_efficiency_ln>  (1) 
-1.8608629984769662

>  <r_i_glide_ligand_efficiency_sa>  (1) 
-1.2783877475682448

>  <r_i_glide_lipo>  (1) 
-2.334547337471931

>  <r_i_glide_metal>  (1) 
-0

>  <r_i_glide_rewards>  (1) 
-2.8741009352274771

>  <r_lp_Energy>  (1) 
13.322941

>  <r_lp_tautomer_probability>  (1) 
1

>  <s_epik_cmdline>  (1) 
J2VwaWtfcHl0aG9uJywgJy1waHQnLCAnMS4wJywgJy1waCcsICc3LjQnLCAnLXRuJywgJzgnLCAnLW1hJywgJzUwMCcsICctaW1hZScsICc8aW5maWxlLm1hZT4nLCAnLW9tYWUnLCAnPG91dGZpbGUubWFlPic=

>  <s_epik_input>  (1) 
TzFbQ0gyXVtDSF09W0NIXWMoYzEyKVtjSF1bY0hdYyhGKVtjSF0y

>  <s_glide_docking_method>  (1) 
confgen

>  <s_i_glide_gridfile>  (1) 
gpcr_drd2_6luq_protein_autoprepared_prepared

>  <s_lp_Force_Field>  (1) 
S-OPLS

>  <s_lp_Variant>  (1) 
Pocket2Mol_69-1

>  <s_m_source_file>  (1) 
generated_generic_title2_ligand_Pocket2Mol_2026-06-23_prepared.sdf

>  <GenAI_Model>  (1) 
Pocket2Mol

>  <Protein>  (1) 
generic_title2

$$$$
Pocket2Mol_41
     RDKit          3D

  0  0  0  0  0  0  0  0  0  0999 V3000
M  V30 BEGIN CTAB
M  V30 COUNTS 15 16 0 0 1
M  V30 BEGIN ATOM
M  V30 1 C 12.461158 8.646743 -1.983817 0
M  V30 2 O 12.247570 9.590176 -3.069413 0
M  V30 3 C 11.839327 8.856748 -4.139738 0
M  V30 4 C 11.775408 7.494105 -3.985038 0
M  V30 5 C 11.347401 6.660149 -5.030467 0
M  V30 6 C 11.481669 9.456905 -5.360892 0
M  V30 7 C 11.045962 8.642540 -6.430869 0
M  V30 8 S 12.208670 6.868996 -2.451434 0
M  V30 9 C 10.975414 7.238517 -6.264344 0
M  V30 10 H 13.471675 8.778254 -1.597660 0
M  V30 11 H 11.779066 8.897862 -1.171077 0
M  V30 12 H 11.296126 5.590230 -4.890720 0
M  V30 13 H 11.533328 10.529526 -5.477597 0
M  V30 14 H 10.764759 9.090233 -7.372317 0
M  V30 15 H 10.639751 6.611782 -7.078372 0
M  V30 END ATOM
M  V30 BEGIN BOND
M  V30 1 1 2 1
M  V30 2 1 3 2
M  V30 3 1 4 3
M  V30 4 2 5 4
M  V30 5 2 6 3
M  V30 6 1 7 6
M  V30 7 1 8 1
M  V30 8 1 8 4
M  V30 9 1 9 5
M  V30 10 2 9 7
M  V30 11 1 10 1
M  V30 12 1 11 1
M  V30 13 1 12 5
M  V30 14 1 13 6
M  V30 15 1 14 7
M  V30 16 1 15 9
M  V30 END BOND
M  V30 END CTAB
M  END
>  <i_epik_Tot_Q>  (1) 
0

>  <i_epik_Tot_abs_Q>  (1) 
0

>  <i_i_glide_confnum>  (1) 
1

>  <i_i_glide_lignum>  (1) 
46

>  <i_i_glide_posenum>  (1) 
122

>  <i_i_glide_rotatable_bonds>  (1) 
0

>  <i_lp_mmshare_version>  (1) 
72125

>  <i_m_source_file_index>  (1) 
42

>  <i_f3d_flags>  (1) 
0

>  <num_sample>  (1) 
100

>  <b_lp_Chiralities_Consistent>  (1) 
1

>  <r_epik_Charging_Adjusted_Penalty>  (1) 
0

>  <r_epik_Ionization_Penalty>  (1) 
0

>  <r_epik_Ionization_Penalty_Charging>  (1) 
0

>  <r_epik_Ionization_Penalty_Neutral>  (1) 
0

>  <r_epik_State_Penalty>  (1) 
-0

>  <r_glide_ring_energy>  (1) 
0

>  <r_i_docking_score>  (1) 
-6.3135293602296203

>  <r_i_glide_ecoul>  (1) 
-0.80346965066314124

>  <r_i_glide_eff_state_penalty>  (1) 
-0

>  <r_i_glide_einternal>  (1) 
0

>  <r_i_glide_emodel>  (1) 
-31.875687758048656

>  <r_i_glide_emodel_strain>  (1) 
0

>  <r_i_glide_energy>  (1) 
-23.109412302597875

>  <r_i_glide_erotb>  (1) 
0

>  <r_i_glide_esite>  (1) 
0

>  <r_i_glide_evdw>  (1) 
-22.305942651934732

>  <r_i_glide_gscore>  (1) 
-6.3135293602296203

>  <r_i_glide_gscore_strain>  (1) 
0

>  <r_i_glide_hbond>  (1) 
0

>  <r_i_glide_ligand_efficiency>  (1) 
-0.70150326224773563

>  <r_i_glide_ligand_efficiency_ln>  (1) 
-1.9746906129095763

>  <r_i_glide_ligand_efficiency_sa>  (1) 
-1.4591855876196524

>  <r_i_glide_lipo>  (1) 
-2.3025343877936737

>  <r_i_glide_metal>  (1) 
-0

>  <r_i_glide_rewards>  (1) 
-2.7751773922397387

>  <r_lp_Energy>  (1) 
5.8399909999999995

>  <r_lp_tautomer_probability>  (1) 
1

>  <s_epik_Chemistry_Notes>  (1) 
This compound contains an acetal/aminal-like group ( X-CH(R)-Y where X, Y are N, S, or O) that may be acid/base labile, releasing an aldehyde.

>  <s_epik_cmdline>  (1) 
J2VwaWtfcHl0aG9uJywgJy1waHQnLCAnMS4wJywgJy1waCcsICc3LjQnLCAnLXRuJywgJzgnLCAnLW1hJywgJzUwMCcsICctaW1hZScsICc8aW5maWxlLm1hZT4nLCAnLW9tYWUnLCAnPG91dGZpbGUubWFlPic=

>  <s_epik_input>  (1) 
TzFbQ0gyXVNjKGMxMilbY0hdW2NIXVtjSF1bY0hdMg==

>  <s_glide_docking_method>  (1) 
confgen

>  <s_i_glide_gridfile>  (1) 
gpcr_drd2_6luq_protein_autoprepared_prepared

>  <s_lp_Force_Field>  (1) 
S-OPLS

>  <s_lp_Variant>  (1) 
Pocket2Mol_41-1

>  <s_m_source_file>  (1) 
generated_generic_title2_ligand_Pocket2Mol_2026-06-23_prepared.sdf

>  <GenAI_Model>  (1) 
Pocket2Mol

>  <Protein>  (1) 
generic_title2

$$$$
Pocket2Mol_57
     RDKit          3D

  0  0  0  0  0  0  0  0  0  0999 V3000
M  V30 BEGIN CTAB
M  V30 COUNTS 18 19 0 0 1
M  V30 BEGIN ATOM
M  V30 1 C 12.357489 8.618649 -2.132882 0
M  V30 2 O 12.409269 9.332937 -3.337356 0
M  V30 3 C 11.869381 8.710376 -4.439459 0
M  V30 4 C 11.531410 7.342994 -4.385009 0
M  V30 5 C 10.975534 6.705843 -5.509664 0
M  V30 6 C 11.666859 9.434316 -5.630238 0
M  V30 7 C 11.123059 8.790237 -6.760924 0
M  V30 8 C 11.772851 6.571140 -3.109692 0
M  V30 9 C 10.772516 7.428969 -6.698026 0
M  V30 10 O 12.679791 7.269571 -2.273466 0
M  V30 11 H 13.079043 9.065540 -1.450308 0
M  V30 12 H 11.375409 8.724430 -1.678035 0
M  V30 13 H 10.713262 5.661109 -5.462843 0
M  V30 14 H 11.931787 10.480071 -5.679014 0
M  V30 15 H 10.975414 9.338838 -7.675538 0
M  V30 16 H 10.830170 6.394159 -2.589948 0
M  V30 17 H 12.175413 5.590227 -3.343724 0
M  V30 18 H 10.351446 6.938599 -7.564012 0
M  V30 END ATOM
M  V30 BEGIN BOND
M  V30 1 1 2 1
M  V30 2 1 3 2
M  V30 3 1 4 3
M  V30 4 2 5 4
M  V30 5 2 6 3
M  V30 6 1 7 6
M  V30 7 1 8 4
M  V30 8 1 9 5
M  V30 9 2 9 7
M  V30 10 1 10 1
M  V30 11 1 10 8
M  V30 12 1 11 1
M  V30 13 1 12 1
M  V30 14 1 13 5
M  V30 15 1 14 6
M  V30 16 1 15 7
M  V30 17 1 16 8
M  V30 18 1 17 8
M  V30 19 1 18 9
M  V30 END BOND
M  V30 END CTAB
M  END
>  <i_epik_Tot_Q>  (1) 
0

>  <i_epik_Tot_abs_Q>  (1) 
0

>  <i_i_glide_confnum>  (1) 
1

>  <i_i_glide_lignum>  (1) 
64

>  <i_i_glide_posenum>  (1) 
233

>  <i_i_glide_rotatable_bonds>  (1) 
0

>  <i_lp_mmshare_version>  (1) 
72125

>  <i_m_source_file_index>  (1) 
58

>  <i_f3d_flags>  (1) 
0

>  <num_sample>  (1) 
100

>  <b_lp_Chiralities_Consistent>  (1) 
1

>  <r_epik_Charging_Adjusted_Penalty>  (1) 
0

>  <r_epik_Ionization_Penalty>  (1) 
5.7885637950061117e-15

>  <r_epik_Ionization_Penalty_Charging>  (1) 
0

>  <r_epik_Ionization_Penalty_Neutral>  (1) 
5.7885637950061117e-15

>  <r_epik_State_Penalty>  (1) 
-0

>  <r_glide_ring_energy>  (1) 
0

>  <r_i_docking_score>  (1) 
-6.3130551760253946

>  <r_i_glide_ecoul>  (1) 
-1.8864236104955501

>  <r_i_glide_eff_state_penalty>  (1) 
-0

>  <r_i_glide_einternal>  (1) 
0

>  <r_i_glide_emodel>  (1) 
-29.595781571690267

>  <r_i_glide_emodel_strain>  (1) 
0

>  <r_i_glide_energy>  (1) 
-21.303031213342511

>  <r_i_glide_erotb>  (1) 
0

>  <r_i_glide_esite>  (1) 
0

>  <r_i_glide_evdw>  (1) 
-19.416607602846959

>  <r_i_glide_gscore>  (1) 
-6.3130551760253946

>  <r_i_glide_gscore_strain>  (1) 
0

>  <r_i_glide_hbond>  (1) 
0

>  <r_i_glide_ligand_efficiency>  (1) 
-0.6313055176025395

>  <r_i_glide_ligand_efficiency_ln>  (1) 
-1.9115495886593878

>  <r_i_glide_ligand_efficiency_sa>  (1) 
-1.3601065071314451

>  <r_i_glide_lipo>  (1) 
-1.7812940599575258

>  <r_i_glide_metal>  (1) 
-0

>  <r_i_glide_rewards>  (1) 
-3.2779671943511888

>  <r_lp_Energy>  (1) 
18.330197999999999

>  <r_lp_tautomer_probability>  (1) 
1

>  <s_epik_Chemistry_Notes>  (1) 
This compound contains an acetal/aminal-like group ( X-CH(R)-Y where X, Y are N, S, or O) that may be acid/base labile, releasing an aldehyde.

>  <s_epik_cmdline>  (1) 
J2VwaWtfcHl0aG9uJywgJy1waHQnLCAnMS4wJywgJy1waCcsICc3LjQnLCAnLXRuJywgJzgnLCAnLW1hJywgJzUwMCcsICctaW1hZScsICc8aW5maWxlLm1hZT4nLCAnLW9tYWUnLCAnPG91dGZpbGUubWFlPic=

>  <s_epik_input>  (1) 
TzFbQ0gyXU9bQ0gyXWMoYzEyKVtjSF1bY0hdW2NIXVtjSF0y

>  <s_glide_docking_method>  (1) 
confgen

>  <s_i_glide_gridfile>  (1) 
gpcr_drd2_6luq_protein_autoprepared_prepared

>  <s_lp_Force_Field>  (1) 
S-OPLS

>  <s_lp_Variant>  (1) 
Pocket2Mol_57-1

>  <s_m_source_file>  (1) 
generated_generic_title2_ligand_Pocket2Mol_2026-06-23_prepared.sdf

>  <GenAI_Model>  (1) 
Pocket2Mol

>  <Protein>  (1) 
generic_title2

$$$$
Pocket2Mol_70
     RDKit          3D

  0  0  0  0  0  0  0  0  0  0999 V3000
M  V30 BEGIN CTAB
M  V30 COUNTS 20 21 0 0 1
M  V30 BEGIN ATOM
M  V30 1 C 10.221601 6.417351 -7.201905 0
M  V30 2 O 10.981493 6.092777 -6.044514 0
M  V30 3 C 11.362478 7.116643 -5.206416 0
M  V30 4 C 11.356289 8.461443 -5.656784 0
M  V30 5 C 11.762614 9.494367 -4.788811 0
M  V30 6 C 11.775441 6.821066 -3.892734 0
M  V30 7 C 12.180362 7.856363 -3.029969 0
M  V30 8 C 10.915809 8.790227 -7.069921 0
M  V30 9 F 12.575239 7.569540 -1.770118 0
M  V30 10 C 12.175314 9.190194 -3.476999 0
M  V30 11 C 10.893288 7.555006 -7.965401 0
M  V30 12 H 10.152125 5.529546 -7.830061 0
M  V30 13 H 9.203029 6.682825 -6.910346 0
M  V30 14 H 11.759089 10.519153 -5.129905 0
M  V30 15 H 11.782350 5.798015 -3.547769 0
M  V30 16 H 9.903604 9.190316 -7.010548 0
M  V30 17 H 11.557170 9.560766 -7.497630 0
M  V30 18 H 12.486544 9.982104 -2.810894 0
M  V30 19 H 11.910051 7.262924 -8.225126 0
M  V30 20 H 10.370477 7.763875 -8.898854 0
M  V30 END ATOM
M  V30 BEGIN BOND
M  V30 1 1 2 1
M  V30 2 1 3 2
M  V30 3 2 4 3
M  V30 4 1 5 4
M  V30 5 1 6 3
M  V30 6 2 7 6
M  V30 7 1 8 4
M  V30 8 1 9 7
M  V30 9 2 10 5
M  V30 10 1 10 7
M  V30 11 1 11 1
M  V30 12 1 11 8
M  V30 13 1 12 1
M  V30 14 1 13 1
M  V30 15 1 14 5
M  V30 16 1 15 6
M  V30 17 1 16 8
M  V30 18 1 17 8
M  V30 19 1 18 10
M  V30 20 1 19 11
M  V30 21 1 20 11
M  V30 END BOND
M  V30 END CTAB
M  END
>  <i_epik_Tot_Q>  (1) 
0

>  <i_epik_Tot_abs_Q>  (1) 
0

>  <i_i_glide_confnum>  (1) 
1

>  <i_i_glide_lignum>  (1) 
77

>  <i_i_glide_posenum>  (1) 
70

>  <i_i_glide_rotatable_bonds>  (1) 
0

>  <i_lp_mmshare_version>  (1) 
72125

>  <i_m_source_file_index>  (1) 
71

>  <i_f3d_flags>  (1) 
0

>  <num_sample>  (1) 
100

>  <b_lp_Chiralities_Consistent>  (1) 
1

>  <r_epik_Charging_Adjusted_Penalty>  (1) 
0

>  <r_epik_Ionization_Penalty>  (1) 
0

>  <r_epik_Ionization_Penalty_Charging>  (1) 
0

>  <r_epik_Ionization_Penalty_Neutral>  (1) 
0

>  <r_epik_State_Penalty>  (1) 
-0

>  <r_glide_ring_energy>  (1) 
0

>  <r_i_docking_score>  (1) 
-6.2977735828352355

>  <r_i_glide_ecoul>  (1) 
-0.3806416844273468

>  <r_i_glide_eff_state_penalty>  (1) 
-0

>  <r_i_glide_einternal>  (1) 
0

>  <r_i_glide_emodel>  (1) 
-28.916703944693893

>  <r_i_glide_emodel_strain>  (1) 
0

>  <r_i_glide_energy>  (1) 
-20.840279267064954

>  <r_i_glide_erotb>  (1) 
0

>  <r_i_glide_esite>  (1) 
0

>  <r_i_glide_evdw>  (1) 
-20.459637582637608

>  <r_i_glide_gscore>  (1) 
-6.2977735828352355

>  <r_i_glide_gscore_strain>  (1) 
0

>  <r_i_glide_hbond>  (1) 
0

>  <r_i_glide_ligand_efficiency>  (1) 
-0.57252487116683959

>  <r_i_glide_ligand_efficiency_ln>  (1) 
-1.8534336926896047

>  <r_i_glide_ligand_efficiency_sa>  (1) 
-1.2732839148308137

>  <r_i_glide_lipo>  (1) 
-2.1790165200898999

>  <r_i_glide_metal>  (1) 
-0

>  <r_i_glide_rewards>  (1) 
-3.0386789309493532

>  <r_lp_Energy>  (1) 
13.183325999999999

>  <r_lp_tautomer_probability>  (1) 
1

>  <s_epik_cmdline>  (1) 
J2VwaWtfcHl0aG9uJywgJy1waHQnLCAnMS4wJywgJy1waCcsICc3LjQnLCAnLXRuJywgJzgnLCAnLW1hJywgJzUwMCcsICctaW1hZScsICc8aW5maWxlLm1hZT4nLCAnLW9tYWUnLCAnPG91dGZpbGUubWFlPic=

>  <s_epik_input>  (1) 
TzFbQ0gyXVtDSDJdW0NIMl1jKGMxMilbY0hdW2NIXWMoRilbY0hdMg==

>  <s_glide_docking_method>  (1) 
confgen

>  <s_i_glide_gridfile>  (1) 
gpcr_drd2_6luq_protein_autoprepared_prepared

>  <s_lp_Force_Field>  (1) 
S-OPLS

>  <s_lp_Variant>  (1) 
Pocket2Mol_70-1

>  <s_m_source_file>  (1) 
generated_generic_title2_ligand_Pocket2Mol_2026-06-23_prepared.sdf

>  <GenAI_Model>  (1) 
Pocket2Mol

>  <Protein>  (1) 
generic_title2

$$$$
Pocket2Mol_57
     RDKit          3D

  0  0  0  0  0  0  0  0  0  0999 V3000
M  V30 BEGIN CTAB
M  V30 COUNTS 18 19 0 0 1
M  V30 BEGIN ATOM
M  V30 1 C 11.775399 9.803830 -6.372491 0
M  V30 2 O 11.985297 9.990213 -5.011460 0
M  V30 3 C 11.965394 8.842276 -4.264577 0
M  V30 4 C 11.380757 7.669159 -4.785009 0
M  V30 5 C 11.375408 6.489189 -4.018698 0
M  V30 6 C 12.530199 8.834887 -2.978001 0
M  V30 7 C 12.516292 7.660774 -2.209077 0
M  V30 8 C 10.777045 7.690631 -6.170330 0
M  V30 9 C 11.939587 6.488220 -2.726757 0
M  V30 10 O 10.643929 9.029026 -6.635989 0
M  V30 11 H 11.641362 10.800129 -6.784957 0
M  V30 12 H 12.661397 9.358320 -6.830205 0
M  V30 13 H 10.932727 5.590214 -4.415825 0
M  V30 14 H 12.975405 9.730147 -2.582443 0
M  V30 15 H 12.950481 7.658584 -1.220454 0
M  V30 16 H 11.416207 7.121730 -6.847239 0
M  V30 17 H 9.797175 7.211834 -6.163973 0
M  V30 18 H 11.929242 5.590244 -2.133375 0
M  V30 END ATOM
M  V30 BEGIN BOND
M  V30 1 1 2 1
M  V30 2 1 3 2
M  V30 3 1 4 3
M  V30 4 2 5 4
M  V30 5 2 6 3
M  V30 6 1 7 6
M  V30 7 1 8 4
M  V30 8 1 9 5
M  V30 9 2 9 7
M  V30 10 1 10 1
M  V30 11 1 10 8
M  V30 12 1 11 1
M  V30 13 1 12 1
M  V30 14 1 13 5
M  V30 15 1 14 6
M  V30 16 1 15 7
M  V30 17 1 16 8
M  V30 18 1 17 8
M  V30 19 1 18 9
M  V30 END BOND
M  V30 END CTAB
M  END
>  <i_epik_Tot_Q>  (1) 
0

>  <i_epik_Tot_abs_Q>  (1) 
0

>  <i_i_glide_confnum>  (1) 
1

>  <i_i_glide_lignum>  (1) 
64

>  <i_i_glide_posenum>  (1) 
42

>  <i_i_glide_rotatable_bonds>  (1) 
0

>  <i_lp_mmshare_version>  (1) 
72125

>  <i_m_source_file_index>  (1) 
58

>  <i_f3d_flags>  (1) 
0

>  <num_sample>  (1) 
100

>  <b_lp_Chiralities_Consistent>  (1) 
1

>  <r_epik_Charging_Adjusted_Penalty>  (1) 
0

>  <r_epik_Ionization_Penalty>  (1) 
5.7885637950061117e-15

>  <r_epik_Ionization_Penalty_Charging>  (1) 
0

>  <r_epik_Ionization_Penalty_Neutral>  (1) 
5.7885637950061117e-15

>  <r_epik_State_Penalty>  (1) 
-0

>  <r_glide_ring_energy>  (1) 
0

>  <r_i_docking_score>  (1) 
-6.2957582724701995

>  <r_i_glide_ecoul>  (1) 
-1.4161185066219775

>  <r_i_glide_eff_state_penalty>  (1) 
-0

>  <r_i_glide_einternal>  (1) 
0

>  <r_i_glide_emodel>  (1) 
-28.214398700212016

>  <r_i_glide_emodel_strain>  (1) 
0

>  <r_i_glide_energy>  (1) 
-19.944369338141996

>  <r_i_glide_erotb>  (1) 
0

>  <r_i_glide_esite>  (1) 
0

>  <r_i_glide_evdw>  (1) 
-18.528250831520019

>  <r_i_glide_gscore>  (1) 
-6.2957582724701995

>  <r_i_glide_gscore_strain>  (1) 
0

>  <r_i_glide_hbond>  (1) 
0

>  <r_i_glide_ligand_efficiency>  (1) 
-0.62957582724701999

>  <r_i_glide_ligand_efficiency_ln>  (1) 
-1.9063122054979704

>  <r_i_glide_ligand_efficiency_sa>  (1) 
-1.3563800022265002

>  <r_i_glide_lipo>  (1) 
-1.9066775487112209

>  <r_i_glide_metal>  (1) 
-0

>  <r_i_glide_rewards>  (1) 
-3.2502504061896813

>  <r_lp_Energy>  (1) 
18.330197999999999

>  <r_lp_tautomer_probability>  (1) 
1

>  <s_epik_Chemistry_Notes>  (1) 
This compound contains an acetal/aminal-like group ( X-CH(R)-Y where X, Y are N, S, or O) that may be acid/base labile, releasing an aldehyde.

>  <s_epik_cmdline>  (1) 
J2VwaWtfcHl0aG9uJywgJy1waHQnLCAnMS4wJywgJy1waCcsICc3LjQnLCAnLXRuJywgJzgnLCAnLW1hJywgJzUwMCcsICctaW1hZScsICc8aW5maWxlLm1hZT4nLCAnLW9tYWUnLCAnPG91dGZpbGUubWFlPic=

>  <s_epik_input>  (1) 
TzFbQ0gyXU9bQ0gyXWMoYzEyKVtjSF1bY0hdW2NIXVtjSF0y

>  <s_glide_docking_method>  (1) 
confgen

>  <s_i_glide_gridfile>  (1) 
gpcr_drd2_6luq_protein_autoprepared_prepared

>  <s_lp_Force_Field>  (1) 
S-OPLS

>  <s_lp_Variant>  (1) 
Pocket2Mol_57-1

>  <s_m_source_file>  (1) 
generated_generic_title2_ligand_Pocket2Mol_2026-06-23_prepared.sdf

>  <GenAI_Model>  (1) 
Pocket2Mol

>  <Protein>  (1) 
generic_title2

$$$$
Pocket2Mol_75
     RDKit          3D

  0  0  0  0  0  0  0  0  0  0999 V3000
M  V30 BEGIN CTAB
M  V30 COUNTS 17 18 0 0 1
M  V30 BEGIN ATOM
M  V30 1 C 12.575411 8.067636 -2.056736 0
M  V30 2 O 12.459514 9.190226 -2.851513 0
M  V30 3 C 11.970324 8.778005 -4.065139 0
M  V30 4 C 11.775410 7.387339 -4.041039 0
M  V30 5 C 11.262631 6.790227 -5.225153 0
M  V30 6 C 10.971482 7.587344 -6.372900 0
M  V30 7 C 12.172288 6.935263 -2.742124 0
M  V30 8 N 10.439970 6.959238 -7.602838 0 CHG=1
M  V30 9 C 11.193079 8.985762 -6.335691 0
M  V30 10 O 10.243210 5.750463 -7.585086 0 CHG=-1
M  V30 11 C 11.693296 9.581720 -5.171705 0
M  V30 12 O 10.232606 7.688674 -8.567310 0
M  V30 13 H 12.953187 8.234845 -1.058776 0
M  V30 14 H 11.094087 5.723936 -5.254044 0
M  V30 15 H 12.151528 5.916639 -2.380281 0
M  V30 16 H 10.975562 9.590223 -7.199017 0
M  V30 17 H 11.860563 10.646620 -5.132485 0
M  V30 END ATOM
M  V30 BEGIN BOND
M  V30 1 1 2 1
M  V30 2 1 3 2
M  V30 3 1 4 3
M  V30 4 2 5 4
M  V30 5 1 6 5
M  V30 6 2 7 1
M  V30 7 1 7 4
M  V30 8 1 8 6
M  V30 9 2 9 6
M  V30 10 1 10 8
M  V30 11 2 11 3
M  V30 12 1 11 9
M  V30 13 2 12 8
M  V30 14 1 13 1
M  V30 15 1 14 5
M  V30 16 1 15 7
M  V30 17 1 16 9
M  V30 18 1 17 11
M  V30 END BOND
M  V30 END CTAB
M  END
>  <i_epik_Tot_Q>  (1) 
0

>  <i_epik_Tot_abs_Q>  (1) 
2

>  <i_i_glide_confnum>  (1) 
1

>  <i_i_glide_lignum>  (1) 
82

>  <i_i_glide_posenum>  (1) 
143

>  <i_i_glide_rotatable_bonds>  (1) 
1

>  <i_lp_mmshare_version>  (1) 
72125

>  <i_m_source_file_index>  (1) 
76

>  <i_f3d_flags>  (1) 
0

>  <num_sample>  (1) 
100

>  <b_lp_Chiralities_Consistent>  (1) 
1

>  <r_epik_Charging_Adjusted_Penalty>  (1) 
0

>  <r_epik_Ionization_Penalty>  (1) 
0

>  <r_epik_Ionization_Penalty_Charging>  (1) 
0

>  <r_epik_Ionization_Penalty_Neutral>  (1) 
0

>  <r_epik_State_Penalty>  (1) 
-0

>  <r_glide_ring_energy>  (1) 
0

>  <r_i_docking_score>  (1) 
-6.2889095372330281

>  <r_i_glide_ecoul>  (1) 
0.43799331942609099

>  <r_i_glide_eff_state_penalty>  (1) 
-0

>  <r_i_glide_einternal>  (1) 
0.024715803898838873

>  <r_i_glide_emodel>  (1) 
-34.843147686891584

>  <r_i_glide_emodel_strain>  (1) 
0

>  <r_i_glide_energy>  (1) 
-24.619568048150011

>  <r_i_glide_erotb>  (1) 
0

>  <r_i_glide_esite>  (1) 
-0.05534644506979796

>  <r_i_glide_evdw>  (1) 
-25.057561367576103

>  <r_i_glide_gscore>  (1) 
-6.2889095372330281

>  <r_i_glide_gscore_strain>  (1) 
0

>  <r_i_glide_hbond>  (1) 
0

>  <r_i_glide_ligand_efficiency>  (1) 
-0.52407579476941901

>  <r_i_glide_ligand_efficiency_ln>  (1) 
-1.8046134858779088

>  <r_i_glide_ligand_efficiency_sa>  (1) 
-1.1998340529000218

>  <r_i_glide_lipo>  (1) 
-2.3113214907517099

>  <r_i_glide_metal>  (1) 
-0

>  <r_i_glide_rewards>  (1) 
-2.7350625309466281

>  <r_lp_Energy>  (1) 
17.097996999999999

>  <r_lp_tautomer_probability>  (1) 
1

>  <s_epik_cmdline>  (1) 
J2VwaWtfcHl0aG9uJywgJy1waHQnLCAnMS4wJywgJy1waCcsICc3LjQnLCAnLXRuJywgJzgnLCAnLW1hJywgJzUwMCcsICctaW1hZScsICc8aW5maWxlLm1hZT4nLCAnLW9tYWUnLCAnPG91dGZpbGUubWFlPic=

>  <s_epik_input>  (1) 
bzFbY0hdW2NIXWMoYzEyKVtjSF1jKFtOK10oW08tXSk9TylbY0hdW2NIXTI=

>  <s_glide_docking_method>  (1) 
confgen

>  <s_i_glide_gridfile>  (1) 
gpcr_drd2_6luq_protein_autoprepared_prepared

>  <s_lp_Force_Field>  (1) 
S-OPLS

>  <s_lp_Variant>  (1) 
Pocket2Mol_75-1

>  <s_m_source_file>  (1) 
generated_generic_title2_ligand_Pocket2Mol_2026-06-23_prepared.sdf

>  <GenAI_Model>  (1) 
Pocket2Mol

>  <Protein>  (1) 
generic_title2

$$$$
Pocket2Mol_67
     RDKit          3D

  0  0  0  0  0  0  0  0  0  0999 V3000
M  V30 BEGIN CTAB
M  V30 COUNTS 21 22 0 0 1
M  V30 BEGIN ATOM
M  V30 1 C 10.013759 6.615016 -7.791283 0
M  V30 2 O 10.220638 6.188401 -6.452518 0
M  V30 3 C 10.889991 7.062327 -5.626482 0
M  V30 4 C 9.568646 8.076779 -7.786187 0
M  V30 5 O 10.614825 8.853552 -7.223691 0
M  V30 6 C 11.087871 8.408077 -6.016559 0
M  V30 7 C 11.775410 9.294027 -5.162979 0
M  V30 8 C 11.375410 6.614931 -4.385028 0
M  V30 9 C 12.061989 7.500446 -3.530972 0
M  V30 10 C 12.575410 7.010088 -2.196524 0
M  V30 11 C 12.261787 8.841677 -3.919978 0
M  V30 12 H 9.249293 5.986868 -8.249404 0
M  V30 13 H 10.931080 6.486519 -8.367392 0
M  V30 14 H 8.650495 8.209245 -7.210703 0
M  V30 15 H 9.375410 8.422746 -8.801593 0
M  V30 16 H 11.927436 10.320930 -5.461105 0
M  V30 17 H 11.220357 5.590227 -4.086311 0
M  V30 18 H 11.769798 6.533981 -1.636258 0
M  V30 19 H 13.359632 6.269867 -2.357247 0
M  V30 20 H 12.975408 7.826361 -1.594325 0
M  V30 21 H 12.786872 9.523193 -3.265864 0
M  V30 END ATOM
M  V30 BEGIN BOND
M  V30 1 1 2 1
M  V30 2 1 3 2
M  V30 3 1 4 1
M  V30 4 1 5 4
M  V30 5 2 6 3
M  V30 6 1 6 5
M  V30 7 1 7 6
M  V30 8 1 8 3
M  V30 9 2 9 8
M  V30 10 1 10 9
M  V30 11 2 11 7
M  V30 12 1 11 9
M  V30 13 1 12 1
M  V30 14 1 13 1
M  V30 15 1 14 4
M  V30 16 1 15 4
M  V30 17 1 16 7
M  V30 18 1 17 8
M  V30 19 1 18 10
M  V30 20 1 19 10
M  V30 21 1 20 10
M  V30 22 1 21 11
M  V30 END BOND
M  V30 END CTAB
M  END
>  <i_epik_Tot_Q>  (1) 
0

>  <i_epik_Tot_abs_Q>  (1) 
0

>  <i_i_glide_confnum>  (1) 
1

>  <i_i_glide_lignum>  (1) 
74

>  <i_i_glide_posenum>  (1) 
75

>  <i_i_glide_rotatable_bonds>  (1) 
0

>  <i_lp_mmshare_version>  (1) 
72125

>  <i_m_source_file_index>  (1) 
68

>  <i_f3d_flags>  (1) 
0

>  <num_sample>  (1) 
100

>  <b_lp_Chiralities_Consistent>  (1) 
1

>  <r_epik_Charging_Adjusted_Penalty>  (1) 
0

>  <r_epik_Ionization_Penalty>  (1) 
0

>  <r_epik_Ionization_Penalty_Charging>  (1) 
0

>  <r_epik_Ionization_Penalty_Neutral>  (1) 
0

>  <r_epik_State_Penalty>  (1) 
-0

>  <r_glide_ring_energy>  (1) 
0

>  <r_i_docking_score>  (1) 
-6.2821047690481571

>  <r_i_glide_ecoul>  (1) 
-1.0856590360343863

>  <r_i_glide_eff_state_penalty>  (1) 
-0

>  <r_i_glide_einternal>  (1) 
0

>  <r_i_glide_emodel>  (1) 
-29.635702214614309

>  <r_i_glide_emodel_strain>  (1) 
0.0038612321346853662

>  <r_i_glide_energy>  (1) 
-21.340277139327945

>  <r_i_glide_erotb>  (1) 
0

>  <r_i_glide_esite>  (1) 
0

>  <r_i_glide_evdw>  (1) 
-20.254618103293559

>  <r_i_glide_gscore>  (1) 
-6.2821047690481571

>  <r_i_glide_gscore_strain>  (1) 
0

>  <r_i_glide_hbond>  (1) 
0

>  <r_i_glide_ligand_efficiency>  (1) 
-0.57110043354983242

>  <r_i_glide_ligand_efficiency_ln>  (1) 
-1.8488223634610335

>  <r_i_glide_ligand_efficiency_sa>  (1) 
-1.2701159939303319

>  <r_i_glide_lipo>  (1) 
-2.1661987451889453

>  <r_i_glide_metal>  (1) 
-0

>  <r_i_glide_rewards>  (1) 
-2.9403262632893759

>  <r_lp_Energy>  (1) 
14.201067

>  <r_lp_tautomer_probability>  (1) 
1

>  <s_epik_cmdline>  (1) 
J2VwaWtfcHl0aG9uJywgJy1waHQnLCAnMS4wJywgJy1waCcsICc3LjQnLCAnLXRuJywgJzgnLCAnLW1hJywgJzUwMCcsICctaW1hZScsICc8aW5maWxlLm1hZT4nLCAnLW9tYWUnLCAnPG91dGZpbGUubWFlPic=

>  <s_epik_input>  (1) 
TzFbQ0gyXVtDSDJdT2MoYzEyKVtjSF1bY0hdYyhbY0hdMilbQ0gzXQ==

>  <s_glide_docking_method>  (1) 
confgen

>  <s_i_glide_gridfile>  (1) 
gpcr_drd2_6luq_protein_autoprepared_prepared

>  <s_lp_Force_Field>  (1) 
S-OPLS

>  <s_lp_Variant>  (1) 
Pocket2Mol_67-1

>  <s_m_source_file>  (1) 
generated_generic_title2_ligand_Pocket2Mol_2026-06-23_prepared.sdf

>  <GenAI_Model>  (1) 
Pocket2Mol

>  <Protein>  (1) 
generic_title2

$$$$
Pocket2Mol_70
     RDKit          3D

  0  0  0  0  0  0  0  0  0  0999 V3000
M  V30 BEGIN CTAB
M  V30 COUNTS 20 21 0 0 1
M  V30 BEGIN ATOM
M  V30 1 C 10.101246 6.899517 -7.307306 0
M  V30 2 O 10.209179 6.447425 -5.965100 0
M  V30 3 C 10.989430 7.171982 -5.087633 0
M  V30 4 C 11.375410 8.501902 -5.379530 0
M  V30 5 C 12.169470 9.221318 -4.465014 0
M  V30 6 C 11.394714 6.585416 -3.879261 0
M  V30 7 C 12.186847 7.304565 -2.968282 0
M  V30 8 C 10.930662 9.157701 -6.657075 0
M  V30 9 F 12.575410 6.726295 -1.811459 0
M  V30 10 C 12.575410 8.622601 -3.260147 0
M  V30 11 C 9.787974 8.390227 -7.329637 0
M  V30 12 H 11.025992 6.684063 -7.844520 0
M  V30 13 H 9.304796 6.341061 -7.800353 0
M  V30 14 H 12.463031 10.233885 -4.689285 0
M  V30 15 H 11.094548 5.590227 -3.647469 0
M  V30 16 H 10.612646 10.164000 -6.385025 0
M  V30 17 H 11.785636 9.240828 -7.328831 0
M  V30 18 H 13.183480 9.175546 -2.558571 0
M  V30 19 H 9.626775 8.745653 -8.347932 0
M  V30 20 H 8.855127 8.560073 -6.789064 0
M  V30 END ATOM
M  V30 BEGIN BOND
M  V30 1 1 2 1
M  V30 2 1 3 2
M  V30 3 2 4 3
M  V30 4 1 5 4
M  V30 5 1 6 3
M  V30 6 2 7 6
M  V30 7 1 8 4
M  V30 8 1 9 7
M  V30 9 2 10 5
M  V30 10 1 10 7
M  V30 11 1 11 1
M  V30 12 1 11 8
M  V30 13 1 12 1
M  V30 14 1 13 1
M  V30 15 1 14 5
M  V30 16 1 15 6
M  V30 17 1 16 8
M  V30 18 1 17 8
M  V30 19 1 18 10
M  V30 20 1 19 11
M  V30 21 1 20 11
M  V30 END BOND
M  V30 END CTAB
M  END
>  <i_epik_Tot_Q>  (1) 
0

>  <i_epik_Tot_abs_Q>  (1) 
0

>  <i_i_glide_confnum>  (1) 
2

>  <i_i_glide_lignum>  (1) 
77

>  <i_i_glide_posenum>  (1) 
166

>  <i_i_glide_rotatable_bonds>  (1) 
0

>  <i_lp_mmshare_version>  (1) 
72125

>  <i_m_source_file_index>  (1) 
71

>  <i_f3d_flags>  (1) 
0

>  <num_sample>  (1) 
100

>  <b_lp_Chiralities_Consistent>  (1) 
1

>  <r_epik_Charging_Adjusted_Penalty>  (1) 
0

>  <r_epik_Ionization_Penalty>  (1) 
0

>  <r_epik_Ionization_Penalty_Charging>  (1) 
0

>  <r_epik_Ionization_Penalty_Neutral>  (1) 
0

>  <r_epik_State_Penalty>  (1) 
-0

>  <r_glide_ring_energy>  (1) 
0.00062641908125231891

>  <r_i_docking_score>  (1) 
-6.2754977768189724

>  <r_i_glide_ecoul>  (1) 
-0.26188180202376476

>  <r_i_glide_eff_state_penalty>  (1) 
-0

>  <r_i_glide_einternal>  (1) 
0

>  <r_i_glide_emodel>  (1) 
-28.173025324613999

>  <r_i_glide_emodel_strain>  (1) 
0

>  <r_i_glide_energy>  (1) 
-20.125167705971457

>  <r_i_glide_erotb>  (1) 
0

>  <r_i_glide_esite>  (1) 
0

>  <r_i_glide_evdw>  (1) 
-19.863285903947691

>  <r_i_glide_gscore>  (1) 
-6.2754977768189724

>  <r_i_glide_gscore_strain>  (1) 
0

>  <r_i_glide_hbond>  (1) 
0

>  <r_i_glide_ligand_efficiency>  (1) 
-0.57049979789263383

>  <r_i_glide_ligand_efficiency_ln>  (1) 
-1.8468779267733944

>  <r_i_glide_ligand_efficiency_sa>  (1) 
-1.2687801921870361

>  <r_i_glide_lipo>  (1) 
-2.0804195817486275

>  <r_i_glide_metal>  (1) 
-0

>  <r_i_glide_rewards>  (1) 
-3.1626316295693964

>  <r_lp_Energy>  (1) 
13.183325999999999

>  <r_lp_tautomer_probability>  (1) 
1

>  <s_epik_cmdline>  (1) 
J2VwaWtfcHl0aG9uJywgJy1waHQnLCAnMS4wJywgJy1waCcsICc3LjQnLCAnLXRuJywgJzgnLCAnLW1hJywgJzUwMCcsICctaW1hZScsICc8aW5maWxlLm1hZT4nLCAnLW9tYWUnLCAnPG91dGZpbGUubWFlPic=

>  <s_epik_input>  (1) 
TzFbQ0gyXVtDSDJdW0NIMl1jKGMxMilbY0hdW2NIXWMoRilbY0hdMg==

>  <s_glide_docking_method>  (1) 
confgen

>  <s_i_glide_gridfile>  (1) 
gpcr_drd2_6luq_protein_autoprepared_prepared

>  <s_lp_Force_Field>  (1) 
S-OPLS

>  <s_lp_Variant>  (1) 
Pocket2Mol_70-1

>  <s_m_source_file>  (1) 
generated_generic_title2_ligand_Pocket2Mol_2026-06-23_prepared.sdf

>  <GenAI_Model>  (1) 
Pocket2Mol

>  <Protein>  (1) 
generic_title2

$$$$
Pocket2Mol_82
     RDKit          3D

  0  0  0  0  0  0  0  0  0  0999 V3000
M  V30 BEGIN CTAB
M  V30 COUNTS 22 23 0 0 1
M  V30 BEGIN ATOM
M  V30 1 C 10.321823 6.790214 -5.616008 0
M  V30 2 O 11.375411 7.745027 -5.983252 0
M  V30 3 C 11.283642 7.715405 -7.326021 0
M  V30 4 C 10.229857 7.038172 -7.826475 0
M  V30 5 C 10.020312 6.916375 -9.205260 0
M  V30 6 C 9.350392 6.442520 -6.828801 0
M  V30 7 C 10.950800 7.512038 -10.095170 0
M  V30 8 O 10.800195 7.397365 -11.462907 0
M  V30 9 C 12.060894 8.223331 -9.562081 0
M  V30 10 O 12.975407 8.790226 -10.392724 0
M  V30 11 C 12.220637 8.328891 -8.165633 0
M  V30 12 C 9.833053 6.490975 -11.979896 0
M  V30 13 H 9.775410 7.190194 -4.785025 0
M  V30 14 H 10.818349 5.888872 -5.260167 0
M  V30 15 H 9.166815 6.368792 -9.575593 0
M  V30 16 H 8.404998 6.979084 -6.776585 0
M  V30 17 H 9.193584 5.379631 -7.000398 0
M  V30 18 H 13.546210 9.437903 -9.985025 0
M  V30 19 H 13.061917 8.860889 -7.748003 0
M  V30 20 H 9.966994 6.390154 -13.056127 0
M  V30 21 H 9.942742 5.491686 -11.556695 0
M  V30 22 H 8.819035 6.851596 -11.801889 0
M  V30 END ATOM
M  V30 BEGIN BOND
M  V30 1 1 2 1
M  V30 2 1 3 2
M  V30 3 1 4 3
M  V30 4 2 5 4
M  V30 5 1 6 1
M  V30 6 1 6 4
M  V30 7 1 7 5
M  V30 8 1 8 7
M  V30 9 2 9 7
M  V30 10 1 10 9
M  V30 11 2 11 3
M  V30 12 1 11 9
M  V30 13 1 12 8
M  V30 14 1 13 1
M  V30 15 1 14 1
M  V30 16 1 15 5
M  V30 17 1 16 6
M  V30 18 1 17 6
M  V30 19 1 18 10
M  V30 20 1 19 11
M  V30 21 1 20 12
M  V30 22 1 21 12
M  V30 23 1 22 12
M  V30 END BOND
M  V30 END CTAB
M  END
>  <i_epik_Tot_Q>  (1) 
0

>  <i_epik_Tot_abs_Q>  (1) 
0

>  <i_i_glide_confnum>  (1) 
1

>  <i_i_glide_lignum>  (1) 
89

>  <i_i_glide_posenum>  (1) 
23

>  <i_i_glide_rotatable_bonds>  (1) 
2

>  <i_lp_mmshare_version>  (1) 
72125

>  <i_m_source_file_index>  (1) 
83

>  <i_f3d_flags>  (1) 
0

>  <num_sample>  (1) 
100

>  <b_lp_Chiralities_Consistent>  (1) 
1

>  <r_epik_Charging_Adjusted_Penalty>  (1) 
0

>  <r_epik_Ionization_Penalty>  (1) 
0.0019697177408658601

>  <r_epik_Ionization_Penalty_Charging>  (1) 
0

>  <r_epik_Ionization_Penalty_Neutral>  (1) 
0.0019697177408658601

>  <r_epik_State_Penalty>  (1) 
-0

>  <r_glide_ring_energy>  (1) 
0

>  <r_i_docking_score>  (1) 
-6.2750335784654387

>  <r_i_glide_ecoul>  (1) 
-7.6920684267124537

>  <r_i_glide_eff_state_penalty>  (1) 
-0

>  <r_i_glide_einternal>  (1) 
0.33811074582658796

>  <r_i_glide_emodel>  (1) 
-32.292555252620723

>  <r_i_glide_emodel_strain>  (1) 
0.047023586567306097

>  <r_i_glide_energy>  (1) 
-23.702209638089659

>  <r_i_glide_erotb>  (1) 
0

>  <r_i_glide_esite>  (1) 
0

>  <r_i_glide_evdw>  (1) 
-16.010141211377206

>  <r_i_glide_gscore>  (1) 
-6.2750335784654387

>  <r_i_glide_gscore_strain>  (1) 
0

>  <r_i_glide_hbond>  (1) 
-0.32000000000000001

>  <r_i_glide_ligand_efficiency>  (1) 
-0.52291946487211993

>  <r_i_glide_ligand_efficiency_ln>  (1) 
-1.8006317554724665

>  <r_i_glide_ligand_efficiency_sa>  (1) 
-1.1971867182949647

>  <r_i_glide_lipo>  (1) 
-1.1448837892685737

>  <r_i_glide_metal>  (1) 
-0

>  <r_i_glide_rewards>  (1) 
-2.8558324646211362

>  <r_lp_Energy>  (1) 
16.449425999999999

>  <r_lp_tautomer_probability>  (1) 
1

>  <s_epik_cmdline>  (1) 
J2VwaWtfcHl0aG9uJywgJy1waHQnLCAnMS4wJywgJy1waCcsICc3LjQnLCAnLXRuJywgJzgnLCAnLW1hJywgJzUwMCcsICctaW1hZScsICc8aW5maWxlLm1hZT4nLCAnLW9tYWUnLCAnPG91dGZpbGUubWFlPic=

>  <s_epik_input>  (1) 
TzFbQ0gyXVtDSDJdYyhjMTIpW2NIXWMoT1tDSDNdKWMoW09IXSlbY0hdMg==

>  <s_glide_docking_method>  (1) 
confgen

>  <s_i_glide_gridfile>  (1) 
gpcr_drd2_6luq_protein_autoprepared_prepared

>  <s_lp_Force_Field>  (1) 
S-OPLS

>  <s_lp_Variant>  (1) 
Pocket2Mol_82-1

>  <s_m_source_file>  (1) 
generated_generic_title2_ligand_Pocket2Mol_2026-06-23_prepared.sdf

>  <GenAI_Model>  (1) 
Pocket2Mol

>  <Protein>  (1) 
generic_title2

$$$$
Pocket2Mol_73
     RDKit          3D

  0  0  0  0  0  0  0  0  0  0999 V3000
M  V30 BEGIN CTAB
M  V30 COUNTS 20 21 0 0 1
M  V30 BEGIN ATOM
M  V30 1 C 12.198454 9.317545 -4.611791 0
M  V30 2 O 11.407201 8.100128 -4.382400 0
M  V30 3 C 10.971790 7.805252 -5.622420 0
M  V30 4 C 11.366080 8.646432 -6.598430 0
M  V30 5 C 10.981569 8.451093 -7.939928 0
M  V30 6 C 12.213309 9.749876 -6.150567 0
M  V30 7 C 10.174408 6.696362 -5.898053 0
M  V30 8 C 10.175366 7.327852 -8.260018 0
M  V30 9 N 9.774518 7.085015 -9.577683 0
M  V30 10 C 9.774995 6.445263 -7.229175 0
M  V30 11 O 9.375757 8.246944 -10.258471 0
M  V30 12 H 13.212682 9.151324 -4.251005 0
M  V30 13 H 11.785465 10.105023 -3.989048 0
M  V30 14 H 11.302656 9.133434 -8.713291 0
M  V30 15 H 13.213525 9.686089 -6.584031 0
M  V30 16 H 11.741103 10.715943 -6.322298 0
M  V30 17 H 9.864719 6.041724 -5.101819 0
M  V30 18 H 9.077411 6.358243 -9.704087 0
M  V30 19 H 9.158588 5.586953 -7.456546 0
M  V30 20 H 8.457953 8.376803 -9.985006 0
M  V30 END ATOM
M  V30 BEGIN BOND
M  V30 1 1 2 1
M  V30 2 1 3 2
M  V30 3 2 4 3
M  V30 4 1 5 4
M  V30 5 1 6 1
M  V30 6 1 6 4
M  V30 7 1 7 3
M  V30 8 2 8 5
M  V30 9 1 9 8
M  V30 10 2 10 7
M  V30 11 1 10 8
M  V30 12 1 11 9
M  V30 13 1 12 1
M  V30 14 1 13 1
M  V30 15 1 14 5
M  V30 16 1 15 6
M  V30 17 1 16 6
M  V30 18 1 17 7
M  V30 19 1 18 9
M  V30 20 1 19 10
M  V30 21 1 20 11
M  V30 END BOND
M  V30 END CTAB
M  END
>  <i_epik_Tot_Q>  (1) 
0

>  <i_epik_Tot_abs_Q>  (1) 
0

>  <i_i_glide_confnum>  (1) 
1

>  <i_i_glide_lignum>  (1) 
80

>  <i_i_glide_posenum>  (1) 
248

>  <i_i_glide_rotatable_bonds>  (1) 
2

>  <i_lp_mmshare_version>  (1) 
72125

>  <i_m_source_file_index>  (1) 
74

>  <i_f3d_flags>  (1) 
0

>  <num_sample>  (1) 
100

>  <b_lp_Chiralities_Consistent>  (1) 
1

>  <r_epik_Charging_Adjusted_Penalty>  (1) 
0

>  <r_epik_Ionization_Penalty>  (1) 
0.00049506315318442675

>  <r_epik_Ionization_Penalty_Charging>  (1) 
0

>  <r_epik_Ionization_Penalty_Neutral>  (1) 
0.00049506315318442675

>  <r_epik_State_Penalty>  (1) 
-0

>  <r_glide_ring_energy>  (1) 
0

>  <r_i_docking_score>  (1) 
-6.2729990871601515

>  <r_i_glide_ecoul>  (1) 
-7.2840647119224853

>  <r_i_glide_eff_state_penalty>  (1) 
-0

>  <r_i_glide_einternal>  (1) 
1.2380049976318297

>  <r_i_glide_emodel>  (1) 
-35.153505934075945

>  <r_i_glide_emodel_strain>  (1) 
0.017813809425732074

>  <r_i_glide_energy>  (1) 
-25.482332052770946

>  <r_i_glide_erotb>  (1) 
0

>  <r_i_glide_esite>  (1) 
-0.10000000000000001

>  <r_i_glide_evdw>  (1) 
-18.19826734084846

>  <r_i_glide_gscore>  (1) 
-6.2729990871601515

>  <r_i_glide_gscore_strain>  (1) 
0

>  <r_i_glide_hbond>  (1) 
-0.16

>  <r_i_glide_ligand_efficiency>  (1) 
-0.57027264428728652

>  <r_i_glide_ligand_efficiency_ln>  (1) 
-1.8461425628324208

>  <r_i_glide_ligand_efficiency_sa>  (1) 
-1.2682750070912425

>  <r_i_glide_lipo>  (1) 
-1.5401773081963512

>  <r_i_glide_metal>  (1) 
-0

>  <r_i_glide_rewards>  (1) 
-2.4702987051330041

>  <r_lp_Energy>  (1) 
14.863064999999999

>  <r_lp_tautomer_probability>  (1) 
1

>  <s_epik_Chemistry_Notes>  (1) 
This compound has a N-S or N-O group and may undergo hydrolysis at high or low pH.

>  <s_epik_cmdline>  (1) 
J2VwaWtfcHl0aG9uJywgJy1waHQnLCAnMS4wJywgJy1waCcsICc3LjQnLCAnLXRuJywgJzgnLCAnLW1hJywgJzUwMCcsICctaW1hZScsICc8aW5maWxlLm1hZT4nLCAnLW9tYWUnLCAnPG91dGZpbGUubWFlPic=

>  <s_epik_input>  (1) 
TzFbQ0gyXVtDSDJdYyhjMTIpW2NIXWMoW05IXVtPSF0pW2NIXVtjSF0y

>  <s_glide_docking_method>  (1) 
confgen

>  <s_i_glide_gridfile>  (1) 
gpcr_drd2_6luq_protein_autoprepared_prepared

>  <s_lp_Force_Field>  (1) 
S-OPLS

>  <s_lp_Variant>  (1) 
Pocket2Mol_73-1

>  <s_m_source_file>  (1) 
generated_generic_title2_ligand_Pocket2Mol_2026-06-23_prepared.sdf

>  <GenAI_Model>  (1) 
Pocket2Mol

>  <Protein>  (1) 
generic_title2

$$$$
Pocket2Mol_65
     RDKit          3D

  0  0  0  0  0  0  0  0  0  0999 V3000
M  V30 BEGIN CTAB
M  V30 COUNTS 18 19 0 0 1
M  V30 BEGIN ATOM
M  V30 1 C 10.421147 8.194885 -7.787869 0
M  V30 2 O 10.807538 9.128320 -6.781902 0
M  V30 3 C 11.239547 8.555939 -5.607407 0
M  V30 4 C 11.949219 9.348171 -4.683863 0
M  V30 5 C 9.529334 7.107818 -7.167961 0
M  V30 6 C 10.975416 7.192611 -5.308867 0
M  V30 7 O 10.263382 6.394987 -6.175179 0
M  V30 8 C 11.456461 6.634850 -4.108161 0
M  V30 9 C 12.175362 7.429637 -3.194219 0
M  V30 10 F 12.622144 6.897164 -2.056789 0
M  V30 11 C 12.417552 8.787160 -3.479818 0
M  V30 12 H 11.306946 7.754450 -8.245556 0
M  V30 13 H 9.882406 8.723529 -8.574249 0
M  V30 14 H 12.143070 10.387875 -4.902580 0
M  V30 15 H 9.197448 6.407754 -7.934684 0
M  V30 16 H 8.635300 7.546632 -6.724966 0
M  V30 17 H 11.266570 5.595934 -3.882341 0
M  V30 18 H 12.965724 9.397795 -2.777655 0
M  V30 END ATOM
M  V30 BEGIN BOND
M  V30 1 1 2 1
M  V30 2 1 3 2
M  V30 3 1 4 3
M  V30 4 1 5 1
M  V30 5 2 6 3
M  V30 6 1 7 5
M  V30 7 1 7 6
M  V30 8 1 8 6
M  V30 9 2 9 8
M  V30 10 1 10 9
M  V30 11 2 11 4
M  V30 12 1 11 9
M  V30 13 1 12 1
M  V30 14 1 13 1
M  V30 15 1 14 4
M  V30 16 1 15 5
M  V30 17 1 16 5
M  V30 18 1 17 8
M  V30 19 1 18 11
M  V30 END BOND
M  V30 END CTAB
M  END
>  <i_epik_Tot_Q>  (1) 
0

>  <i_epik_Tot_abs_Q>  (1) 
0

>  <i_i_glide_confnum>  (1) 
2

>  <i_i_glide_lignum>  (1) 
72

>  <i_i_glide_posenum>  (1) 
241

>  <i_i_glide_rotatable_bonds>  (1) 
0

>  <i_lp_mmshare_version>  (1) 
72125

>  <i_m_source_file_index>  (1) 
66

>  <i_f3d_flags>  (1) 
0

>  <num_sample>  (1) 
100

>  <b_lp_Chiralities_Consistent>  (1) 
1

>  <r_epik_Charging_Adjusted_Penalty>  (1) 
0

>  <r_epik_Ionization_Penalty>  (1) 
0

>  <r_epik_Ionization_Penalty_Charging>  (1) 
0

>  <r_epik_Ionization_Penalty_Neutral>  (1) 
0

>  <r_epik_State_Penalty>  (1) 
-0

>  <r_glide_ring_energy>  (1) 
0.0030884427186306492

>  <r_i_docking_score>  (1) 
-6.2659042603949882

>  <r_i_glide_ecoul>  (1) 
-1.0438644784321565

>  <r_i_glide_eff_state_penalty>  (1) 
-0

>  <r_i_glide_einternal>  (1) 
0

>  <r_i_glide_emodel>  (1) 
-31.157310969354683

>  <r_i_glide_emodel_strain>  (1) 
0

>  <r_i_glide_energy>  (1) 
-22.276825324406733

>  <r_i_glide_erotb>  (1) 
0

>  <r_i_glide_esite>  (1) 
0

>  <r_i_glide_evdw>  (1) 
-21.232960845974578

>  <r_i_glide_gscore>  (1) 
-6.2659042603949882

>  <r_i_glide_gscore_strain>  (1) 
0

>  <r_i_glide_hbond>  (1) 
0

>  <r_i_glide_ligand_efficiency>  (1) 
-0.56962766003590803

>  <r_i_glide_ligand_efficiency_ln>  (1) 
-1.844054556523939

>  <r_i_glide_ligand_efficiency_sa>  (1) 
-1.2668405749574461

>  <r_i_glide_lipo>  (1) 
-1.8531323515416955

>  <r_i_glide_metal>  (1) 
-0

>  <r_i_glide_rewards>  (1) 
-3.1945441947897408

>  <r_lp_Energy>  (1) 
15.305638999999999

>  <r_lp_tautomer_probability>  (1) 
1

>  <s_epik_cmdline>  (1) 
J2VwaWtfcHl0aG9uJywgJy1waHQnLCAnMS4wJywgJy1waCcsICc3LjQnLCAnLXRuJywgJzgnLCAnLW1hJywgJzUwMCcsICctaW1hZScsICc8aW5maWxlLm1hZT4nLCAnLW9tYWUnLCAnPG91dGZpbGUubWFlPic=

>  <s_epik_input>  (1) 
TzFbQ0gyXVtDSDJdT2MoYzEyKVtjSF1jKEYpW2NIXVtjSF0y

>  <s_glide_docking_method>  (1) 
confgen

>  <s_i_glide_gridfile>  (1) 
gpcr_drd2_6luq_protein_autoprepared_prepared

>  <s_lp_Force_Field>  (1) 
S-OPLS

>  <s_lp_Variant>  (1) 
Pocket2Mol_65-1

>  <s_m_source_file>  (1) 
generated_generic_title2_ligand_Pocket2Mol_2026-06-23_prepared.sdf

>  <GenAI_Model>  (1) 
Pocket2Mol

>  <Protein>  (1) 
generic_title2

$$$$
Pocket2Mol_69
     RDKit          3D

  0  0  0  0  0  0  0  0  0  0999 V3000
M  V30 BEGIN CTAB
M  V30 COUNTS 18 19 0 0 1
M  V30 BEGIN ATOM
M  V30 1 C 11.792723 6.695075 -2.385025 0
M  V30 2 O 11.375412 6.297889 -3.709227 0
M  V30 3 C 11.375409 7.172751 -4.785020 0
M  V30 4 C 11.775410 8.517962 -4.616444 0
M  V30 5 C 11.773914 9.393645 -5.721081 0
M  V30 6 C 10.974972 6.714013 -6.054761 0
M  V30 7 C 10.977232 7.587921 -7.154696 0
M  V30 8 C 12.192847 8.969503 -3.308875 0
M  V30 9 F 10.598379 7.141135 -8.374794 0
M  V30 10 C 12.206740 8.142942 -2.271206 0
M  V30 11 C 11.377062 8.924954 -6.989460 0
M  V30 12 H 12.625816 6.062919 -2.076906 0
M  V30 13 H 10.974370 6.505639 -1.690043 0
M  V30 14 H 12.081897 10.421362 -5.598059 0
M  V30 15 H 10.669312 5.688017 -6.185220 0
M  V30 16 H 12.497670 9.990227 -3.198782 0
M  V30 17 H 12.523817 8.493328 -1.299579 0
M  V30 18 H 11.381105 9.590225 -7.837225 0
M  V30 END ATOM
M  V30 BEGIN BOND
M  V30 1 1 2 1
M  V30 2 1 3 2
M  V30 3 2 4 3
M  V30 4 1 5 4
M  V30 5 1 6 3
M  V30 6 2 7 6
M  V30 7 1 8 4
M  V30 8 1 9 7
M  V30 9 1 10 1
M  V30 10 2 10 8
M  V30 11 2 11 5
M  V30 12 1 11 7
M  V30 13 1 12 1
M  V30 14 1 13 1
M  V30 15 1 14 5
M  V30 16 1 15 6
M  V30 17 1 16 8
M  V30 18 1 17 10
M  V30 19 1 18 11
M  V30 END BOND
M  V30 END CTAB
M  END
>  <i_epik_Tot_Q>  (1) 
0

>  <i_epik_Tot_abs_Q>  (1) 
0

>  <i_i_glide_confnum>  (1) 
1

>  <i_i_glide_lignum>  (1) 
76

>  <i_i_glide_posenum>  (1) 
306

>  <i_i_glide_rotatable_bonds>  (1) 
0

>  <i_lp_mmshare_version>  (1) 
72125

>  <i_m_source_file_index>  (1) 
70

>  <i_f3d_flags>  (1) 
0

>  <num_sample>  (1) 
100

>  <b_lp_Chiralities_Consistent>  (1) 
1

>  <r_epik_Charging_Adjusted_Penalty>  (1) 
0

>  <r_epik_Ionization_Penalty>  (1) 
0

>  <r_epik_Ionization_Penalty_Charging>  (1) 
0

>  <r_epik_Ionization_Penalty_Neutral>  (1) 
0

>  <r_epik_State_Penalty>  (1) 
-0

>  <r_glide_ring_energy>  (1) 
0

>  <r_i_docking_score>  (1) 
-6.2614246462177139

>  <r_i_glide_ecoul>  (1) 
0.44691039420664591

>  <r_i_glide_eff_state_penalty>  (1) 
-0

>  <r_i_glide_einternal>  (1) 
0

>  <r_i_glide_emodel>  (1) 
-29.94694483900156

>  <r_i_glide_emodel_strain>  (1) 
0

>  <r_i_glide_energy>  (1) 
-21.911571044771712

>  <r_i_glide_erotb>  (1) 
0

>  <r_i_glide_esite>  (1) 
-0.02297164041789302

>  <r_i_glide_evdw>  (1) 
-22.358481438978359

>  <r_i_glide_gscore>  (1) 
-6.2614246462177139

>  <r_i_glide_gscore_strain>  (1) 
0

>  <r_i_glide_hbond>  (1) 
0

>  <r_i_glide_ligand_efficiency>  (1) 
-0.56922042238342851

>  <r_i_glide_ligand_efficiency_ln>  (1) 
-1.8427362068346076

>  <r_i_glide_ligand_efficiency_sa>  (1) 
-1.2659348865262017

>  <r_i_glide_lipo>  (1) 
-2.3861683983524746

>  <r_i_glide_metal>  (1) 
-0

>  <r_i_glide_rewards>  (1) 
-2.8013970946294249

>  <r_lp_Energy>  (1) 
13.322941

>  <r_lp_tautomer_probability>  (1) 
1

>  <s_epik_cmdline>  (1) 
J2VwaWtfcHl0aG9uJywgJy1waHQnLCAnMS4wJywgJy1waCcsICc3LjQnLCAnLXRuJywgJzgnLCAnLW1hJywgJzUwMCcsICctaW1hZScsICc8aW5maWxlLm1hZT4nLCAnLW9tYWUnLCAnPG91dGZpbGUubWFlPic=

>  <s_epik_input>  (1) 
TzFbQ0gyXVtDSF09W0NIXWMoYzEyKVtjSF1bY0hdYyhGKVtjSF0y

>  <s_glide_docking_method>  (1) 
confgen

>  <s_i_glide_gridfile>  (1) 
gpcr_drd2_6luq_protein_autoprepared_prepared

>  <s_lp_Force_Field>  (1) 
S-OPLS

>  <s_lp_Variant>  (1) 
Pocket2Mol_69-1

>  <s_m_source_file>  (1) 
generated_generic_title2_ligand_Pocket2Mol_2026-06-23_prepared.sdf

>  <GenAI_Model>  (1) 
Pocket2Mol

>  <Protein>  (1) 
generic_title2

$$$$
Pocket2Mol_49
     RDKit          3D

  0  0  0  0  0  0  0  0  0  0999 V3000
M  V30 BEGIN CTAB
M  V30 COUNTS 20 21 0 0 1
M  V30 BEGIN ATOM
M  V30 1 C 10.598864 8.373088 -7.903476 0
M  V30 2 O 11.003853 9.190197 -6.810945 0
M  V30 3 C 11.375426 8.565370 -5.643555 0
M  V30 4 C 10.974735 7.233498 -5.376428 0
M  V30 5 C 11.376748 6.606606 -4.179263 0
M  V30 6 C 12.161874 9.261426 -4.705239 0
M  V30 7 C 12.561504 8.633807 -3.508817 0
M  V30 8 C 10.113117 6.480505 -6.373588 0
M  V30 9 C 12.174409 7.305153 -3.247262 0
M  V30 10 C 9.527384 7.392803 -7.444141 0
M  V30 11 H 10.204720 9.009196 -8.695926 0
M  V30 12 H 11.461597 7.846826 -8.315555 0
M  V30 13 H 11.074708 5.590232 -3.975737 0
M  V30 14 H 12.462123 10.277085 -4.907270 0
M  V30 15 H 13.166986 9.171738 -2.793184 0
M  V30 16 H 10.723990 5.706253 -6.838028 0
M  V30 17 H 9.299068 5.990215 -5.841972 0
M  V30 18 H 12.482030 6.822582 -2.331201 0
M  V30 19 H 8.687484 7.952590 -7.029420 0
M  V30 20 H 9.131924 6.811996 -8.278668 0
M  V30 END ATOM
M  V30 BEGIN BOND
M  V30 1 1 2 1
M  V30 2 1 3 2
M  V30 3 1 4 3
M  V30 4 2 5 4
M  V30 5 2 6 3
M  V30 6 1 7 6
M  V30 7 1 8 4
M  V30 8 1 9 5
M  V30 9 2 9 7
M  V30 10 1 10 1
M  V30 11 1 10 8
M  V30 12 1 11 1
M  V30 13 1 12 1
M  V30 14 1 13 5
M  V30 15 1 14 6
M  V30 16 1 15 7
M  V30 17 1 16 8
M  V30 18 1 17 8
M  V30 19 1 18 9
M  V30 20 1 19 10
M  V30 21 1 20 10
M  V30 END BOND
M  V30 END CTAB
M  END
>  <i_epik_Tot_Q>  (1) 
0

>  <i_epik_Tot_abs_Q>  (1) 
0

>  <i_i_glide_confnum>  (1) 
1

>  <i_i_glide_lignum>  (1) 
56

>  <i_i_glide_posenum>  (1) 
182

>  <i_i_glide_rotatable_bonds>  (1) 
0

>  <i_lp_mmshare_version>  (1) 
72125

>  <i_m_source_file_index>  (1) 
50

>  <i_f3d_flags>  (1) 
0

>  <num_sample>  (1) 
100

>  <b_lp_Chiralities_Consistent>  (1) 
1

>  <r_epik_Charging_Adjusted_Penalty>  (1) 
0

>  <r_epik_Ionization_Penalty>  (1) 
0

>  <r_epik_Ionization_Penalty_Charging>  (1) 
0

>  <r_epik_Ionization_Penalty_Neutral>  (1) 
0

>  <r_epik_State_Penalty>  (1) 
-0

>  <r_glide_ring_energy>  (1) 
0

>  <r_i_docking_score>  (1) 
-6.2334990815177589

>  <r_i_glide_ecoul>  (1) 
-1.7038059704335295

>  <r_i_glide_eff_state_penalty>  (1) 
-0

>  <r_i_glide_einternal>  (1) 
0

>  <r_i_glide_emodel>  (1) 
-29.266596353823765

>  <r_i_glide_emodel_strain>  (1) 
0

>  <r_i_glide_energy>  (1) 
-21.229630193921086

>  <r_i_glide_erotb>  (1) 
0

>  <r_i_glide_esite>  (1) 
0

>  <r_i_glide_evdw>  (1) 
-19.525824223487557

>  <r_i_glide_gscore>  (1) 
-6.2334990815177589

>  <r_i_glide_gscore_strain>  (1) 
0

>  <r_i_glide_hbond>  (1) 
0

>  <r_i_glide_ligand_efficiency>  (1) 
-0.62334990815177593

>  <r_i_glide_ligand_efficiency_ln>  (1) 
-1.8874605516573126

>  <r_i_glide_ligand_efficiency_sa>  (1) 
-1.3429666661503745

>  <r_i_glide_lipo>  (1) 
-2.1292351427772296

>  <r_i_glide_metal>  (1) 
-0

>  <r_i_glide_rewards>  (1) 
-2.8724018320011222

>  <r_lp_Energy>  (1) 
14.978437

>  <r_lp_tautomer_probability>  (1) 
1

>  <s_epik_cmdline>  (1) 
J2VwaWtfcHl0aG9uJywgJy1waHQnLCAnMS4wJywgJy1waCcsICc3LjQnLCAnLXRuJywgJzgnLCAnLW1hJywgJzUwMCcsICctaW1hZScsICc8aW5maWxlLm1hZT4nLCAnLW9tYWUnLCAnPG91dGZpbGUubWFlPic=

>  <s_epik_input>  (1) 
TzFbQ0gyXVtDSDJdW0NIMl1jKGMxMilbY0hdW2NIXVtjSF1bY0hdMg==

>  <s_glide_docking_method>  (1) 
confgen

>  <s_i_glide_gridfile>  (1) 
gpcr_drd2_6luq_protein_autoprepared_prepared

>  <s_lp_Force_Field>  (1) 
S-OPLS

>  <s_lp_Variant>  (1) 
Pocket2Mol_49-1

>  <s_m_source_file>  (1) 
generated_generic_title2_ligand_Pocket2Mol_2026-06-23_prepared.sdf

>  <GenAI_Model>  (1) 
Pocket2Mol

>  <Protein>  (1) 
generic_title2

$$$$
Pocket2Mol_70
     RDKit          3D

  0  0  0  0  0  0  0  0  0  0999 V3000
M  V30 BEGIN CTAB
M  V30 COUNTS 20 21 0 0 1
M  V30 BEGIN ATOM
M  V30 1 C 12.268161 6.712145 -2.464866 0
M  V30 2 O 11.380029 6.390231 -3.528547 0
M  V30 3 C 11.375411 7.238477 -4.614801 0
M  V30 4 C 11.775409 8.595433 -4.479048 0
M  V30 5 C 11.772056 9.441788 -5.605355 0
M  V30 6 C 10.971388 6.753324 -5.872461 0
M  V30 7 C 10.973658 7.602185 -6.993201 0
M  V30 8 C 12.214369 9.138279 -3.129545 0
M  V30 9 F 10.592809 7.127025 -8.202087 0
M  V30 10 C 11.375257 8.943196 -6.860422 0
M  V30 11 C 12.043992 8.140860 -1.984914 0
M  V30 12 H 12.101647 6.008319 -1.648901 0
M  V30 13 H 13.301609 6.582979 -2.784904 0
M  V30 14 H 12.077589 10.472243 -5.507675 0
M  V30 15 H 10.665453 5.725286 -5.978905 0
M  V30 16 H 13.265343 9.417181 -3.213519 0
M  V30 17 H 11.663491 10.050000 -2.901711 0
M  V30 18 H 11.377786 9.590227 -7.723309 0
M  V30 19 H 11.031930 8.204041 -1.585026 0
M  V30 20 H 12.712253 8.392590 -1.161426 0
M  V30 END ATOM
M  V30 BEGIN BOND
M  V30 1 1 2 1
M  V30 2 1 3 2
M  V30 3 2 4 3
M  V30 4 1 5 4
M  V30 5 1 6 3
M  V30 6 2 7 6
M  V30 7 1 8 4
M  V30 8 1 9 7
M  V30 9 2 10 5
M  V30 10 1 10 7
M  V30 11 1 11 1
M  V30 12 1 11 8
M  V30 13 1 12 1
M  V30 14 1 13 1
M  V30 15 1 14 5
M  V30 16 1 15 6
M  V30 17 1 16 8
M  V30 18 1 17 8
M  V30 19 1 18 10
M  V30 20 1 19 11
M  V30 21 1 20 11
M  V30 END BOND
M  V30 END CTAB
M  END
>  <i_epik_Tot_Q>  (1) 
0

>  <i_epik_Tot_abs_Q>  (1) 
0

>  <i_i_glide_confnum>  (1) 
1

>  <i_i_glide_lignum>  (1) 
77

>  <i_i_glide_posenum>  (1) 
178

>  <i_i_glide_rotatable_bonds>  (1) 
0

>  <i_lp_mmshare_version>  (1) 
72125

>  <i_m_source_file_index>  (1) 
71

>  <i_f3d_flags>  (1) 
0

>  <num_sample>  (1) 
100

>  <b_lp_Chiralities_Consistent>  (1) 
1

>  <r_epik_Charging_Adjusted_Penalty>  (1) 
0

>  <r_epik_Ionization_Penalty>  (1) 
0

>  <r_epik_Ionization_Penalty_Charging>  (1) 
0

>  <r_epik_Ionization_Penalty_Neutral>  (1) 
0

>  <r_epik_State_Penalty>  (1) 
-0

>  <r_glide_ring_energy>  (1) 
0

>  <r_i_docking_score>  (1) 
-6.2316112550290566

>  <r_i_glide_ecoul>  (1) 
0.52264934418090447

>  <r_i_glide_eff_state_penalty>  (1) 
-0

>  <r_i_glide_einternal>  (1) 
0

>  <r_i_glide_emodel>  (1) 
-30.123841658988145

>  <r_i_glide_emodel_strain>  (1) 
0

>  <r_i_glide_energy>  (1) 
-22.132265229711546

>  <r_i_glide_erotb>  (1) 
0

>  <r_i_glide_esite>  (1) 
-0.014464781508282804

>  <r_i_glide_evdw>  (1) 
-22.654914573892452

>  <r_i_glide_gscore>  (1) 
-6.2316112550290566

>  <r_i_glide_gscore_strain>  (1) 
0

>  <r_i_glide_hbond>  (1) 
0

>  <r_i_glide_ligand_efficiency>  (1) 
-0.56651011409355057

>  <r_i_glide_ligand_efficiency_ln>  (1) 
-1.8339621308860854

>  <r_i_glide_ligand_efficiency_sa>  (1) 
-1.259907214850208

>  <r_i_glide_lipo>  (1) 
-2.4026565279414922

>  <r_i_glide_metal>  (1) 
-0

>  <r_i_glide_rewards>  (1) 
-2.7601416185117946

>  <r_lp_Energy>  (1) 
13.183325999999999

>  <r_lp_tautomer_probability>  (1) 
1

>  <s_epik_cmdline>  (1) 
J2VwaWtfcHl0aG9uJywgJy1waHQnLCAnMS4wJywgJy1waCcsICc3LjQnLCAnLXRuJywgJzgnLCAnLW1hJywgJzUwMCcsICctaW1hZScsICc8aW5maWxlLm1hZT4nLCAnLW9tYWUnLCAnPG91dGZpbGUubWFlPic=

>  <s_epik_input>  (1) 
TzFbQ0gyXVtDSDJdW0NIMl1jKGMxMilbY0hdW2NIXWMoRilbY0hdMg==

>  <s_glide_docking_method>  (1) 
confgen

>  <s_i_glide_gridfile>  (1) 
gpcr_drd2_6luq_protein_autoprepared_prepared

>  <s_lp_Force_Field>  (1) 
S-OPLS

>  <s_lp_Variant>  (1) 
Pocket2Mol_70-1

>  <s_m_source_file>  (1) 
generated_generic_title2_ligand_Pocket2Mol_2026-06-23_prepared.sdf

>  <GenAI_Model>  (1) 
Pocket2Mol

>  <Protein>  (1) 
generic_title2

$$$$
Pocket2Mol_57
     RDKit          3D

  0  0  0  0  0  0  0  0  0  0999 V3000
M  V30 BEGIN CTAB
M  V30 COUNTS 18 19 0 0 1
M  V30 BEGIN ATOM
M  V30 1 C 10.557552 8.383020 -6.923521 0
M  V30 2 O 10.790052 7.273282 -6.105604 0
M  V30 3 C 11.375408 7.531387 -4.887184 0
M  V30 4 C 11.945090 8.790227 -4.628232 0
M  V30 5 C 12.547624 9.048271 -3.381491 0
M  V30 6 C 11.402530 6.534577 -3.900026 0
M  V30 7 C 12.001871 6.790225 -2.650794 0
M  V30 8 C 11.907504 9.851289 -5.700921 0
M  V30 9 C 12.575409 8.048289 -2.392146 0
M  V30 10 O 11.645559 9.257315 -6.965389 0
M  V30 11 H 10.371307 8.019525 -7.934600 0
M  V30 12 H 9.657460 8.900801 -6.587751 0
M  V30 13 H 12.988634 10.003667 -3.184381 0
M  V30 14 H 10.960425 5.580488 -4.098925 0
M  V30 15 H 12.019624 6.020408 -1.892551 0
M  V30 16 H 11.135863 10.584463 -5.461460 0
M  V30 17 H 12.860763 10.375162 -5.754888 0
M  V30 18 H 13.035795 8.247336 -1.435596 0
M  V30 END ATOM
M  V30 BEGIN BOND
M  V30 1 1 2 1
M  V30 2 1 3 2
M  V30 3 1 4 3
M  V30 4 2 5 4
M  V30 5 2 6 3
M  V30 6 1 7 6
M  V30 7 1 8 4
M  V30 8 1 9 5
M  V30 9 2 9 7
M  V30 10 1 10 1
M  V30 11 1 10 8
M  V30 12 1 11 1
M  V30 13 1 12 1
M  V30 14 1 13 5
M  V30 15 1 14 6
M  V30 16 1 15 7
M  V30 17 1 16 8
M  V30 18 1 17 8
M  V30 19 1 18 9
M  V30 END BOND
M  V30 END CTAB
M  END
>  <i_epik_Tot_Q>  (1) 
0

>  <i_epik_Tot_abs_Q>  (1) 
0

>  <i_i_glide_confnum>  (1) 
1

>  <i_i_glide_lignum>  (1) 
64

>  <i_i_glide_posenum>  (1) 
139

>  <i_i_glide_rotatable_bonds>  (1) 
0

>  <i_lp_mmshare_version>  (1) 
72125

>  <i_m_source_file_index>  (1) 
58

>  <i_f3d_flags>  (1) 
0

>  <num_sample>  (1) 
100

>  <b_lp_Chiralities_Consistent>  (1) 
1

>  <r_epik_Charging_Adjusted_Penalty>  (1) 
0

>  <r_epik_Ionization_Penalty>  (1) 
5.7885637950061117e-15

>  <r_epik_Ionization_Penalty_Charging>  (1) 
0

>  <r_epik_Ionization_Penalty_Neutral>  (1) 
5.7885637950061117e-15

>  <r_epik_State_Penalty>  (1) 
-0

>  <r_glide_ring_energy>  (1) 
0

>  <r_i_docking_score>  (1) 
-6.230627288449786

>  <r_i_glide_ecoul>  (1) 
-0.73024242242189574

>  <r_i_glide_eff_state_penalty>  (1) 
-0

>  <r_i_glide_einternal>  (1) 
0

>  <r_i_glide_emodel>  (1) 
-29.18143366559628

>  <r_i_glide_emodel_strain>  (1) 
0

>  <r_i_glide_energy>  (1) 
-20.996959549918849

>  <r_i_glide_erotb>  (1) 
0

>  <r_i_glide_esite>  (1) 
0

>  <r_i_glide_evdw>  (1) 
-20.266717127496953

>  <r_i_glide_gscore>  (1) 
-6.230627288449786

>  <r_i_glide_gscore_strain>  (1) 
0

>  <r_i_glide_hbond>  (1) 
0

>  <r_i_glide_ligand_efficiency>  (1) 
-0.6230627288449786

>  <r_i_glide_ligand_efficiency_ln>  (1) 
-1.8865909925128519

>  <r_i_glide_ligand_efficiency_sa>  (1) 
-1.3423479570895511

>  <r_i_glide_lipo>  (1) 
-2.0237427053087673

>  <r_i_glide_metal>  (1) 
-0

>  <r_i_glide_rewards>  (1) 
-3.0840123634028869

>  <r_lp_Energy>  (1) 
18.330197999999999

>  <r_lp_tautomer_probability>  (1) 
1

>  <s_epik_Chemistry_Notes>  (1) 
This compound contains an acetal/aminal-like group ( X-CH(R)-Y where X, Y are N, S, or O) that may be acid/base labile, releasing an aldehyde.

>  <s_epik_cmdline>  (1) 
J2VwaWtfcHl0aG9uJywgJy1waHQnLCAnMS4wJywgJy1waCcsICc3LjQnLCAnLXRuJywgJzgnLCAnLW1hJywgJzUwMCcsICctaW1hZScsICc8aW5maWxlLm1hZT4nLCAnLW9tYWUnLCAnPG91dGZpbGUubWFlPic=

>  <s_epik_input>  (1) 
TzFbQ0gyXU9bQ0gyXWMoYzEyKVtjSF1bY0hdW2NIXVtjSF0y

>  <s_glide_docking_method>  (1) 
confgen

>  <s_i_glide_gridfile>  (1) 
gpcr_drd2_6luq_protein_autoprepared_prepared

>  <s_lp_Force_Field>  (1) 
S-OPLS

>  <s_lp_Variant>  (1) 
Pocket2Mol_57-1

>  <s_m_source_file>  (1) 
generated_generic_title2_ligand_Pocket2Mol_2026-06-23_prepared.sdf

>  <GenAI_Model>  (1) 
Pocket2Mol

>  <Protein>  (1) 
generic_title2

$$$$
Pocket2Mol_58
     RDKit          3D

  0  0  0  0  0  0  0  0  0  0999 V3000
M  V30 BEGIN CTAB
M  V30 COUNTS 18 19 0 0 1
M  V30 BEGIN ATOM
M  V30 1 C 12.392934 8.955606 -2.582695 0
M  V30 2 O 12.056808 9.554440 -3.854039 0
M  V30 3 C 11.554070 8.806339 -4.909792 0
M  V30 4 C 11.379335 7.406628 -4.785216 0
M  V30 5 C 10.865819 6.664304 -5.866773 0
M  V30 6 C 11.222262 9.446083 -6.116460 0
M  V30 7 C 10.710633 8.697881 -7.195748 0
M  V30 8 C 11.746632 6.756811 -3.548233 0
M  V30 9 C 10.529650 7.309597 -7.069018 0
M  V30 10 C 12.216004 7.456601 -2.523854 0
M  V30 11 H 11.787593 9.419118 -1.802805 0
M  V30 12 H 13.433547 9.189588 -2.368036 0
M  V30 13 H 10.732132 5.597590 -5.774847 0
M  V30 14 H 11.359639 10.513219 -6.215246 0
M  V30 15 H 10.455407 9.190227 -8.122506 0
M  V30 16 H 11.626348 5.686052 -3.481330 0
M  V30 17 H 10.134042 6.738526 -7.897182 0
M  V30 18 H 12.486053 6.961685 -1.602861 0
M  V30 END ATOM
M  V30 BEGIN BOND
M  V30 1 1 2 1
M  V30 2 1 3 2
M  V30 3 1 4 3
M  V30 4 2 5 4
M  V30 5 2 6 3
M  V30 6 1 7 6
M  V30 7 1 8 4
M  V30 8 1 9 5
M  V30 9 2 9 7
M  V30 10 1 10 1
M  V30 11 2 10 8
M  V30 12 1 11 1
M  V30 13 1 12 1
M  V30 14 1 13 5
M  V30 15 1 14 6
M  V30 16 1 15 7
M  V30 17 1 16 8
M  V30 18 1 17 9
M  V30 19 1 18 10
M  V30 END BOND
M  V30 END CTAB
M  END
>  <i_epik_Tot_Q>  (1) 
0

>  <i_epik_Tot_abs_Q>  (1) 
0

>  <i_i_glide_confnum>  (1) 
1

>  <i_i_glide_lignum>  (1) 
65

>  <i_i_glide_posenum>  (1) 
71

>  <i_i_glide_rotatable_bonds>  (1) 
0

>  <i_lp_mmshare_version>  (1) 
72125

>  <i_m_source_file_index>  (1) 
59

>  <i_f3d_flags>  (1) 
0

>  <num_sample>  (1) 
100

>  <b_lp_Chiralities_Consistent>  (1) 
1

>  <r_epik_Charging_Adjusted_Penalty>  (1) 
0

>  <r_epik_Ionization_Penalty>  (1) 
0

>  <r_epik_Ionization_Penalty_Charging>  (1) 
0

>  <r_epik_Ionization_Penalty_Neutral>  (1) 
0

>  <r_epik_State_Penalty>  (1) 
-0

>  <r_glide_ring_energy>  (1) 
0

>  <r_i_docking_score>  (1) 
-6.2074200342351356

>  <r_i_glide_ecoul>  (1) 
-1.4443142641395643

>  <r_i_glide_eff_state_penalty>  (1) 
-0

>  <r_i_glide_einternal>  (1) 
0

>  <r_i_glide_emodel>  (1) 
-28.593686938898365

>  <r_i_glide_emodel_strain>  (1) 
0

>  <r_i_glide_energy>  (1) 
-20.870330626927672

>  <r_i_glide_erotb>  (1) 
0

>  <r_i_glide_esite>  (1) 
0

>  <r_i_glide_evdw>  (1) 
-19.426016362788108

>  <r_i_glide_gscore>  (1) 
-6.2074200342351356

>  <r_i_glide_gscore_strain>  (1) 
0

>  <r_i_glide_hbond>  (1) 
0

>  <r_i_glide_ligand_efficiency>  (1) 
-0.6207420034235136

>  <r_i_glide_ligand_efficiency_ln>  (1) 
-1.8795639959143746

>  <r_i_glide_ligand_efficiency_sa>  (1) 
-1.3373481057355081

>  <r_i_glide_lipo>  (1) 
-2.2917028869436034

>  <r_i_glide_metal>  (1) 
-0

>  <r_i_glide_rewards>  (1) 
-2.727769189531192

>  <r_lp_Energy>  (1) 
15.262369

>  <r_lp_tautomer_probability>  (1) 
1

>  <s_epik_cmdline>  (1) 
J2VwaWtfcHl0aG9uJywgJy1waHQnLCAnMS4wJywgJy1waCcsICc3LjQnLCAnLXRuJywgJzgnLCAnLW1hJywgJzUwMCcsICctaW1hZScsICc8aW5maWxlLm1hZT4nLCAnLW9tYWUnLCAnPG91dGZpbGUubWFlPic=

>  <s_epik_input>  (1) 
TzFbQ0gyXVtDSF09W0NIXWMoYzEyKVtjSF1bY0hdW2NIXVtjSF0y

>  <s_glide_docking_method>  (1) 
confgen

>  <s_i_glide_gridfile>  (1) 
gpcr_drd2_6luq_protein_autoprepared_prepared

>  <s_lp_Force_Field>  (1) 
S-OPLS

>  <s_lp_Variant>  (1) 
Pocket2Mol_58-1

>  <s_m_source_file>  (1) 
generated_generic_title2_ligand_Pocket2Mol_2026-06-23_prepared.sdf

>  <GenAI_Model>  (1) 
Pocket2Mol

>  <Protein>  (1) 
generic_title2

$$$$
Pocket2Mol_63
     RDKit          3D

  0  0  0  0  0  0  0  0  0  0999 V3000
M  V30 BEGIN CTAB
M  V30 COUNTS 19 20 0 0 1
M  V30 BEGIN ATOM
M  V30 1 C 9.775403 7.606035 -7.584994 0
M  V30 2 O 10.358627 8.790226 -7.192710 0
M  V30 3 C 10.976761 8.561681 -5.989031 0
M  V30 4 C 10.795853 7.222214 -5.623306 0
M  V30 5 C 11.375410 6.807075 -4.395672 0
M  V30 6 C 12.108100 7.735491 -3.585025 0
M  V30 7 O 12.669365 7.346005 -2.388015 0
M  V30 8 C 11.682570 9.490482 -5.220077 0
M  V30 9 C 10.020586 6.612041 -6.659672 0
M  V30 10 C 12.253071 9.076735 -4.006859 0
M  V30 11 C 12.575402 5.990226 -1.985029 0
M  V30 12 H 9.231265 7.630783 -8.520291 0
M  V30 13 H 11.253753 5.784193 -4.078716 0
M  V30 14 H 11.785822 10.511551 -5.555491 0
M  V30 15 H 9.691372 5.590215 -6.698316 0
M  V30 16 H 12.801361 9.779351 -3.396543 0
M  V30 17 H 13.170659 5.830524 -1.088440 0
M  V30 18 H 11.544588 5.715852 -1.759309 0
M  V30 19 H 12.975410 5.323644 -2.745312 0
M  V30 END ATOM
M  V30 BEGIN BOND
M  V30 1 1 2 1
M  V30 2 1 3 2
M  V30 3 1 4 3
M  V30 4 2 5 4
M  V30 5 1 6 5
M  V30 6 1 7 6
M  V30 7 2 8 3
M  V30 8 2 9 1
M  V30 9 1 9 4
M  V30 10 2 10 6
M  V30 11 1 10 8
M  V30 12 1 11 7
M  V30 13 1 12 1
M  V30 14 1 13 5
M  V30 15 1 14 8
M  V30 16 1 15 9
M  V30 17 1 16 10
M  V30 18 1 17 11
M  V30 19 1 18 11
M  V30 20 1 19 11
M  V30 END BOND
M  V30 END CTAB
M  END
>  <i_epik_Tot_Q>  (1) 
0

>  <i_epik_Tot_abs_Q>  (1) 
0

>  <i_i_glide_confnum>  (1) 
1

>  <i_i_glide_lignum>  (1) 
70

>  <i_i_glide_posenum>  (1) 
32

>  <i_i_glide_rotatable_bonds>  (1) 
1

>  <i_lp_mmshare_version>  (1) 
72125

>  <i_m_source_file_index>  (1) 
64

>  <i_f3d_flags>  (1) 
0

>  <num_sample>  (1) 
100

>  <b_lp_Chiralities_Consistent>  (1) 
1

>  <r_epik_Charging_Adjusted_Penalty>  (1) 
0

>  <r_epik_Ionization_Penalty>  (1) 
0

>  <r_epik_Ionization_Penalty_Charging>  (1) 
0

>  <r_epik_Ionization_Penalty_Neutral>  (1) 
0

>  <r_epik_State_Penalty>  (1) 
-0

>  <r_glide_ring_energy>  (1) 
0

>  <r_i_docking_score>  (1) 
-6.2048802043420865

>  <r_i_glide_ecoul>  (1) 
-2.1028586962737172

>  <r_i_glide_eff_state_penalty>  (1) 
-0

>  <r_i_glide_einternal>  (1) 
0.0067641294516365136

>  <r_i_glide_emodel>  (1) 
-33.892486627202139

>  <r_i_glide_emodel_strain>  (1) 
0

>  <r_i_glide_energy>  (1) 
-24.417395292399107

>  <r_i_glide_erotb>  (1) 
0

>  <r_i_glide_esite>  (1) 
0

>  <r_i_glide_evdw>  (1) 
-22.314536596125389

>  <r_i_glide_gscore>  (1) 
-6.2048802043420865

>  <r_i_glide_gscore_strain>  (1) 
0

>  <r_i_glide_hbond>  (1) 
0

>  <r_i_glide_ligand_efficiency>  (1) 
-0.56408001857655332

>  <r_i_glide_ligand_efficiency_ln>  (1) 
-1.8260951872221758

>  <r_i_glide_ligand_efficiency_sa>  (1) 
-1.2545027308022243

>  <r_i_glide_lipo>  (1) 
-2.0025032526891833

>  <r_i_glide_metal>  (1) 
-0

>  <r_i_glide_rewards>  (1) 
-2.7712213174055766

>  <r_lp_Energy>  (1) 
14.639571

>  <r_lp_tautomer_probability>  (1) 
1

>  <s_epik_cmdline>  (1) 
J2VwaWtfcHl0aG9uJywgJy1waHQnLCAnMS4wJywgJy1waCcsICc3LjQnLCAnLXRuJywgJzgnLCAnLW1hJywgJzUwMCcsICctaW1hZScsICc8aW5maWxlLm1hZT4nLCAnLW9tYWUnLCAnPG91dGZpbGUubWFlPic=

>  <s_epik_input>  (1) 
bzFbY0hdW2NIXWMoYzEyKVtjSF1jKE9bQ0gzXSlbY0hdW2NIXTI=

>  <s_glide_docking_method>  (1) 
confgen

>  <s_i_glide_gridfile>  (1) 
gpcr_drd2_6luq_protein_autoprepared_prepared

>  <s_lp_Force_Field>  (1) 
S-OPLS

>  <s_lp_Variant>  (1) 
Pocket2Mol_63-1

>  <s_m_source_file>  (1) 
generated_generic_title2_ligand_Pocket2Mol_2026-06-23_prepared.sdf

>  <GenAI_Model>  (1) 
Pocket2Mol

>  <Protein>  (1) 
generic_title2

$$$$
Pocket2Mol_54
     RDKit          3D

  0  0  0  0  0  0  0  0  0  0999 V3000
M  V30 BEGIN CTAB
M  V30 COUNTS 18 19 0 0 1
M  V30 BEGIN ATOM
M  V30 1 C 12.575410 8.670088 -2.217329 0
M  V30 2 O 12.535438 9.590217 -3.372497 0
M  V30 3 C 12.016513 8.805477 -4.338195 0
M  V30 4 C 11.775410 7.525599 -3.985025 0
M  V30 5 C 11.227170 6.605613 -4.890457 0
M  V30 6 C 11.736502 9.269096 -5.636004 0
M  V30 7 C 11.190425 8.370110 -6.581018 0
M  V30 8 O 10.916595 8.790202 -7.847763 0
M  V30 9 C 10.930923 7.029633 -6.204138 0
M  V30 10 C 12.126835 7.186848 -2.601084 0
M  V30 11 H 13.578448 8.675120 -1.791143 0
M  V30 12 H 11.912540 9.067927 -1.447793 0
M  V30 13 H 11.035397 5.590329 -4.587601 0
M  V30 14 H 11.936612 10.295229 -5.906837 0
M  V30 15 H 10.419454 8.159976 -8.348774 0
M  V30 16 H 10.511185 6.334248 -6.916273 0
M  V30 17 H 11.268134 6.833576 -2.028960 0
M  V30 18 H 12.945281 6.467908 -2.559339 0
M  V30 END ATOM
M  V30 BEGIN BOND
M  V30 1 1 2 1
M  V30 2 1 3 2
M  V30 3 2 4 3
M  V30 4 1 5 4
M  V30 5 1 6 3
M  V30 6 2 7 6
M  V30 7 1 8 7
M  V30 8 2 9 5
M  V30 9 1 9 7
M  V30 10 1 10 1
M  V30 11 1 10 4
M  V30 12 1 11 1
M  V30 13 1 12 1
M  V30 14 1 13 5
M  V30 15 1 14 6
M  V30 16 1 15 8
M  V30 17 1 16 9
M  V30 18 1 17 10
M  V30 19 1 18 10
M  V30 END BOND
M  V30 END CTAB
M  END
>  <i_epik_Tot_Q>  (1) 
0

>  <i_epik_Tot_abs_Q>  (1) 
0

>  <i_i_glide_confnum>  (1) 
1

>  <i_i_glide_lignum>  (1) 
61

>  <i_i_glide_posenum>  (1) 
33

>  <i_i_glide_rotatable_bonds>  (1) 
1

>  <i_lp_mmshare_version>  (1) 
72125

>  <i_m_source_file_index>  (1) 
55

>  <i_f3d_flags>  (1) 
0

>  <num_sample>  (1) 
100

>  <b_lp_Chiralities_Consistent>  (1) 
1

>  <r_epik_Charging_Adjusted_Penalty>  (1) 
0

>  <r_epik_Ionization_Penalty>  (1) 
0.0019697177408658601

>  <r_epik_Ionization_Penalty_Charging>  (1) 
0

>  <r_epik_Ionization_Penalty_Neutral>  (1) 
0.0019697177408658601

>  <r_epik_State_Penalty>  (1) 
-0

>  <r_glide_ring_energy>  (1) 
0

>  <r_i_docking_score>  (1) 
-6.1988943649227926

>  <r_i_glide_ecoul>  (1) 
-1.7542079428273287

>  <r_i_glide_eff_state_penalty>  (1) 
-0

>  <r_i_glide_einternal>  (1) 
0.12848221698779547

>  <r_i_glide_emodel>  (1) 
-30.863552231117975

>  <r_i_glide_emodel_strain>  (1) 
0

>  <r_i_glide_energy>  (1) 
-22.096152837363075

>  <r_i_glide_erotb>  (1) 
0

>  <r_i_glide_esite>  (1) 
0

>  <r_i_glide_evdw>  (1) 
-20.341944894535747

>  <r_i_glide_gscore>  (1) 
-6.1988943649227926

>  <r_i_glide_gscore_strain>  (1) 
0

>  <r_i_glide_hbond>  (1) 
0

>  <r_i_glide_ligand_efficiency>  (1) 
-0.61988943649227923

>  <r_i_glide_ligand_efficiency_ln>  (1) 
-1.8769824820177521

>  <r_i_glide_ligand_efficiency_sa>  (1) 
-1.3355113059632828

>  <r_i_glide_lipo>  (1) 
-2.30830822900066

>  <r_i_glide_metal>  (1) 
-0

>  <r_i_glide_rewards>  (1) 
-2.6103576997712459

>  <r_lp_Energy>  (1) 
8.5284040000000001

>  <r_lp_tautomer_probability>  (1) 
1

>  <s_epik_cmdline>  (1) 
J2VwaWtfcHl0aG9uJywgJy1waHQnLCAnMS4wJywgJy1waCcsICc3LjQnLCAnLXRuJywgJzgnLCAnLW1hJywgJzUwMCcsICctaW1hZScsICc8aW5maWxlLm1hZT4nLCAnLW9tYWUnLCAnPG91dGZpbGUubWFlPic=

>  <s_epik_input>  (1) 
TzFbQ0gyXVtDSDJdYyhjMTIpW2NIXVtjSF1jKFtjSF0yKVtPSF0=

>  <s_glide_docking_method>  (1) 
confgen

>  <s_i_glide_gridfile>  (1) 
gpcr_drd2_6luq_protein_autoprepared_prepared

>  <s_lp_Force_Field>  (1) 
S-OPLS

>  <s_lp_Variant>  (1) 
Pocket2Mol_54-1

>  <s_m_source_file>  (1) 
generated_generic_title2_ligand_Pocket2Mol_2026-06-23_prepared.sdf

>  <GenAI_Model>  (1) 
Pocket2Mol

>  <Protein>  (1) 
generic_title2

$$$$
Pocket2Mol_58
     RDKit          3D

  0  0  0  0  0  0  0  0  0  0999 V3000
M  V30 BEGIN CTAB
M  V30 COUNTS 18 19 0 0 1
M  V30 BEGIN ATOM
M  V30 1 C 11.793539 6.694961 -2.385024 0
M  V30 2 O 11.375416 6.297960 -3.709030 0
M  V30 3 C 11.375407 7.172716 -4.785025 0
M  V30 4 C 11.775410 8.517719 -4.616979 0
M  V30 5 C 11.773701 9.393207 -5.721809 0
M  V30 6 C 10.973682 6.714071 -6.053815 0
M  V30 7 C 10.973963 7.588003 -7.153751 0
M  V30 8 C 12.194027 8.969271 -3.309908 0
M  V30 9 C 11.375410 8.924707 -6.989525 0
M  V30 10 C 12.208492 8.142748 -2.271937 0
M  V30 11 H 12.626635 6.062082 -2.078166 0
M  V30 12 H 10.975400 6.505095 -1.689743 0
M  V30 13 H 12.081863 10.420781 -5.599193 0
M  V30 14 H 10.666801 5.688107 -6.183210 0
M  V30 15 H 10.666237 7.231632 -8.126269 0
M  V30 16 H 12.499310 9.990229 -3.200615 0
M  V30 17 H 11.377829 9.590227 -7.836832 0
M  V30 18 H 12.526563 8.493301 -1.300747 0
M  V30 END ATOM
M  V30 BEGIN BOND
M  V30 1 1 2 1
M  V30 2 1 3 2
M  V30 3 1 4 3
M  V30 4 2 5 4
M  V30 5 2 6 3
M  V30 6 1 7 6
M  V30 7 1 8 4
M  V30 8 1 9 5
M  V30 9 2 9 7
M  V30 10 1 10 1
M  V30 11 2 10 8
M  V30 12 1 11 1
M  V30 13 1 12 1
M  V30 14 1 13 5
M  V30 15 1 14 6
M  V30 16 1 15 7
M  V30 17 1 16 8
M  V30 18 1 17 9
M  V30 19 1 18 10
M  V30 END BOND
M  V30 END CTAB
M  END
>  <i_epik_Tot_Q>  (1) 
0

>  <i_epik_Tot_abs_Q>  (1) 
0

>  <i_i_glide_confnum>  (1) 
1

>  <i_i_glide_lignum>  (1) 
65

>  <i_i_glide_posenum>  (1) 
9

>  <i_i_glide_rotatable_bonds>  (1) 
0

>  <i_lp_mmshare_version>  (1) 
72125

>  <i_m_source_file_index>  (1) 
59

>  <i_f3d_flags>  (1) 
0

>  <num_sample>  (1) 
100

>  <b_lp_Chiralities_Consistent>  (1) 
1

>  <r_epik_Charging_Adjusted_Penalty>  (1) 
0

>  <r_epik_Ionization_Penalty>  (1) 
0

>  <r_epik_Ionization_Penalty_Charging>  (1) 
0

>  <r_epik_Ionization_Penalty_Neutral>  (1) 
0

>  <r_epik_State_Penalty>  (1) 
-0

>  <r_glide_ring_energy>  (1) 
0

>  <r_i_docking_score>  (1) 
-6.1978721396127234

>  <r_i_glide_ecoul>  (1) 
-0.034946708280259739

>  <r_i_glide_eff_state_penalty>  (1) 
-0

>  <r_i_glide_einternal>  (1) 
0

>  <r_i_glide_emodel>  (1) 
-29.365426617822418

>  <r_i_glide_emodel_strain>  (1) 
0

>  <r_i_glide_energy>  (1) 
-21.653949926014583

>  <r_i_glide_erotb>  (1) 
0

>  <r_i_glide_esite>  (1) 
0

>  <r_i_glide_evdw>  (1) 
-21.619003217734324

>  <r_i_glide_gscore>  (1) 
-6.1978721396127234

>  <r_i_glide_gscore_strain>  (1) 
0

>  <r_i_glide_hbond>  (1) 
0

>  <r_i_glide_ligand_efficiency>  (1) 
-0.61978721396127234

>  <r_i_glide_ligand_efficiency_ln>  (1) 
-1.8766729592405076

>  <r_i_glide_ligand_efficiency_sa>  (1) 
-1.3352910741963788

>  <r_i_glide_lipo>  (1) 
-2.3853057140947933

>  <r_i_glide_metal>  (1) 
-0

>  <r_i_glide_rewards>  (1) 
-2.7263742583891744

>  <r_lp_Energy>  (1) 
15.262369

>  <r_lp_tautomer_probability>  (1) 
1

>  <s_epik_cmdline>  (1) 
J2VwaWtfcHl0aG9uJywgJy1waHQnLCAnMS4wJywgJy1waCcsICc3LjQnLCAnLXRuJywgJzgnLCAnLW1hJywgJzUwMCcsICctaW1hZScsICc8aW5maWxlLm1hZT4nLCAnLW9tYWUnLCAnPG91dGZpbGUubWFlPic=

>  <s_epik_input>  (1) 
TzFbQ0gyXVtDSF09W0NIXWMoYzEyKVtjSF1bY0hdW2NIXVtjSF0y

>  <s_glide_docking_method>  (1) 
confgen

>  <s_i_glide_gridfile>  (1) 
gpcr_drd2_6luq_protein_autoprepared_prepared

>  <s_lp_Force_Field>  (1) 
S-OPLS

>  <s_lp_Variant>  (1) 
Pocket2Mol_58-1

>  <s_m_source_file>  (1) 
generated_generic_title2_ligand_Pocket2Mol_2026-06-23_prepared.sdf

>  <GenAI_Model>  (1) 
Pocket2Mol

>  <Protein>  (1) 
generic_title2

$$$$
Pocket2Mol_58
     RDKit          3D

  0  0  0  0  0  0  0  0  0  0999 V3000
M  V30 BEGIN CTAB
M  V30 COUNTS 18 19 0 0 1
M  V30 BEGIN ATOM
M  V30 1 C 10.449653 6.587337 -7.104319 0
M  V30 2 O 10.993289 6.180706 -5.826950 0
M  V30 3 C 11.375399 7.098391 -4.860044 0
M  V30 4 C 11.375411 8.481077 -5.146387 0
M  V30 5 C 11.775910 9.399696 -4.162748 0
M  V30 6 C 11.775408 6.646467 -3.585912 0
M  V30 7 C 12.175433 7.569742 -2.602302 0
M  V30 8 C 10.962596 8.932724 -6.450723 0
M  V30 9 C 12.175413 8.946400 -2.890291 0
M  V30 10 C 10.536754 8.072681 -7.368029 0
M  V30 11 H 9.403503 6.283968 -7.153628 0
M  V30 12 H 10.975402 6.052289 -7.894908 0
M  V30 13 H 11.774708 10.449596 -4.385047 0
M  V30 14 H 11.776260 5.590227 -3.365164 0
M  V30 15 H 12.482521 7.221422 -1.627327 0
M  V30 16 H 11.007431 9.990205 -6.659494 0
M  V30 17 H 12.482118 9.654775 -2.135636 0
M  V30 18 H 10.225986 8.421996 -8.342054 0
M  V30 END ATOM
M  V30 BEGIN BOND
M  V30 1 1 2 1
M  V30 2 1 3 2
M  V30 3 1 4 3
M  V30 4 2 5 4
M  V30 5 2 6 3
M  V30 6 1 7 6
M  V30 7 1 8 4
M  V30 8 1 9 5
M  V30 9 2 9 7
M  V30 10 1 10 1
M  V30 11 2 10 8
M  V30 12 1 11 1
M  V30 13 1 12 1
M  V30 14 1 13 5
M  V30 15 1 14 6
M  V30 16 1 15 7
M  V30 17 1 16 8
M  V30 18 1 17 9
M  V30 19 1 18 10
M  V30 END BOND
M  V30 END CTAB
M  END
>  <i_epik_Tot_Q>  (1) 
0

>  <i_epik_Tot_abs_Q>  (1) 
0

>  <i_i_glide_confnum>  (1) 
1

>  <i_i_glide_lignum>  (1) 
65

>  <i_i_glide_posenum>  (1) 
221

>  <i_i_glide_rotatable_bonds>  (1) 
0

>  <i_lp_mmshare_version>  (1) 
72125

>  <i_m_source_file_index>  (1) 
59

>  <i_f3d_flags>  (1) 
0

>  <num_sample>  (1) 
100

>  <b_lp_Chiralities_Consistent>  (1) 
1

>  <r_epik_Charging_Adjusted_Penalty>  (1) 
0

>  <r_epik_Ionization_Penalty>  (1) 
0

>  <r_epik_Ionization_Penalty_Charging>  (1) 
0

>  <r_epik_Ionization_Penalty_Neutral>  (1) 
0

>  <r_epik_State_Penalty>  (1) 
-0

>  <r_glide_ring_energy>  (1) 
0

>  <r_i_docking_score>  (1) 
-6.1952201494099626

>  <r_i_glide_ecoul>  (1) 
-0.42865541763730769

>  <r_i_glide_eff_state_penalty>  (1) 
-0

>  <r_i_glide_einternal>  (1) 
0

>  <r_i_glide_emodel>  (1) 
-27.532881405451466

>  <r_i_glide_emodel_strain>  (1) 
0

>  <r_i_glide_energy>  (1) 
-19.82470435587161

>  <r_i_glide_erotb>  (1) 
0

>  <r_i_glide_esite>  (1) 
0

>  <r_i_glide_evdw>  (1) 
-19.396048938234301

>  <r_i_glide_gscore>  (1) 
-6.1952201494099626

>  <r_i_glide_gscore_strain>  (1) 
0

>  <r_i_glide_hbond>  (1) 
0

>  <r_i_glide_ligand_efficiency>  (1) 
-0.61952201494099624

>  <r_i_glide_ligand_efficiency_ln>  (1) 
-1.8758699548884361

>  <r_i_glide_ligand_efficiency_sa>  (1) 
-1.3347197202273335

>  <r_i_glide_lipo>  (1) 
-2.3034376778221652

>  <r_i_glide_metal>  (1) 
-0

>  <r_i_glide_rewards>  (1) 
-2.8576817120304856

>  <r_lp_Energy>  (1) 
15.262369

>  <r_lp_tautomer_probability>  (1) 
1

>  <s_epik_cmdline>  (1) 
J2VwaWtfcHl0aG9uJywgJy1waHQnLCAnMS4wJywgJy1waCcsICc3LjQnLCAnLXRuJywgJzgnLCAnLW1hJywgJzUwMCcsICctaW1hZScsICc8aW5maWxlLm1hZT4nLCAnLW9tYWUnLCAnPG91dGZpbGUubWFlPic=

>  <s_epik_input>  (1) 
TzFbQ0gyXVtDSF09W0NIXWMoYzEyKVtjSF1bY0hdW2NIXVtjSF0y

>  <s_glide_docking_method>  (1) 
confgen

>  <s_i_glide_gridfile>  (1) 
gpcr_drd2_6luq_protein_autoprepared_prepared

>  <s_lp_Force_Field>  (1) 
S-OPLS

>  <s_lp_Variant>  (1) 
Pocket2Mol_58-1

>  <s_m_source_file>  (1) 
generated_generic_title2_ligand_Pocket2Mol_2026-06-23_prepared.sdf

>  <GenAI_Model>  (1) 
Pocket2Mol

>  <Protein>  (1) 
generic_title2

$$$$
Pocket2Mol_62
     RDKit          3D

  0  0  0  0  0  0  0  0  0  0999 V3000
M  V30 BEGIN CTAB
M  V30 COUNTS 21 22 0 0 1
M  V30 BEGIN ATOM
M  V30 1 C 9.912866 7.508393 -7.656149 0
M  V30 2 O 10.547219 8.790211 -7.294472 0
M  V30 3 C 11.067768 8.517642 -6.080001 0
M  V30 4 C 10.883420 7.258702 -5.636347 0
M  V30 5 C 11.375410 6.836101 -4.391968 0
M  V30 6 C 12.094292 7.764704 -3.584598 0
M  V30 7 O 12.602148 7.399956 -2.356151 0
M  V30 8 C 10.144981 6.386054 -6.549124 0
M  V30 9 C 11.761417 9.469325 -5.312581 0
M  V30 10 C 12.280276 9.090451 -4.052606 0
M  V30 11 C 12.566655 6.030602 -1.981233 0
M  V30 12 H 10.312952 7.176444 -8.614101 0
M  V30 13 H 8.847476 7.682678 -7.799633 0
M  V30 14 H 11.209947 5.822708 -4.062884 0
M  V30 15 H 10.790674 5.589007 -6.910628 0
M  V30 16 H 9.223000 5.991070 -6.119347 0
M  V30 17 H 11.898090 10.475400 -5.681606 0
M  V30 18 H 12.818788 9.806813 -3.450365 0
M  V30 19 H 13.184140 5.871866 -1.099397 0
M  V30 20 H 11.550194 5.712917 -1.747517 0
M  V30 21 H 12.975237 5.389452 -2.757510 0
M  V30 END ATOM
M  V30 BEGIN BOND
M  V30 1 1 2 1
M  V30 2 1 3 2
M  V30 3 2 4 3
M  V30 4 1 5 4
M  V30 5 2 6 5
M  V30 6 1 7 6
M  V30 7 1 8 1
M  V30 8 1 8 4
M  V30 9 1 9 3
M  V30 10 1 10 6
M  V30 11 2 10 9
M  V30 12 1 11 7
M  V30 13 1 12 1
M  V30 14 1 13 1
M  V30 15 1 14 5
M  V30 16 1 15 8
M  V30 17 1 16 8
M  V30 18 1 17 9
M  V30 19 1 18 10
M  V30 20 1 19 11
M  V30 21 1 20 11
M  V30 22 1 21 11
M  V30 END BOND
M  V30 END CTAB
M  END
>  <i_epik_Tot_Q>  (1) 
0

>  <i_epik_Tot_abs_Q>  (1) 
0

>  <i_i_glide_confnum>  (1) 
1

>  <i_i_glide_lignum>  (1) 
69

>  <i_i_glide_posenum>  (1) 
96

>  <i_i_glide_rotatable_bonds>  (1) 
1

>  <i_lp_mmshare_version>  (1) 
72125

>  <i_m_source_file_index>  (1) 
63

>  <i_f3d_flags>  (1) 
0

>  <num_sample>  (1) 
100

>  <b_lp_Chiralities_Consistent>  (1) 
1

>  <r_epik_Charging_Adjusted_Penalty>  (1) 
0

>  <r_epik_Ionization_Penalty>  (1) 
0

>  <r_epik_Ionization_Penalty_Charging>  (1) 
0

>  <r_epik_Ionization_Penalty_Neutral>  (1) 
0

>  <r_epik_State_Penalty>  (1) 
-0

>  <r_glide_ring_energy>  (1) 
0

>  <r_i_docking_score>  (1) 
-6.1947809834656917

>  <r_i_glide_ecoul>  (1) 
-1.9778957649141333

>  <r_i_glide_eff_state_penalty>  (1) 
-0

>  <r_i_glide_einternal>  (1) 
3.3506077263199332

>  <r_i_glide_emodel>  (1) 
-30.73991740569047

>  <r_i_glide_emodel_strain>  (1) 
0

>  <r_i_glide_energy>  (1) 
-23.386491159033955

>  <r_i_glide_erotb>  (1) 
0

>  <r_i_glide_esite>  (1) 
0

>  <r_i_glide_evdw>  (1) 
-21.408595394119821

>  <r_i_glide_gscore>  (1) 
-6.1947809834656917

>  <r_i_glide_gscore_strain>  (1) 
0

>  <r_i_glide_hbond>  (1) 
0

>  <r_i_glide_ligand_efficiency>  (1) 
-0.56316190758779017

>  <r_i_glide_ligand_efficiency_ln>  (1) 
-1.8231229882385156

>  <r_i_glide_ligand_efficiency_sa>  (1) 
-1.2524608702422821

>  <r_i_glide_lipo>  (1) 
-2.0497631890136785

>  <r_i_glide_metal>  (1) 
-0

>  <r_i_glide_rewards>  (1) 
-2.7779036600089029

>  <r_lp_Energy>  (1) 
15.977421

>  <r_lp_tautomer_probability>  (1) 
1

>  <s_epik_cmdline>  (1) 
J2VwaWtfcHl0aG9uJywgJy1waHQnLCAnMS4wJywgJy1waCcsICc3LjQnLCAnLXRuJywgJzgnLCAnLW1hJywgJzUwMCcsICctaW1hZScsICc8aW5maWxlLm1hZT4nLCAnLW9tYWUnLCAnPG91dGZpbGUubWFlPic=

>  <s_epik_input>  (1) 
TzFbQ0gyXVtDSDJdYyhjMTIpW2NIXWMoT1tDSDNdKVtjSF1bY0hdMg==

>  <s_glide_docking_method>  (1) 
confgen

>  <s_i_glide_gridfile>  (1) 
gpcr_drd2_6luq_protein_autoprepared_prepared

>  <s_lp_Force_Field>  (1) 
S-OPLS

>  <s_lp_Variant>  (1) 
Pocket2Mol_62-1

>  <s_m_source_file>  (1) 
generated_generic_title2_ligand_Pocket2Mol_2026-06-23_prepared.sdf

>  <GenAI_Model>  (1) 
Pocket2Mol

>  <Protein>  (1) 
generic_title2

$$$$
Pocket2Mol_92
     RDKit          3D

  0  0  0  0  0  0  0  0  0  0999 V3000
M  V30 BEGIN CTAB
M  V30 COUNTS 26 27 0 0 1
M  V30 BEGIN ATOM
M  V30 1 C 11.272541 7.692835 -9.702849 0
M  V30 2 O 10.440413 6.667319 -9.185025 0
M  V30 3 C 11.916908 8.606721 -8.647094 0
M  V30 4 O 12.080688 7.982716 -7.379949 0
M  V30 5 C 9.405250 7.084670 -8.316542 0
M  V30 6 C 10.943696 8.061770 -6.520496 0 CFG=2
M  V30 7 C 11.375410 8.013578 -5.058621 0
M  V30 8 C 9.889895 6.996823 -6.873641 0
M  V30 9 C 11.773813 9.193550 -4.395889 0
M  V30 10 N 11.375410 6.790302 -4.467183 0
M  V30 11 C 11.775410 6.728542 -3.174764 0
M  V30 12 C 12.185035 7.853753 -2.434037 0
M  V30 13 C 12.182748 9.108985 -3.057291 0
M  V30 14 H 10.717439 8.290255 -10.427049 0
M  V30 15 H 12.060660 7.190646 -10.263842 0
M  V30 16 H 11.375410 9.547620 -8.560226 0
M  V30 17 H 12.908334 8.886334 -9.003857 0
M  V30 18 H 9.032555 8.080767 -8.561241 0
M  V30 19 H 8.575410 6.390227 -8.446606 0
M  V30 20 H 10.283191 5.993995 -6.702117 0
M  V30 21 H 9.031255 7.109878 -6.211066 0
M  V30 22 H 11.764890 10.143612 -4.909459 0
M  V30 23 H 11.769510 5.749920 -2.718792 0
M  V30 24 H 12.496880 7.752082 -1.406709 0
M  V30 25 H 12.492338 9.990227 -2.518551 0
M  V30 26 H 10.471720 9.038777 -6.639877 0
M  V30 END ATOM
M  V30 BEGIN BOND
M  V30 1 1 2 1
M  V30 2 1 3 1
M  V30 3 1 4 3
M  V30 4 1 5 2
M  V30 5 1 6 4
M  V30 6 1 7 6
M  V30 7 1 8 5
M  V30 8 1 8 6
M  V30 9 1 9 7
M  V30 10 2 10 7
M  V30 11 1 11 10
M  V30 12 2 12 11
M  V30 13 2 13 9
M  V30 14 1 13 12
M  V30 15 1 14 1
M  V30 16 1 15 1
M  V30 17 1 16 3
M  V30 18 1 17 3
M  V30 19 1 18 5
M  V30 20 1 19 5
M  V30 21 1 20 8
M  V30 22 1 21 8
M  V30 23 1 22 9
M  V30 24 1 23 11
M  V30 25 1 24 12
M  V30 26 1 25 13
M  V30 27 1 6 26 CFG=1
M  V30 END BOND
M  V30 END CTAB
M  END
>  <i_epik_Tot_Q>  (1) 
0

>  <i_epik_Tot_abs_Q>  (1) 
0

>  <i_i_glide_confnum>  (1) 
3

>  <i_i_glide_lignum>  (1) 
101

>  <i_i_glide_posenum>  (1) 
299

>  <i_i_glide_rotatable_bonds>  (1) 
1

>  <i_lp_mmshare_version>  (1) 
72125

>  <i_m_source_file_index>  (1) 
93

>  <i_f3d_flags>  (1) 
0

>  <num_sample>  (1) 
100

>  <b_lp_Chiralities_Consistent>  (1) 
1

>  <r_epik_Charging_Adjusted_Penalty>  (1) 
0.0037896276157117258

>  <r_epik_Ionization_Penalty>  (1) 
0.0037896276174286705

>  <r_epik_Ionization_Penalty_Charging>  (1) 
0

>  <r_epik_Ionization_Penalty_Neutral>  (1) 
0.0037896276174286705

>  <r_epik_State_Penalty>  (1) 
0.0037896276157117258

>  <r_glide_ring_energy>  (1) 
0.0012564655157669368

>  <r_i_docking_score>  (1) 
-6.1943929239150046

>  <r_i_glide_ecoul>  (1) 
-0.59829504260191047

>  <r_i_glide_eff_state_penalty>  (1) 
0.0037896276157117258

>  <r_i_glide_einternal>  (1) 
5.3640367743838615

>  <r_i_glide_emodel>  (1) 
-31.405813505586064

>  <r_i_glide_emodel_strain>  (1) 
2.3041925046504552

>  <r_i_glide_energy>  (1) 
-26.565266632675542

>  <r_i_glide_erotb>  (1) 
0.4895878840251785

>  <r_i_glide_esite>  (1) 
0

>  <r_i_glide_evdw>  (1) 
-25.96697159007363

>  <r_i_glide_gscore>  (1) 
-6.1981825515307163

>  <r_i_glide_gscore_strain>  (1) 
0

>  <r_i_glide_hbond>  (1) 
0

>  <r_i_glide_ligand_efficiency>  (1) 
-0.4764917633780773

>  <r_i_glide_ligand_efficiency_ln>  (1) 
-1.7375823056083448

>  <r_i_glide_ligand_efficiency_sa>  (1) 
-1.1203916116441046

>  <r_i_glide_lipo>  (1) 
-2.2792120617831388

>  <r_i_glide_metal>  (1) 
-0

>  <r_i_glide_rewards>  (1) 
-3.0204655378787884

>  <r_lp_Energy>  (1) 
20.663057999999999

>  <s_epik_cmdline>  (1) 
J2VwaWtfcHl0aG9uJywgJy1waHQnLCAnMS4wJywgJy1waCcsICc3LjQnLCAnLXRuJywgJzgnLCAnLW1hJywgJzUwMCcsICctaW1hZScsICc8aW5maWxlLm1hZT4nLCAnLW9tYWUnLCAnPG91dGZpbGUubWFlPic=

>  <s_epik_input>  (1) 
W0NIMl0xW0NIMl1PW0NIMl1bQ0gyXU8vQzE9QzJcW0NIXT1bQ0hdW0NIXT1bQ0hdW05IXTI=

>  <s_glide_docking_method>  (1) 
confgen

>  <s_i_glide_gridfile>  (1) 
gpcr_drd2_6luq_protein_autoprepared_prepared

>  <s_lp_Force_Field>  (1) 
S-OPLS

>  <s_lp_Variant>  (1) 
Pocket2Mol_92-2

>  <s_m_source_file>  (1) 
generated_generic_title2_ligand_Pocket2Mol_2026-06-23_prepared.sdf

>  <GenAI_Model>  (1) 
Pocket2Mol

>  <Protein>  (1) 
generic_title2

$$$$
Pocket2Mol_90
     RDKit          3D

  0  0  0  0  0  0  0  0  0  0999 V3000
M  V30 BEGIN CTAB
M  V30 COUNTS 23 24 0 0 1
M  V30 BEGIN ATOM
M  V30 1 C 12.460849 8.540127 -1.931606 0
M  V30 2 O 12.212977 9.590225 -2.937788 0
M  V30 3 C 11.825981 8.867711 -4.008158 0
M  V30 4 C 11.775412 7.531089 -3.825524 0
M  V30 5 C 11.375483 6.662648 -4.850928 0
M  V30 6 C 12.170362 7.073149 -2.489662 0
M  V30 7 C 11.498299 9.449645 -5.242082 0
M  V30 8 C 11.025891 7.196287 -6.111188 0
M  V30 9 N 10.651148 6.265756 -7.162176 0
M  V30 10 C 11.102539 8.617921 -6.313090 0
M  V30 11 C 9.885817 6.519752 -8.257897 0
M  V30 12 O 9.664546 5.677187 -9.118220 0
M  V30 13 N 9.375408 7.736805 -8.303400 0
M  V30 14 H 13.495013 8.620993 -1.600887 0
M  V30 15 H 11.838181 8.744482 -1.060383 0
M  V30 16 H 11.342190 5.596048 -4.680491 0
M  V30 17 H 11.343763 6.574360 -1.982615 0
M  V30 18 H 13.054167 6.435547 -2.515418 0
M  V30 19 H 11.558959 10.519318 -5.373477 0
M  V30 20 H 10.956314 5.312178 -7.038760 0
M  V30 21 H 10.889398 9.064803 -7.264989 0
M  V30 22 H 9.558076 8.386940 -7.560728 0
M  V30 23 H 8.734093 7.983103 -9.057821 0
M  V30 END ATOM
M  V30 BEGIN BOND
M  V30 1 1 2 1
M  V30 2 1 3 2
M  V30 3 2 4 3
M  V30 4 1 5 4
M  V30 5 1 6 1
M  V30 6 1 6 4
M  V30 7 1 7 3
M  V30 8 2 8 5
M  V30 9 1 9 8
M  V30 10 2 10 7
M  V30 11 1 10 8
M  V30 12 1 11 9
M  V30 13 2 12 11
M  V30 14 1 13 11
M  V30 15 1 14 1
M  V30 16 1 15 1
M  V30 17 1 16 5
M  V30 18 1 17 6
M  V30 19 1 18 6
M  V30 20 1 19 7
M  V30 21 1 20 9
M  V30 22 1 21 10
M  V30 23 1 22 13
M  V30 24 1 23 13
M  V30 END BOND
M  V30 END CTAB
M  END
>  <i_epik_Tot_Q>  (1) 
0

>  <i_epik_Tot_abs_Q>  (1) 
0

>  <i_i_glide_confnum>  (1) 
1

>  <i_i_glide_lignum>  (1) 
97

>  <i_i_glide_posenum>  (1) 
369

>  <i_i_glide_rotatable_bonds>  (1) 
2

>  <i_lp_mmshare_version>  (1) 
72125

>  <i_m_source_file_index>  (1) 
91

>  <i_f3d_flags>  (1) 
0

>  <num_sample>  (1) 
100

>  <b_lp_Chiralities_Consistent>  (1) 
1

>  <r_epik_Charging_Adjusted_Penalty>  (1) 
0

>  <r_epik_Ionization_Penalty>  (1) 
1.9038757045197726e-05

>  <r_epik_Ionization_Penalty_Charging>  (1) 
0

>  <r_epik_Ionization_Penalty_Neutral>  (1) 
1.9038757045197726e-05

>  <r_epik_State_Penalty>  (1) 
-0

>  <r_glide_ring_energy>  (1) 
0

>  <r_i_docking_score>  (1) 
-6.1934403691119799

>  <r_i_glide_ecoul>  (1) 
-2.5397566897167394

>  <r_i_glide_eff_state_penalty>  (1) 
-0

>  <r_i_glide_einternal>  (1) 
3.1349366861088281

>  <r_i_glide_emodel>  (1) 
-37.508898213860448

>  <r_i_glide_emodel_strain>  (1) 
1.6362520227630739e-09

>  <r_i_glide_energy>  (1) 
-28.173299890416132

>  <r_i_glide_erotb>  (1) 
0

>  <r_i_glide_esite>  (1) 
-0.15168384539320076

>  <r_i_glide_evdw>  (1) 
-25.633543200699393

>  <r_i_glide_gscore>  (1) 
-6.1934403691119799

>  <r_i_glide_gscore_strain>  (1) 
0

>  <r_i_glide_hbond>  (1) 
-0.1188920941438816

>  <r_i_glide_ligand_efficiency>  (1) 
-0.47641848993169078

>  <r_i_glide_ligand_efficiency_ln>  (1) 
-1.7373151055144556

>  <r_i_glide_ligand_efficiency_sa>  (1) 
-1.1202193212479272

>  <r_i_glide_lipo>  (1) 
-2.3494624210920119

>  <r_i_glide_metal>  (1) 
-0

>  <r_i_glide_rewards>  (1) 
-1.9107613449904048

>  <r_lp_Energy>  (1) 
13.450968999999999

>  <r_lp_tautomer_probability>  (1) 
1

>  <s_epik_cmdline>  (1) 
J2VwaWtfcHl0aG9uJywgJy1waHQnLCAnMS4wJywgJy1waCcsICc3LjQnLCAnLXRuJywgJzgnLCAnLW1hJywgJzUwMCcsICctaW1hZScsICc8aW5maWxlLm1hZT4nLCAnLW9tYWUnLCAnPG91dGZpbGUubWFlPic=

>  <s_epik_input>  (1) 
TzFbQ0gyXVtDSDJdYyhjMTIpW2NIXWMoW2NIXVtjSF0yKVtOSF1DKD1PKVtOSDJd

>  <s_glide_docking_method>  (1) 
confgen

>  <s_i_glide_gridfile>  (1) 
gpcr_drd2_6luq_protein_autoprepared_prepared

>  <s_lp_Force_Field>  (1) 
S-OPLS

>  <s_lp_Variant>  (1) 
Pocket2Mol_90-1

>  <s_m_source_file>  (1) 
generated_generic_title2_ligand_Pocket2Mol_2026-06-23_prepared.sdf

>  <GenAI_Model>  (1) 
Pocket2Mol

>  <Protein>  (1) 
generic_title2

$$$$
Pocket2Mol_49
     RDKit          3D

  0  0  0  0  0  0  0  0  0  0999 V3000
M  V30 BEGIN CTAB
M  V30 COUNTS 20 21 0 0 1
M  V30 BEGIN ATOM
M  V30 1 C 12.272814 6.716499 -2.467092 0
M  V30 2 O 11.383365 6.394047 -3.530146 0
M  V30 3 C 11.375412 7.242117 -4.617272 0
M  V30 4 C 11.775411 8.598735 -4.483927 0
M  V30 5 C 11.773121 9.443537 -5.613115 0
M  V30 6 C 10.966099 6.756415 -5.872941 0
M  V30 7 C 10.964776 7.604613 -6.995173 0
M  V30 8 C 12.221016 9.142050 -3.134433 0
M  V30 9 C 11.372424 8.944016 -6.866682 0
M  V30 10 C 12.053869 8.146350 -1.985011 0
M  V30 11 H 12.106565 6.011818 -1.651895 0
M  V30 12 H 13.305733 6.581677 -2.785030 0
M  V30 13 H 12.082164 10.473112 -5.518780 0
M  V30 14 H 10.658017 5.728263 -5.976065 0
M  V30 15 H 10.652532 7.225564 -7.957284 0
M  V30 16 H 13.273599 9.413649 -3.224302 0
M  V30 17 H 11.678209 10.057916 -2.902344 0
M  V30 18 H 11.375412 9.589869 -7.731152 0
M  V30 19 H 11.042407 8.210524 -1.585049 0
M  V30 20 H 12.723556 8.395879 -1.161711 0
M  V30 END ATOM
M  V30 BEGIN BOND
M  V30 1 1 2 1
M  V30 2 1 3 2
M  V30 3 1 4 3
M  V30 4 2 5 4
M  V30 5 2 6 3
M  V30 6 1 7 6
M  V30 7 1 8 4
M  V30 8 1 9 5
M  V30 9 2 9 7
M  V30 10 1 10 1
M  V30 11 1 10 8
M  V30 12 1 11 1
M  V30 13 1 12 1
M  V30 14 1 13 5
M  V30 15 1 14 6
M  V30 16 1 15 7
M  V30 17 1 16 8
M  V30 18 1 17 8
M  V30 19 1 18 9
M  V30 20 1 19 10
M  V30 21 1 20 10
M  V30 END BOND
M  V30 END CTAB
M  END
>  <i_epik_Tot_Q>  (1) 
0

>  <i_epik_Tot_abs_Q>  (1) 
0

>  <i_i_glide_confnum>  (1) 
1

>  <i_i_glide_lignum>  (1) 
56

>  <i_i_glide_posenum>  (1) 
270

>  <i_i_glide_rotatable_bonds>  (1) 
0

>  <i_lp_mmshare_version>  (1) 
72125

>  <i_m_source_file_index>  (1) 
50

>  <i_f3d_flags>  (1) 
0

>  <num_sample>  (1) 
100

>  <b_lp_Chiralities_Consistent>  (1) 
1

>  <r_epik_Charging_Adjusted_Penalty>  (1) 
0

>  <r_epik_Ionization_Penalty>  (1) 
0

>  <r_epik_Ionization_Penalty_Charging>  (1) 
0

>  <r_epik_Ionization_Penalty_Neutral>  (1) 
0

>  <r_epik_State_Penalty>  (1) 
-0

>  <r_glide_ring_energy>  (1) 
0

>  <r_i_docking_score>  (1) 
-6.1892459805511812

>  <r_i_glide_ecoul>  (1) 
-0.0089715497073029338

>  <r_i_glide_eff_state_penalty>  (1) 
-0

>  <r_i_glide_einternal>  (1) 
0

>  <r_i_glide_emodel>  (1) 
-29.90025608198729

>  <r_i_glide_emodel_strain>  (1) 
0

>  <r_i_glide_energy>  (1) 
-21.920346267210842

>  <r_i_glide_erotb>  (1) 
0

>  <r_i_glide_esite>  (1) 
0

>  <r_i_glide_evdw>  (1) 
-21.911374717503538

>  <r_i_glide_gscore>  (1) 
-6.1892459805511812

>  <r_i_glide_gscore_strain>  (1) 
0

>  <r_i_glide_hbond>  (1) 
0

>  <r_i_glide_ligand_efficiency>  (1) 
-0.61892459805511812

>  <r_i_glide_ligand_efficiency_ln>  (1) 
-1.8740610177405472

>  <r_i_glide_ligand_efficiency_sa>  (1) 
-1.3334326245639867

>  <r_i_glide_lipo>  (1) 
-2.399071666100804

>  <r_i_glide_metal>  (1) 
-0

>  <r_i_glide_rewards>  (1) 
-2.6932598461191049

>  <r_lp_Energy>  (1) 
14.978437

>  <r_lp_tautomer_probability>  (1) 
1

>  <s_epik_cmdline>  (1) 
J2VwaWtfcHl0aG9uJywgJy1waHQnLCAnMS4wJywgJy1waCcsICc3LjQnLCAnLXRuJywgJzgnLCAnLW1hJywgJzUwMCcsICctaW1hZScsICc8aW5maWxlLm1hZT4nLCAnLW9tYWUnLCAnPG91dGZpbGUubWFlPic=

>  <s_epik_input>  (1) 
TzFbQ0gyXVtDSDJdW0NIMl1jKGMxMilbY0hdW2NIXVtjSF1bY0hdMg==

>  <s_glide_docking_method>  (1) 
confgen

>  <s_i_glide_gridfile>  (1) 
gpcr_drd2_6luq_protein_autoprepared_prepared

>  <s_lp_Force_Field>  (1) 
S-OPLS

>  <s_lp_Variant>  (1) 
Pocket2Mol_49-1

>  <s_m_source_file>  (1) 
generated_generic_title2_ligand_Pocket2Mol_2026-06-23_prepared.sdf

>  <GenAI_Model>  (1) 
Pocket2Mol

>  <Protein>  (1) 
generic_title2

$$$$
Pocket2Mol_37
     RDKit          3D

  0  0  0  0  0  0  0  0  0  0999 V3000
M  V30 BEGIN CTAB
M  V30 COUNTS 17 18 0 0 1
M  V30 BEGIN ATOM
M  V30 1 C 12.575449 8.389893 -2.135876 0
M  V30 2 O 12.440720 9.382155 -3.062703 0
M  V30 3 C 11.947659 8.767146 -4.174821 0
M  V30 4 C 11.775414 7.445445 -3.985020 0
M  V30 5 C 11.245826 6.508293 -5.010735 0
M  V30 6 C 11.681108 9.597454 -5.358202 0
M  V30 7 C 12.182590 7.189220 -2.650705 0
M  V30 8 C 11.057227 8.667968 -6.424621 0
M  V30 9 C 10.866858 7.318893 -6.273386 0
M  V30 10 H 12.958648 8.706308 -1.177117 0
M  V30 11 H 10.368117 5.990228 -4.623624 0
M  V30 12 H 11.998415 5.761975 -5.262418 0
M  V30 13 H 12.601525 10.037497 -5.741864 0
M  V30 14 H 10.988431 10.403510 -5.116149 0
M  V30 15 H 12.185602 6.242834 -2.129626 0
M  V30 16 H 10.757371 9.139091 -7.348621 0
M  V30 17 H 10.420841 6.757355 -7.081692 0
M  V30 END ATOM
M  V30 BEGIN BOND
M  V30 1 1 2 1
M  V30 2 1 3 2
M  V30 3 2 4 3
M  V30 4 1 5 4
M  V30 5 1 6 3
M  V30 6 2 7 1
M  V30 7 1 7 4
M  V30 8 1 8 6
M  V30 9 1 9 5
M  V30 10 2 9 8
M  V30 11 1 10 1
M  V30 12 1 11 5
M  V30 13 1 12 5
M  V30 14 1 13 6
M  V30 15 1 14 6
M  V30 16 1 15 7
M  V30 17 1 16 8
M  V30 18 1 17 9
M  V30 END BOND
M  V30 END CTAB
M  END
>  <i_epik_Tot_Q>  (1) 
0

>  <i_epik_Tot_abs_Q>  (1) 
0

>  <i_i_glide_confnum>  (1) 
1

>  <i_i_glide_lignum>  (1) 
42

>  <i_i_glide_posenum>  (1) 
112

>  <i_i_glide_rotatable_bonds>  (1) 
0

>  <i_lp_mmshare_version>  (1) 
72125

>  <i_m_source_file_index>  (1) 
38

>  <i_f3d_flags>  (1) 
0

>  <num_sample>  (1) 
100

>  <b_lp_Chiralities_Consistent>  (1) 
1

>  <r_epik_Charging_Adjusted_Penalty>  (1) 
0

>  <r_epik_Ionization_Penalty>  (1) 
0

>  <r_epik_Ionization_Penalty_Charging>  (1) 
0

>  <r_epik_Ionization_Penalty_Neutral>  (1) 
0

>  <r_epik_State_Penalty>  (1) 
-0

>  <r_glide_ring_energy>  (1) 
0

>  <r_i_docking_score>  (1) 
-6.1890876180215617

>  <r_i_glide_ecoul>  (1) 
-1.0320213951673674

>  <r_i_glide_eff_state_penalty>  (1) 
-0

>  <r_i_glide_einternal>  (1) 
0

>  <r_i_glide_emodel>  (1) 
-30.274069673145668

>  <r_i_glide_emodel_strain>  (1) 
9.5552721290914633e-10

>  <r_i_glide_energy>  (1) 
-22.037076308594791

>  <r_i_glide_erotb>  (1) 
0

>  <r_i_glide_esite>  (1) 
0

>  <r_i_glide_evdw>  (1) 
-21.005054913427426

>  <r_i_glide_gscore>  (1) 
-6.1890876180215617

>  <r_i_glide_gscore_strain>  (1) 
0

>  <r_i_glide_hbond>  (1) 
0

>  <r_i_glide_ligand_efficiency>  (1) 
-0.68767640200239577

>  <r_i_glide_ligand_efficiency_ln>  (1) 
-1.9357688108284294

>  <r_i_glide_ligand_efficiency_sa>  (1) 
-1.4304245592997216

>  <r_i_glide_lipo>  (1) 
-2.3090316630750856

>  <r_i_glide_metal>  (1) 
-0

>  <r_i_glide_rewards>  (1) 
-2.6749999999999998

>  <r_lp_Energy>  (1) 
4.5932930000000001

>  <r_lp_tautomer_probability>  (1) 
1

>  <s_epik_cmdline>  (1) 
J2VwaWtfcHl0aG9uJywgJy1waHQnLCAnMS4wJywgJy1waCcsICc3LjQnLCAnLXRuJywgJzgnLCAnLW1hJywgJzUwMCcsICctaW1hZScsICc8aW5maWxlLm1hZT4nLCAnLW9tYWUnLCAnPG91dGZpbGUubWFlPic=

>  <s_epik_input>  (1) 
bzFbY0hdW2NIXWMoYzEyKVtDSDJdW0NIXT1bQ0hdW0NIMl0y

>  <s_glide_docking_method>  (1) 
confgen

>  <s_i_glide_gridfile>  (1) 
gpcr_drd2_6luq_protein_autoprepared_prepared

>  <s_lp_Force_Field>  (1) 
S-OPLS

>  <s_lp_Variant>  (1) 
Pocket2Mol_37-1

>  <s_m_source_file>  (1) 
generated_generic_title2_ligand_Pocket2Mol_2026-06-23_prepared.sdf

>  <GenAI_Model>  (1) 
Pocket2Mol

>  <Protein>  (1) 
generic_title2

$$$$
Pocket2Mol_73
     RDKit          3D

  0  0  0  0  0  0  0  0  0  0999 V3000
M  V30 BEGIN CTAB
M  V30 COUNTS 20 21 0 0 1
M  V30 BEGIN ATOM
M  V30 1 C 12.431151 8.527770 -1.985114 0
M  V30 2 O 12.175410 9.590170 -2.979547 0
M  V30 3 C 11.785241 8.878441 -4.056642 0
M  V30 4 C 11.775411 7.536934 -3.900128 0
M  V30 5 C 11.375406 6.678978 -4.935874 0
M  V30 6 C 12.191863 7.064101 -2.577102 0
M  V30 7 C 11.399876 9.474677 -5.268872 0
M  V30 8 C 10.975415 7.234253 -6.172299 0
M  V30 9 N 10.575504 6.390391 -7.216712 0
M  V30 10 C 10.991091 8.648644 -6.340066 0
M  V30 11 O 9.693313 6.987085 -8.125325 0
M  V30 12 H 11.775416 8.696842 -1.130938 0
M  V30 13 H 13.451375 8.630704 -1.616872 0
M  V30 14 H 11.370333 5.609102 -4.787993 0
M  V30 15 H 11.394837 6.519529 -2.069320 0
M  V30 16 H 13.100648 6.465779 -2.625913 0
M  V30 17 H 11.412114 10.548929 -5.379298 0
M  V30 18 H 10.265767 5.459360 -6.972077 0
M  V30 19 H 10.691562 9.091354 -7.277916 0
M  V30 20 H 10.099684 6.934805 -8.977130 0
M  V30 END ATOM
M  V30 BEGIN BOND
M  V30 1 1 2 1
M  V30 2 1 3 2
M  V30 3 2 4 3
M  V30 4 1 5 4
M  V30 5 1 6 1
M  V30 6 1 6 4
M  V30 7 1 7 3
M  V30 8 2 8 5
M  V30 9 1 9 8
M  V30 10 2 10 7
M  V30 11 1 10 8
M  V30 12 1 11 9
M  V30 13 1 12 1
M  V30 14 1 13 1
M  V30 15 1 14 5
M  V30 16 1 15 6
M  V30 17 1 16 6
M  V30 18 1 17 7
M  V30 19 1 18 9
M  V30 20 1 19 10
M  V30 21 1 20 11
M  V30 END BOND
M  V30 END CTAB
M  END
>  <i_epik_Tot_Q>  (1) 
0

>  <i_epik_Tot_abs_Q>  (1) 
0

>  <i_i_glide_confnum>  (1) 
1

>  <i_i_glide_lignum>  (1) 
80

>  <i_i_glide_posenum>  (1) 
140

>  <i_i_glide_rotatable_bonds>  (1) 
2

>  <i_lp_mmshare_version>  (1) 
72125

>  <i_m_source_file_index>  (1) 
74

>  <i_f3d_flags>  (1) 
0

>  <num_sample>  (1) 
100

>  <b_lp_Chiralities_Consistent>  (1) 
1

>  <r_epik_Charging_Adjusted_Penalty>  (1) 
0

>  <r_epik_Ionization_Penalty>  (1) 
0.00049506315318442675

>  <r_epik_Ionization_Penalty_Charging>  (1) 
0

>  <r_epik_Ionization_Penalty_Neutral>  (1) 
0.00049506315318442675

>  <r_epik_State_Penalty>  (1) 
-0

>  <r_glide_ring_energy>  (1) 
0

>  <r_i_docking_score>  (1) 
-6.1817667121162492

>  <r_i_glide_ecoul>  (1) 
-0.055675468269368089

>  <r_i_glide_eff_state_penalty>  (1) 
-0

>  <r_i_glide_einternal>  (1) 
0.1690474521960712

>  <r_i_glide_emodel>  (1) 
-34.59954818032724

>  <r_i_glide_emodel_strain>  (1) 
0

>  <r_i_glide_energy>  (1) 
-24.52599763649776

>  <r_i_glide_erotb>  (1) 
0

>  <r_i_glide_esite>  (1) 
0

>  <r_i_glide_evdw>  (1) 
-24.470322168228392

>  <r_i_glide_gscore>  (1) 
-6.1817667121162492

>  <r_i_glide_gscore_strain>  (1) 
0

>  <r_i_glide_hbond>  (1) 
0

>  <r_i_glide_ligand_efficiency>  (1) 
-0.56197879201056811

>  <r_i_glide_ligand_efficiency_ln>  (1) 
-1.8192928903971761

>  <r_i_glide_ligand_efficiency_sa>  (1) 
-1.2498296447536978

>  <r_i_glide_lipo>  (1) 
-2.3075218787385454

>  <r_i_glide_metal>  (1) 
-0

>  <r_i_glide_rewards>  (1) 
-2.6423774047258792

>  <r_lp_Energy>  (1) 
14.863064999999999

>  <r_lp_tautomer_probability>  (1) 
1

>  <s_epik_Chemistry_Notes>  (1) 
This compound has a N-S or N-O group and may undergo hydrolysis at high or low pH.

>  <s_epik_cmdline>  (1) 
J2VwaWtfcHl0aG9uJywgJy1waHQnLCAnMS4wJywgJy1waCcsICc3LjQnLCAnLXRuJywgJzgnLCAnLW1hJywgJzUwMCcsICctaW1hZScsICc8aW5maWxlLm1hZT4nLCAnLW9tYWUnLCAnPG91dGZpbGUubWFlPic=

>  <s_epik_input>  (1) 
TzFbQ0gyXVtDSDJdYyhjMTIpW2NIXWMoW05IXVtPSF0pW2NIXVtjSF0y

>  <s_glide_docking_method>  (1) 
confgen

>  <s_i_glide_gridfile>  (1) 
gpcr_drd2_6luq_protein_autoprepared_prepared

>  <s_lp_Force_Field>  (1) 
S-OPLS

>  <s_lp_Variant>  (1) 
Pocket2Mol_73-1

>  <s_m_source_file>  (1) 
generated_generic_title2_ligand_Pocket2Mol_2026-06-23_prepared.sdf

>  <GenAI_Model>  (1) 
Pocket2Mol

>  <Protein>  (1) 
generic_title2

$$$$
Pocket2Mol_0
     RDKit          3D

  0  0  0  0  0  0  0  0  0  0999 V3000
M  V30 BEGIN CTAB
M  V30 COUNTS 21 23 0 0 1
M  V30 BEGIN ATOM
M  V30 1 C 12.385892 8.321877 -2.099696 0
M  V30 2 O 12.171926 7.011343 -2.744447 0
M  V30 3 C 11.775410 7.373497 -3.986221 0
M  V30 4 C 11.775410 8.686655 -4.239171 0
M  V30 5 C 11.386899 9.197225 -5.484096 0
M  V30 6 C 12.201791 9.524222 -3.125244 0
M  V30 7 C 11.375410 6.450708 -4.953161 0
M  V30 8 C 10.974510 8.312786 -6.514063 0
M  V30 9 N 10.596892 8.790227 -7.724203 0
M  V30 10 C 10.176272 7.882622 -8.623803 0
M  V30 11 C 10.965005 6.890045 -6.238219 0
M  V30 12 C 10.163905 6.510394 -8.358597 0
M  V30 13 N 10.572372 5.996092 -7.184948 0
M  V30 14 H 13.375410 8.362809 -1.644747 0
M  V30 15 H 11.665586 8.417623 -1.286622 0
M  V30 16 H 11.398668 10.262766 -5.660394 0
M  V30 17 H 13.154015 9.990226 -3.364893 0
M  V30 18 H 11.446777 10.249178 -2.817352 0
M  V30 19 H 11.377866 5.407361 -4.720345 0
M  V30 20 H 9.840800 8.262999 -9.577771 0
M  V30 21 H 9.819849 5.807769 -9.103431 0
M  V30 END ATOM
M  V30 BEGIN BOND
M  V30 1 1 2 1
M  V30 2 1 3 2
M  V30 3 1 4 3
M  V30 4 2 5 4
M  V30 5 1 6 1
M  V30 6 1 6 4
M  V30 7 2 7 3
M  V30 8 1 8 5
M  V30 9 2 9 8
M  V30 10 1 10 9
M  V30 11 1 11 7
M  V30 12 1 11 8
M  V30 13 2 12 10
M  V30 14 2 13 11
M  V30 15 1 13 12
M  V30 16 1 14 1
M  V30 17 1 15 1
M  V30 18 1 16 5
M  V30 19 1 17 6
M  V30 20 1 18 6
M  V30 21 1 19 7
M  V30 22 1 20 10
M  V30 23 1 21 12
M  V30 END BOND
M  V30 END CTAB
M  END
>  <i_epik_Tot_Q>  (1) 
0

>  <i_epik_Tot_abs_Q>  (1) 
0

>  <i_i_glide_confnum>  (1) 
1

>  <i_i_glide_lignum>  (1) 
1

>  <i_i_glide_posenum>  (1) 
1

>  <i_i_glide_rotatable_bonds>  (1) 
0

>  <i_lp_mmshare_version>  (1) 
72125

>  <i_m_source_file_index>  (1) 
1

>  <i_f3d_flags>  (1) 
0

>  <num_sample>  (1) 
100

>  <b_lp_Chiralities_Consistent>  (1) 
1

>  <r_epik_Charging_Adjusted_Penalty>  (1) 
0

>  <r_epik_Ionization_Penalty>  (1) 
2.4588925185764017e-06

>  <r_epik_Ionization_Penalty_Charging>  (1) 
0

>  <r_epik_Ionization_Penalty_Neutral>  (1) 
2.4588925185764017e-06

>  <r_epik_State_Penalty>  (1) 
-0

>  <r_glide_ring_energy>  (1) 
0

>  <r_i_docking_score>  (1) 
-6.1784469240897284

>  <r_i_glide_ecoul>  (1) 
-1.0355161667620663

>  <r_i_glide_eff_state_penalty>  (1) 
-0

>  <r_i_glide_einternal>  (1) 
0

>  <r_i_glide_emodel>  (1) 
-33.150485843669607

>  <r_i_glide_emodel_strain>  (1) 
0

>  <r_i_glide_energy>  (1) 
-23.285733052470587

>  <r_i_glide_erotb>  (1) 
0

>  <r_i_glide_esite>  (1) 
0

>  <r_i_glide_evdw>  (1) 
-22.250216885708522

>  <r_i_glide_gscore>  (1) 
-6.1784469240897284

>  <r_i_glide_gscore_strain>  (1) 
0

>  <r_i_glide_hbond>  (1) 
0

>  <r_i_glide_ligand_efficiency>  (1) 
-0.47526514800690217

>  <r_i_glide_ligand_efficiency_ln>  (1) 
-1.733109310840018

>  <r_i_glide_ligand_efficiency_sa>  (1) 
-1.117507428373369

>  <r_i_glide_lipo>  (1) 
-2.2336092321615988

>  <r_i_glide_metal>  (1) 
-0

>  <r_i_glide_rewards>  (1) 
-2.6769994226283944

>  <r_lp_Energy>  (1) 
22.769921999999998

>  <r_lp_tautomer_probability>  (1) 
1

>  <s_epik_cmdline>  (1) 
J2VwaWtfcHl0aG9uJywgJy1waHQnLCAnMS4wJywgJy1waCcsICc3LjQnLCAnLXRuJywgJzgnLCAnLW1hJywgJzUwMCcsICctaW1hZScsICc8aW5maWxlLm1hZT4nLCAnLW9tYWUnLCAnPG91dGZpbGUubWFlPic=

>  <s_epik_input>  (1) 
TzFbQ0gyXVtDSDJdYyhjMTIpW2NIXWMzYyhbY0hdMiluW2NIXVtjSF1uMw==

>  <s_glide_docking_method>  (1) 
confgen

>  <s_i_glide_gridfile>  (1) 
gpcr_drd2_6luq_protein_autoprepared_prepared

>  <s_lp_Force_Field>  (1) 
S-OPLS

>  <s_lp_Variant>  (1) 
Pocket2Mol_0-1

>  <s_m_source_file>  (1) 
generated_generic_title2_ligand_Pocket2Mol_2026-06-23_prepared.sdf

>  <GenAI_Model>  (1) 
Pocket2Mol

>  <Protein>  (1) 
generic_title2

$$$$
Pocket2Mol_41
     RDKit          3D

  0  0  0  0  0  0  0  0  0  0999 V3000
M  V30 BEGIN CTAB
M  V30 COUNTS 15 16 0 0 1
M  V30 BEGIN ATOM
M  V30 1 C 10.880695 8.697697 -6.698313 0
M  V30 2 O 10.801802 7.401667 -6.046745 0
M  V30 3 C 11.375410 7.556061 -4.819703 0
M  V30 4 C 11.900157 8.783211 -4.514810 0
M  V30 5 C 12.510830 9.027370 -3.274394 0
M  V30 6 C 11.424917 6.509413 -3.890070 0
M  V30 7 C 12.028486 6.724739 -2.630365 0
M  V30 8 S 11.775415 9.990177 -5.714414 0
M  V30 9 C 12.575407 7.990221 -2.322689 0
M  V30 10 H 11.373512 8.580717 -7.663648 0
M  V30 11 H 9.867768 9.049089 -6.898586 0
M  V30 12 H 12.924104 9.990227 -3.050518 0
M  V30 13 H 11.001086 5.556977 -4.134524 0
M  V30 14 H 12.070330 5.924479 -1.905470 0
M  V30 15 H 13.038404 8.163241 -1.362447 0
M  V30 END ATOM
M  V30 BEGIN BOND
M  V30 1 1 2 1
M  V30 2 1 3 2
M  V30 3 1 4 3
M  V30 4 2 5 4
M  V30 5 2 6 3
M  V30 6 1 7 6
M  V30 7 1 8 1
M  V30 8 1 8 4
M  V30 9 1 9 5
M  V30 10 2 9 7
M  V30 11 1 10 1
M  V30 12 1 11 1
M  V30 13 1 12 5
M  V30 14 1 13 6
M  V30 15 1 14 7
M  V30 16 1 15 9
M  V30 END BOND
M  V30 END CTAB
M  END
>  <i_epik_Tot_Q>  (1) 
0

>  <i_epik_Tot_abs_Q>  (1) 
0

>  <i_i_glide_confnum>  (1) 
1

>  <i_i_glide_lignum>  (1) 
46

>  <i_i_glide_posenum>  (1) 
21

>  <i_i_glide_rotatable_bonds>  (1) 
0

>  <i_lp_mmshare_version>  (1) 
72125

>  <i_m_source_file_index>  (1) 
42

>  <i_f3d_flags>  (1) 
0

>  <num_sample>  (1) 
100

>  <b_lp_Chiralities_Consistent>  (1) 
1

>  <r_epik_Charging_Adjusted_Penalty>  (1) 
0

>  <r_epik_Ionization_Penalty>  (1) 
0

>  <r_epik_Ionization_Penalty_Charging>  (1) 
0

>  <r_epik_Ionization_Penalty_Neutral>  (1) 
0

>  <r_epik_State_Penalty>  (1) 
-0

>  <r_glide_ring_energy>  (1) 
0

>  <r_i_docking_score>  (1) 
-6.1768411978416946

>  <r_i_glide_ecoul>  (1) 
-0.75640925694596683

>  <r_i_glide_eff_state_penalty>  (1) 
-0

>  <r_i_glide_einternal>  (1) 
0

>  <r_i_glide_emodel>  (1) 
-30.109232896203984

>  <r_i_glide_emodel_strain>  (1) 
0

>  <r_i_glide_energy>  (1) 
-21.532747653900856

>  <r_i_glide_erotb>  (1) 
0

>  <r_i_glide_esite>  (1) 
0

>  <r_i_glide_evdw>  (1) 
-20.776338396954888

>  <r_i_glide_gscore>  (1) 
-6.1768411978416946

>  <r_i_glide_gscore_strain>  (1) 
0

>  <r_i_glide_hbond>  (1) 
0

>  <r_i_glide_ligand_efficiency>  (1) 
-0.68631568864907722

>  <r_i_glide_ligand_efficiency_ln>  (1) 
-1.9319384824033707

>  <r_i_glide_ligand_efficiency_sa>  (1) 
-1.4275941614656731

>  <r_i_glide_lipo>  (1) 
-2.2478959143546948

>  <r_i_glide_metal>  (1) 
-0

>  <r_i_glide_rewards>  (1) 
-2.7766669750973598

>  <r_lp_Energy>  (1) 
5.8399909999999995

>  <r_lp_tautomer_probability>  (1) 
1

>  <s_epik_Chemistry_Notes>  (1) 
This compound contains an acetal/aminal-like group ( X-CH(R)-Y where X, Y are N, S, or O) that may be acid/base labile, releasing an aldehyde.

>  <s_epik_cmdline>  (1) 
J2VwaWtfcHl0aG9uJywgJy1waHQnLCAnMS4wJywgJy1waCcsICc3LjQnLCAnLXRuJywgJzgnLCAnLW1hJywgJzUwMCcsICctaW1hZScsICc8aW5maWxlLm1hZT4nLCAnLW9tYWUnLCAnPG91dGZpbGUubWFlPic=

>  <s_epik_input>  (1) 
TzFbQ0gyXVNjKGMxMilbY0hdW2NIXVtjSF1bY0hdMg==

>  <s_glide_docking_method>  (1) 
confgen

>  <s_i_glide_gridfile>  (1) 
gpcr_drd2_6luq_protein_autoprepared_prepared

>  <s_lp_Force_Field>  (1) 
S-OPLS

>  <s_lp_Variant>  (1) 
Pocket2Mol_41-1

>  <s_m_source_file>  (1) 
generated_generic_title2_ligand_Pocket2Mol_2026-06-23_prepared.sdf

>  <GenAI_Model>  (1) 
Pocket2Mol

>  <Protein>  (1) 
generic_title2

$$$$
Pocket2Mol_38
     RDKit          3D

  0  0  0  0  0  0  0  0  0  0999 V3000
M  V30 BEGIN CTAB
M  V30 COUNTS 15 16 0 0 1
M  V30 BEGIN ATOM
M  V30 1 C 12.463541 8.427739 -2.083383 0
M  V30 2 O 12.192062 9.442089 -2.982398 0
M  V30 3 C 11.775411 8.848281 -4.147807 0
M  V30 4 C 11.775410 7.453466 -3.985025 0
M  V30 5 C 11.361735 6.679552 -5.098994 0
M  V30 6 C 11.394975 9.492600 -5.327772 0
M  V30 7 C 12.219567 7.189726 -2.650602 0
M  V30 8 C 10.987585 8.716150 -6.422777 0
M  V30 9 C 10.970346 7.307770 -6.310324 0
M  V30 10 H 12.809238 8.742040 -1.109359 0
M  V30 11 H 11.342396 5.602511 -5.024362 0
M  V30 12 H 11.412473 10.570117 -5.394290 0
M  V30 13 H 12.336226 6.218288 -2.191356 0
M  V30 14 H 10.687605 9.190225 -7.345421 0
M  V30 15 H 10.655308 6.705449 -7.150821 0
M  V30 END ATOM
M  V30 BEGIN BOND
M  V30 1 1 2 1
M  V30 2 1 3 2
M  V30 3 1 4 3
M  V30 4 2 5 4
M  V30 5 2 6 3
M  V30 6 2 7 1
M  V30 7 1 7 4
M  V30 8 1 8 6
M  V30 9 1 9 5
M  V30 10 2 9 8
M  V30 11 1 10 1
M  V30 12 1 11 5
M  V30 13 1 12 6
M  V30 14 1 13 7
M  V30 15 1 14 8
M  V30 16 1 15 9
M  V30 END BOND
M  V30 END CTAB
M  END
>  <i_epik_Tot_Q>  (1) 
0

>  <i_epik_Tot_abs_Q>  (1) 
0

>  <i_i_glide_confnum>  (1) 
1

>  <i_i_glide_lignum>  (1) 
43

>  <i_i_glide_posenum>  (1) 
92

>  <i_i_glide_rotatable_bonds>  (1) 
0

>  <i_lp_mmshare_version>  (1) 
72125

>  <i_m_source_file_index>  (1) 
39

>  <i_f3d_flags>  (1) 
0

>  <num_sample>  (1) 
100

>  <b_lp_Chiralities_Consistent>  (1) 
1

>  <r_epik_Charging_Adjusted_Penalty>  (1) 
0

>  <r_epik_Ionization_Penalty>  (1) 
0

>  <r_epik_Ionization_Penalty_Charging>  (1) 
0

>  <r_epik_Ionization_Penalty_Neutral>  (1) 
0

>  <r_epik_State_Penalty>  (1) 
-0

>  <r_glide_ring_energy>  (1) 
0

>  <r_i_docking_score>  (1) 
-6.1764088700731268

>  <r_i_glide_ecoul>  (1) 
-0.98589339691462885

>  <r_i_glide_eff_state_penalty>  (1) 
-0

>  <r_i_glide_einternal>  (1) 
0

>  <r_i_glide_emodel>  (1) 
-28.825614965913235

>  <r_i_glide_emodel_strain>  (1) 
0

>  <r_i_glide_energy>  (1) 
-20.906723606401417

>  <r_i_glide_erotb>  (1) 
0

>  <r_i_glide_esite>  (1) 
0

>  <r_i_glide_evdw>  (1) 
-19.920830209486788

>  <r_i_glide_gscore>  (1) 
-6.1764088700731268

>  <r_i_glide_gscore_strain>  (1) 
0

>  <r_i_glide_hbond>  (1) 
0

>  <r_i_glide_ligand_efficiency>  (1) 
-0.68626765223034747

>  <r_i_glide_ligand_efficiency_ln>  (1) 
-1.9318032626969941

>  <r_i_glide_ligand_efficiency_sa>  (1) 
-1.427494241688156

>  <r_i_glide_lipo>  (1) 
-2.2741500167282598

>  <r_i_glide_metal>  (1) 
-0

>  <r_i_glide_rewards>  (1) 
-2.7583333333333333

>  <r_lp_Energy>  (1) 
12.927653999999999

>  <r_lp_tautomer_probability>  (1) 
1

>  <s_epik_cmdline>  (1) 
J2VwaWtfcHl0aG9uJywgJy1waHQnLCAnMS4wJywgJy1waCcsICc3LjQnLCAnLXRuJywgJzgnLCAnLW1hJywgJzUwMCcsICctaW1hZScsICc8aW5maWxlLm1hZT4nLCAnLW9tYWUnLCAnPG91dGZpbGUubWFlPic=

>  <s_epik_input>  (1) 
bzFbY0hdW2NIXWMoYzEyKVtjSF1bY0hdW2NIXVtjSF0y

>  <s_glide_docking_method>  (1) 
confgen

>  <s_i_glide_gridfile>  (1) 
gpcr_drd2_6luq_protein_autoprepared_prepared

>  <s_lp_Force_Field>  (1) 
S-OPLS

>  <s_lp_Variant>  (1) 
Pocket2Mol_38-1

>  <s_m_source_file>  (1) 
generated_generic_title2_ligand_Pocket2Mol_2026-06-23_prepared.sdf

>  <GenAI_Model>  (1) 
Pocket2Mol

>  <Protein>  (1) 
generic_title2

$$$$
Pocket2Mol_49
     RDKit          3D

  0  0  0  0  0  0  0  0  0  0999 V3000
M  V30 BEGIN CTAB
M  V30 COUNTS 20 21 0 0 1
M  V30 BEGIN ATOM
M  V30 1 C 12.241303 8.777735 -2.534390 0
M  V30 2 O 12.300349 9.366919 -3.830633 0
M  V30 3 C 11.737807 8.690871 -4.896147 0
M  V30 4 C 11.375410 7.320406 -4.785025 0
M  V30 5 C 10.810657 6.652363 -5.886977 0
M  V30 6 C 11.535634 9.364114 -6.117365 0
M  V30 7 C 10.975414 8.680545 -7.217329 0
M  V30 8 C 11.608329 6.566454 -3.492560 0
M  V30 9 C 10.610817 7.330389 -7.098743 0
M  V30 10 C 12.575410 7.294817 -2.578991 0
M  V30 11 H 12.967688 9.268991 -1.892512 0
M  V30 12 H 11.267978 8.948718 -2.082922 0
M  V30 13 H 10.535997 5.613791 -5.803060 0
M  V30 14 H 11.813839 10.403340 -6.212738 0
M  V30 15 H 10.825318 9.190227 -8.154089 0
M  V30 16 H 10.654158 6.390226 -2.995007 0
M  V30 17 H 12.017217 5.590224 -3.729035 0
M  V30 18 H 10.179594 6.811509 -7.942921 0
M  V30 19 H 13.583219 7.190231 -2.979105 0
M  V30 20 H 12.575418 6.849907 -1.585023 0
M  V30 END ATOM
M  V30 BEGIN BOND
M  V30 1 1 2 1
M  V30 2 1 3 2
M  V30 3 1 4 3
M  V30 4 2 5 4
M  V30 5 2 6 3
M  V30 6 1 7 6
M  V30 7 1 8 4
M  V30 8 1 9 5
M  V30 9 2 9 7
M  V30 10 1 10 1
M  V30 11 1 10 8
M  V30 12 1 11 1
M  V30 13 1 12 1
M  V30 14 1 13 5
M  V30 15 1 14 6
M  V30 16 1 15 7
M  V30 17 1 16 8
M  V30 18 1 17 8
M  V30 19 1 18 9
M  V30 20 1 19 10
M  V30 21 1 20 10
M  V30 END BOND
M  V30 END CTAB
M  END
>  <i_epik_Tot_Q>  (1) 
0

>  <i_epik_Tot_abs_Q>  (1) 
0

>  <i_i_glide_confnum>  (1) 
1

>  <i_i_glide_lignum>  (1) 
56

>  <i_i_glide_posenum>  (1) 
23

>  <i_i_glide_rotatable_bonds>  (1) 
0

>  <i_lp_mmshare_version>  (1) 
72125

>  <i_m_source_file_index>  (1) 
50

>  <i_f3d_flags>  (1) 
0

>  <num_sample>  (1) 
100

>  <b_lp_Chiralities_Consistent>  (1) 
1

>  <r_epik_Charging_Adjusted_Penalty>  (1) 
0

>  <r_epik_Ionization_Penalty>  (1) 
0

>  <r_epik_Ionization_Penalty_Charging>  (1) 
0

>  <r_epik_Ionization_Penalty_Neutral>  (1) 
0

>  <r_epik_State_Penalty>  (1) 
-0

>  <r_glide_ring_energy>  (1) 
0

>  <r_i_docking_score>  (1) 
-6.1743468868341003

>  <r_i_glide_ecoul>  (1) 
-1.1100468511728929

>  <r_i_glide_eff_state_penalty>  (1) 
-0

>  <r_i_glide_einternal>  (1) 
0

>  <r_i_glide_emodel>  (1) 
-28.07195944166412

>  <r_i_glide_emodel_strain>  (1) 
0

>  <r_i_glide_energy>  (1) 
-20.111259305184159

>  <r_i_glide_erotb>  (1) 
0

>  <r_i_glide_esite>  (1) 
0

>  <r_i_glide_evdw>  (1) 
-19.001212454011267

>  <r_i_glide_gscore>  (1) 
-6.1743468868341003

>  <r_i_glide_gscore_strain>  (1) 
0

>  <r_i_glide_hbond>  (1) 
0

>  <r_i_glide_ligand_efficiency>  (1) 
-0.61743468868341

>  <r_i_glide_ligand_efficiency_ln>  (1) 
-1.8695496748689624

>  <r_i_glide_ligand_efficiency_sa>  (1) 
-1.3302227121285752

>  <r_i_glide_lipo>  (1) 
-2.2889086786064334

>  <r_i_glide_metal>  (1) 
-0

>  <r_i_glide_rewards>  (1) 
-2.7688705578511703

>  <r_lp_Energy>  (1) 
14.978437

>  <r_lp_tautomer_probability>  (1) 
1

>  <s_epik_cmdline>  (1) 
J2VwaWtfcHl0aG9uJywgJy1waHQnLCAnMS4wJywgJy1waCcsICc3LjQnLCAnLXRuJywgJzgnLCAnLW1hJywgJzUwMCcsICctaW1hZScsICc8aW5maWxlLm1hZT4nLCAnLW9tYWUnLCAnPG91dGZpbGUubWFlPic=

>  <s_epik_input>  (1) 
TzFbQ0gyXVtDSDJdW0NIMl1jKGMxMilbY0hdW2NIXVtjSF1bY0hdMg==

>  <s_glide_docking_method>  (1) 
confgen

>  <s_i_glide_gridfile>  (1) 
gpcr_drd2_6luq_protein_autoprepared_prepared

>  <s_lp_Force_Field>  (1) 
S-OPLS

>  <s_lp_Variant>  (1) 
Pocket2Mol_49-1

>  <s_m_source_file>  (1) 
generated_generic_title2_ligand_Pocket2Mol_2026-06-23_prepared.sdf

>  <GenAI_Model>  (1) 
Pocket2Mol

>  <Protein>  (1) 
generic_title2

$$$$
Pocket2Mol_62
     RDKit          3D

  0  0  0  0  0  0  0  0  0  0999 V3000
M  V30 BEGIN CTAB
M  V30 COUNTS 21 22 0 0 1
M  V30 BEGIN ATOM
M  V30 1 C 12.435214 8.529023 -2.070583 0
M  V30 2 O 12.174834 9.590248 -3.064771 0
M  V30 3 C 11.778101 8.878307 -4.139760 0
M  V30 4 C 11.775408 7.537038 -3.984941 0
M  V30 5 C 11.375190 6.677950 -5.021019 0
M  V30 6 C 10.963203 7.231873 -6.254382 0
M  V30 7 O 10.563508 6.394397 -7.275966 0
M  V30 8 C 12.205804 7.064444 -2.666208 0
M  V30 9 C 11.382855 9.474339 -5.348672 0
M  V30 10 C 10.970931 8.648946 -6.418989 0
M  V30 11 C 9.830349 6.939574 -8.365970 0
M  V30 12 H 11.776064 8.691313 -1.217325 0
M  V30 13 H 13.454022 8.635341 -1.699386 0
M  V30 14 H 11.375950 5.607910 -4.876024 0
M  V30 15 H 11.418572 6.507533 -2.156656 0
M  V30 16 H 13.121282 6.477851 -2.726883 0
M  V30 17 H 11.390020 10.548681 -5.457591 0
M  V30 18 H 10.664680 9.095660 -7.351010 0
M  V30 19 H 9.444566 6.126948 -8.981895 0
M  V30 20 H 8.975410 7.524234 -8.022197 0
M  V30 21 H 10.463745 7.559298 -9.001761 0
M  V30 END ATOM
M  V30 BEGIN BOND
M  V30 1 1 2 1
M  V30 2 1 3 2
M  V30 3 2 4 3
M  V30 4 1 5 4
M  V30 5 2 6 5
M  V30 6 1 7 6
M  V30 7 1 8 1
M  V30 8 1 8 4
M  V30 9 1 9 3
M  V30 10 1 10 6
M  V30 11 2 10 9
M  V30 12 1 11 7
M  V30 13 1 12 1
M  V30 14 1 13 1
M  V30 15 1 14 5
M  V30 16 1 15 8
M  V30 17 1 16 8
M  V30 18 1 17 9
M  V30 19 1 18 10
M  V30 20 1 19 11
M  V30 21 1 20 11
M  V30 22 1 21 11
M  V30 END BOND
M  V30 END CTAB
M  END
>  <i_epik_Tot_Q>  (1) 
0

>  <i_epik_Tot_abs_Q>  (1) 
0

>  <i_i_glide_confnum>  (1) 
1

>  <i_i_glide_lignum>  (1) 
69

>  <i_i_glide_posenum>  (1) 
289

>  <i_i_glide_rotatable_bonds>  (1) 
1

>  <i_lp_mmshare_version>  (1) 
72125

>  <i_m_source_file_index>  (1) 
63

>  <i_f3d_flags>  (1) 
0

>  <num_sample>  (1) 
100

>  <b_lp_Chiralities_Consistent>  (1) 
1

>  <r_epik_Charging_Adjusted_Penalty>  (1) 
0

>  <r_epik_Ionization_Penalty>  (1) 
0

>  <r_epik_Ionization_Penalty_Charging>  (1) 
0

>  <r_epik_Ionization_Penalty_Neutral>  (1) 
0

>  <r_epik_State_Penalty>  (1) 
-0

>  <r_glide_ring_energy>  (1) 
0

>  <r_i_docking_score>  (1) 
-6.173833000227801

>  <r_i_glide_ecoul>  (1) 
-0.88818382476786895

>  <r_i_glide_eff_state_penalty>  (1) 
-0

>  <r_i_glide_einternal>  (1) 
0.12764320939402896

>  <r_i_glide_emodel>  (1) 
-32.229823308583647

>  <r_i_glide_emodel_strain>  (1) 
0.0016322770246333107

>  <r_i_glide_energy>  (1) 
-23.297078214277832

>  <r_i_glide_erotb>  (1) 
0

>  <r_i_glide_esite>  (1) 
0

>  <r_i_glide_evdw>  (1) 
-22.408894389509964

>  <r_i_glide_gscore>  (1) 
-6.173833000227801

>  <r_i_glide_gscore_strain>  (1) 
0

>  <r_i_glide_hbond>  (1) 
0

>  <r_i_glide_ligand_efficiency>  (1) 
-0.56125754547525464

>  <r_i_glide_ligand_efficiency_ln>  (1) 
-1.8169580003398043

>  <r_i_glide_ligand_efficiency_sa>  (1) 
-1.2482256068187687

>  <r_i_glide_lipo>  (1) 
-2.2750985110620654

>  <r_i_glide_metal>  (1) 
-0

>  <r_i_glide_rewards>  (1) 
-2.6450621959750564

>  <r_lp_Energy>  (1) 
15.977421

>  <r_lp_tautomer_probability>  (1) 
1

>  <s_epik_cmdline>  (1) 
J2VwaWtfcHl0aG9uJywgJy1waHQnLCAnMS4wJywgJy1waCcsICc3LjQnLCAnLXRuJywgJzgnLCAnLW1hJywgJzUwMCcsICctaW1hZScsICc8aW5maWxlLm1hZT4nLCAnLW9tYWUnLCAnPG91dGZpbGUubWFlPic=

>  <s_epik_input>  (1) 
TzFbQ0gyXVtDSDJdYyhjMTIpW2NIXWMoT1tDSDNdKVtjSF1bY0hdMg==

>  <s_glide_docking_method>  (1) 
confgen

>  <s_i_glide_gridfile>  (1) 
gpcr_drd2_6luq_protein_autoprepared_prepared

>  <s_lp_Force_Field>  (1) 
S-OPLS

>  <s_lp_Variant>  (1) 
Pocket2Mol_62-1

>  <s_m_source_file>  (1) 
generated_generic_title2_ligand_Pocket2Mol_2026-06-23_prepared.sdf

>  <GenAI_Model>  (1) 
Pocket2Mol

>  <Protein>  (1) 
generic_title2

$$$$
Pocket2Mol_32
     RDKit          3D

  0  0  0  0  0  0  0  0  0  0999 V3000
M  V30 BEGIN CTAB
M  V30 COUNTS 17 18 0 0 1
M  V30 BEGIN ATOM
M  V30 1 C 12.431195 8.502446 -2.045399 0
M  V30 2 O 12.175418 9.590221 -3.012829 0
M  V30 3 C 11.782523 8.905207 -4.107049 0
M  V30 4 C 11.775411 7.559927 -3.985019 0
M  V30 5 C 11.375409 6.728809 -5.044035 0
M  V30 6 C 12.195711 7.053795 -2.675716 0
M  V30 7 C 11.392481 9.531042 -5.303832 0
M  V30 8 C 10.984224 8.729929 -6.394699 0
M  V30 9 C 10.975402 7.318872 -6.263648 0
M  V30 10 H 13.450912 8.596910 -1.673731 0
M  V30 11 H 11.775495 8.646948 -1.186060 0
M  V30 12 H 11.371232 5.655113 -4.927390 0
M  V30 13 H 11.403180 6.490807 -2.180646 0
M  V30 14 H 13.108251 6.463796 -2.743272 0
M  V30 15 H 11.400873 10.607768 -5.387453 0
M  V30 16 H 10.678475 9.190226 -7.322108 0
M  V30 17 H 10.662533 6.697879 -7.090845 0
M  V30 END ATOM
M  V30 BEGIN BOND
M  V30 1 1 2 1
M  V30 2 1 3 2
M  V30 3 1 4 3
M  V30 4 2 5 4
M  V30 5 1 6 1
M  V30 6 1 6 4
M  V30 7 2 7 3
M  V30 8 1 8 7
M  V30 9 1 9 5
M  V30 10 2 9 8
M  V30 11 1 10 1
M  V30 12 1 11 1
M  V30 13 1 12 5
M  V30 14 1 13 6
M  V30 15 1 14 6
M  V30 16 1 15 7
M  V30 17 1 16 8
M  V30 18 1 17 9
M  V30 END BOND
M  V30 END CTAB
M  END
>  <i_epik_Tot_Q>  (1) 
0

>  <i_epik_Tot_abs_Q>  (1) 
0

>  <i_i_glide_confnum>  (1) 
1

>  <i_i_glide_lignum>  (1) 
36

>  <i_i_glide_posenum>  (1) 
30

>  <i_i_glide_rotatable_bonds>  (1) 
0

>  <i_lp_mmshare_version>  (1) 
72125

>  <i_m_source_file_index>  (1) 
33

>  <i_f3d_flags>  (1) 
0

>  <num_sample>  (1) 
100

>  <b_lp_Chiralities_Consistent>  (1) 
1

>  <r_epik_Charging_Adjusted_Penalty>  (1) 
0

>  <r_epik_Ionization_Penalty>  (1) 
0

>  <r_epik_Ionization_Penalty_Charging>  (1) 
0

>  <r_epik_Ionization_Penalty_Neutral>  (1) 
0

>  <r_epik_State_Penalty>  (1) 
-0

>  <r_glide_ring_energy>  (1) 
0

>  <r_i_docking_score>  (1) 
-6.1671714859356523

>  <r_i_glide_ecoul>  (1) 
-0.82448350867226694

>  <r_i_glide_eff_state_penalty>  (1) 
-0

>  <r_i_glide_einternal>  (1) 
0

>  <r_i_glide_emodel>  (1) 
-29.179067428647542

>  <r_i_glide_emodel_strain>  (1) 
0

>  <r_i_glide_energy>  (1) 
-21.215099759926613

>  <r_i_glide_erotb>  (1) 
0

>  <r_i_glide_esite>  (1) 
0

>  <r_i_glide_evdw>  (1) 
-20.390616251254347

>  <r_i_glide_gscore>  (1) 
-6.1671714859356523

>  <r_i_glide_gscore_strain>  (1) 
0

>  <r_i_glide_hbond>  (1) 
0

>  <r_i_glide_ligand_efficiency>  (1) 
-0.68524127621507247

>  <r_i_glide_ligand_efficiency_ln>  (1) 
-1.9289140743043631

>  <r_i_glide_ligand_efficiency_sa>  (1) 
-1.425359293542414

>  <r_i_glide_lipo>  (1) 
-2.2656348137387616

>  <r_i_glide_metal>  (1) 
-0

>  <r_i_glide_rewards>  (1) 
-2.7583333333333333

>  <r_lp_Energy>  (1) 
11.954839999999999

>  <r_lp_tautomer_probability>  (1) 
1

>  <s_epik_cmdline>  (1) 
J2VwaWtfcHl0aG9uJywgJy1waHQnLCAnMS4wJywgJy1waCcsICc3LjQnLCAnLXRuJywgJzgnLCAnLW1hJywgJzUwMCcsICctaW1hZScsICc8aW5maWxlLm1hZT4nLCAnLW9tYWUnLCAnPG91dGZpbGUubWFlPic=

>  <s_epik_input>  (1) 
TzFbQ0gyXVtDSDJdYyhjMTIpW2NIXVtjSF1bY0hdW2NIXTI=

>  <s_glide_docking_method>  (1) 
confgen

>  <s_i_glide_gridfile>  (1) 
gpcr_drd2_6luq_protein_autoprepared_prepared

>  <s_lp_Force_Field>  (1) 
S-OPLS

>  <s_lp_Variant>  (1) 
Pocket2Mol_32-1

>  <s_m_source_file>  (1) 
generated_generic_title2_ligand_Pocket2Mol_2026-06-23_prepared.sdf

>  <GenAI_Model>  (1) 
Pocket2Mol

>  <Protein>  (1) 
generic_title2

$$$$
Pocket2Mol_53
     RDKit          3D

  0  0  0  0  0  0  0  0  0  0999 V3000
M  V30 BEGIN CTAB
M  V30 COUNTS 16 17 0 0 1
M  V30 BEGIN ATOM
M  V30 1 C 11.621986 9.590227 -6.552352 0
M  V30 2 O 12.048315 9.889373 -5.296162 0
M  V30 3 C 11.987528 8.836118 -4.385024 0
M  V30 4 C 11.382205 7.565752 -4.755588 0
M  V30 5 C 11.375410 6.539253 -3.787148 0
M  V30 6 C 12.530493 9.015728 -3.102178 0
M  V30 7 C 12.500616 7.975254 -2.167202 0
M  V30 8 N 10.850389 7.355421 -5.987203 0 CHG=-1
M  V30 9 C 11.927449 6.741835 -2.506381 0
M  V30 10 C 11.061810 8.381025 -6.813125 0
M  V30 11 H 11.775410 10.385662 -7.258631 0
M  V30 12 H 10.936265 5.590227 -4.030547 0
M  V30 13 H 12.975410 9.960953 -2.837641 0
M  V30 14 H 12.921382 8.123058 -1.185012 0
M  V30 15 H 11.907456 5.941454 -1.781760 0
M  V30 16 H 10.737188 8.207956 -7.861447 0
M  V30 END ATOM
M  V30 BEGIN BOND
M  V30 1 1 2 1
M  V30 2 1 3 2
M  V30 3 1 4 3
M  V30 4 2 5 4
M  V30 5 2 6 3
M  V30 6 1 7 6
M  V30 7 1 8 4
M  V30 8 1 9 5
M  V30 9 2 9 7
M  V30 10 2 10 1
M  V30 11 1 10 8
M  V30 12 1 11 1
M  V30 13 1 12 5
M  V30 14 1 13 6
M  V30 15 1 14 7
M  V30 16 1 15 9
M  V30 17 1 16 10
M  V30 END BOND
M  V30 END CTAB
M  END
>  <i_epik_Tot_Q>  (1) 
-1

>  <i_epik_Tot_abs_Q>  (1) 
1

>  <i_i_glide_confnum>  (1) 
1

>  <i_i_glide_lignum>  (1) 
60

>  <i_i_glide_posenum>  (1) 
117

>  <i_i_glide_rotatable_bonds>  (1) 
0

>  <i_lp_mmshare_version>  (1) 
72125

>  <i_m_source_file_index>  (1) 
54

>  <i_f3d_flags>  (1) 
0

>  <num_sample>  (1) 
100

>  <b_lp_Chiralities_Consistent>  (1) 
1

>  <r_epik_Charging_Adjusted_Penalty>  (1) 
0.016215214782958735

>  <r_epik_Ionization_Penalty>  (1) 
0.016215214782958842

>  <r_epik_Ionization_Penalty_Charging>  (1) 
0

>  <r_epik_Ionization_Penalty_Neutral>  (1) 
0.016215214782958842

>  <r_epik_State_Penalty>  (1) 
0.016215214782958735

>  <r_glide_ring_energy>  (1) 
0

>  <r_i_docking_score>  (1) 
-6.1665717710799921

>  <r_i_glide_ecoul>  (1) 
-2.5528307549952864

>  <r_i_glide_eff_state_penalty>  (1) 
0.016215214782958735

>  <r_i_glide_einternal>  (1) 
0

>  <r_i_glide_emodel>  (1) 
-27.858974858262904

>  <r_i_glide_emodel_strain>  (1) 
0

>  <r_i_glide_energy>  (1) 
-19.35011569133901

>  <r_i_glide_erotb>  (1) 
0

>  <r_i_glide_esite>  (1) 
0

>  <r_i_glide_evdw>  (1) 
-16.797284936343722

>  <r_i_glide_gscore>  (1) 
-6.1827869858629505

>  <r_i_glide_gscore_strain>  (1) 
0

>  <r_i_glide_hbond>  (1) 
0

>  <r_i_glide_ligand_efficiency>  (1) 
-0.61665717710799917

>  <r_i_glide_ligand_efficiency_ln>  (1) 
-1.8671954234158803

>  <r_i_glide_ligand_efficiency_sa>  (1) 
-1.3285476142186088

>  <r_i_glide_lipo>  (1) 
-2.2405931901802036

>  <r_i_glide_metal>  (1) 
-0

>  <r_i_glide_rewards>  (1) 
-2.7194049356162675

>  <r_lp_Energy>  (1) 
26.292493999999998

>  <s_epik_Chemistry_Notes>  (1) 
This compound has an imine and may undergo hydrolysis.

>  <s_epik_cmdline>  (1) 
J2VwaWtfcHl0aG9uJywgJy1waHQnLCAnMS4wJywgJy1waCcsICc3LjQnLCAnLXRuJywgJzgnLCAnLW1hJywgJzUwMCcsICctaW1hZScsICc8aW5maWxlLm1hZT4nLCAnLW9tYWUnLCAnPG91dGZpbGUubWFlPic=

>  <s_epik_input>  (1) 
TzFbQ0gyXVtDSF09TmMoYzEyKVtjSF1bY0hdW2NIXVtjSF0y

>  <s_glide_docking_method>  (1) 
confgen

>  <s_i_glide_gridfile>  (1) 
gpcr_drd2_6luq_protein_autoprepared_prepared

>  <s_lp_Force_Field>  (1) 
S-OPLS

>  <s_lp_Variant>  (1) 
Pocket2Mol_53-1

>  <s_m_source_file>  (1) 
generated_generic_title2_ligand_Pocket2Mol_2026-06-23_prepared.sdf

>  <GenAI_Model>  (1) 
Pocket2Mol

>  <Protein>  (1) 
generic_title2

$$$$
Pocket2Mol_49
     RDKit          3D

  0  0  0  0  0  0  0  0  0  0999 V3000
M  V30 BEGIN CTAB
M  V30 COUNTS 20 21 0 0 1
M  V30 BEGIN ATOM
M  V30 1 C 10.264384 6.438174 -6.940443 0
M  V30 2 O 11.000947 6.097093 -5.770935 0
M  V30 3 C 11.375363 7.106649 -4.913945 0
M  V30 4 C 11.375371 8.456968 -5.344355 0
M  V30 5 C 11.775303 9.476312 -4.458044 0
M  V30 6 C 11.775412 6.790355 -3.599745 0
M  V30 7 C 12.175522 7.812930 -2.717285 0
M  V30 8 C 10.950097 8.806841 -6.757508 0
M  V30 9 C 12.175418 9.154603 -3.146009 0
M  V30 10 C 10.941362 7.590346 -7.675528 0
M  V30 11 H 10.211602 5.562331 -7.586786 0
M  V30 12 H 9.238931 6.694533 -6.667932 0
M  V30 13 H 11.774851 10.504623 -4.785026 0
M  V30 14 H 11.777387 5.762076 -3.269977 0
M  V30 15 H 12.482372 7.567911 -1.711327 0
M  V30 16 H 9.938830 9.209243 -6.705241 0
M  V30 17 H 11.593765 9.587052 -7.164560 0
M  V30 18 H 12.481406 9.937412 -2.467472 0
M  V30 19 H 11.962127 7.305494 -7.931517 0
M  V30 20 H 10.425992 7.817326 -8.609505 0
M  V30 END ATOM
M  V30 BEGIN BOND
M  V30 1 1 2 1
M  V30 2 1 3 2
M  V30 3 1 4 3
M  V30 4 2 5 4
M  V30 5 2 6 3
M  V30 6 1 7 6
M  V30 7 1 8 4
M  V30 8 1 9 5
M  V30 9 2 9 7
M  V30 10 1 10 1
M  V30 11 1 10 8
M  V30 12 1 11 1
M  V30 13 1 12 1
M  V30 14 1 13 5
M  V30 15 1 14 6
M  V30 16 1 15 7
M  V30 17 1 16 8
M  V30 18 1 17 8
M  V30 19 1 18 9
M  V30 20 1 19 10
M  V30 21 1 20 10
M  V30 END BOND
M  V30 END CTAB
M  END
>  <i_epik_Tot_Q>  (1) 
0

>  <i_epik_Tot_abs_Q>  (1) 
0

>  <i_i_glide_confnum>  (1) 
1

>  <i_i_glide_lignum>  (1) 
56

>  <i_i_glide_posenum>  (1) 
202

>  <i_i_glide_rotatable_bonds>  (1) 
0

>  <i_lp_mmshare_version>  (1) 
72125

>  <i_m_source_file_index>  (1) 
50

>  <i_f3d_flags>  (1) 
0

>  <num_sample>  (1) 
100

>  <b_lp_Chiralities_Consistent>  (1) 
1

>  <r_epik_Charging_Adjusted_Penalty>  (1) 
0

>  <r_epik_Ionization_Penalty>  (1) 
0

>  <r_epik_Ionization_Penalty_Charging>  (1) 
0

>  <r_epik_Ionization_Penalty_Neutral>  (1) 
0

>  <r_epik_State_Penalty>  (1) 
-0

>  <r_glide_ring_energy>  (1) 
0

>  <r_i_docking_score>  (1) 
-6.147533411982911

>  <r_i_glide_ecoul>  (1) 
-0.38914800287581597

>  <r_i_glide_eff_state_penalty>  (1) 
-0

>  <r_i_glide_einternal>  (1) 
0

>  <r_i_glide_emodel>  (1) 
-28.474628572077002

>  <r_i_glide_emodel_strain>  (1) 
0

>  <r_i_glide_energy>  (1) 
-20.548499546812469

>  <r_i_glide_erotb>  (1) 
0

>  <r_i_glide_esite>  (1) 
0

>  <r_i_glide_evdw>  (1) 
-20.159351543936651

>  <r_i_glide_gscore>  (1) 
-6.147533411982911

>  <r_i_glide_gscore_strain>  (1) 
0

>  <r_i_glide_hbond>  (1) 
0

>  <r_i_glide_ligand_efficiency>  (1) 
-0.61475334119829106

>  <r_i_glide_ligand_efficiency_ln>  (1) 
-1.8614307395209919

>  <r_i_glide_ligand_efficiency_sa>  (1) 
-1.3244459240906052

>  <r_i_glide_lipo>  (1) 
-2.2960638264344699

>  <r_i_glide_metal>  (1) 
-0

>  <r_i_glide_rewards>  (1) 
-2.7851298079202365

>  <r_lp_Energy>  (1) 
14.978437

>  <r_lp_tautomer_probability>  (1) 
1

>  <s_epik_cmdline>  (1) 
J2VwaWtfcHl0aG9uJywgJy1waHQnLCAnMS4wJywgJy1waCcsICc3LjQnLCAnLXRuJywgJzgnLCAnLW1hJywgJzUwMCcsICctaW1hZScsICc8aW5maWxlLm1hZT4nLCAnLW9tYWUnLCAnPG91dGZpbGUubWFlPic=

>  <s_epik_input>  (1) 
TzFbQ0gyXVtDSDJdW0NIMl1jKGMxMilbY0hdW2NIXVtjSF1bY0hdMg==

>  <s_glide_docking_method>  (1) 
confgen

>  <s_i_glide_gridfile>  (1) 
gpcr_drd2_6luq_protein_autoprepared_prepared

>  <s_lp_Force_Field>  (1) 
S-OPLS

>  <s_lp_Variant>  (1) 
Pocket2Mol_49-1

>  <s_m_source_file>  (1) 
generated_generic_title2_ligand_Pocket2Mol_2026-06-23_prepared.sdf

>  <GenAI_Model>  (1) 
Pocket2Mol

>  <Protein>  (1) 
generic_title2

$$$$
Pocket2Mol_63
     RDKit          3D

  0  0  0  0  0  0  0  0  0  0999 V3000
M  V30 BEGIN CTAB
M  V30 COUNTS 19 20 0 0 1
M  V30 BEGIN ATOM
M  V30 1 C 12.507584 8.430855 -2.104364 0
M  V30 2 O 12.218232 9.440196 -3.003034 0
M  V30 3 C 11.775411 8.840870 -4.155706 0
M  V30 4 C 11.775410 7.447708 -3.985079 0
M  V30 5 C 11.336964 6.667485 -5.083829 0
M  V30 6 C 10.919914 7.282603 -6.292788 0
M  V30 7 O 10.497635 6.488356 -7.338662 0
M  V30 8 C 11.375586 9.479529 -5.330482 0
M  V30 9 C 12.247866 7.190315 -2.658717 0
M  V30 10 C 10.943840 8.700556 -6.413282 0
M  V30 11 C 9.775886 7.083512 -8.409131 0
M  V30 12 H 12.875653 8.750149 -1.139945 0
M  V30 13 H 11.317045 5.591770 -4.999251 0
M  V30 14 H 11.397259 10.556555 -5.403286 0
M  V30 15 H 12.372361 6.221147 -2.196401 0
M  V30 16 H 10.633254 9.179940 -7.327933 0
M  V30 17 H 9.319279 6.302893 -9.017517 0
M  V30 18 H 8.975399 7.725743 -8.043019 0
M  V30 19 H 10.435239 7.663537 -9.055337 0
M  V30 END ATOM
M  V30 BEGIN BOND
M  V30 1 1 2 1
M  V30 2 1 3 2
M  V30 3 1 4 3
M  V30 4 2 5 4
M  V30 5 1 6 5
M  V30 6 1 7 6
M  V30 7 2 8 3
M  V30 8 2 9 1
M  V30 9 1 9 4
M  V30 10 2 10 6
M  V30 11 1 10 8
M  V30 12 1 11 7
M  V30 13 1 12 1
M  V30 14 1 13 5
M  V30 15 1 14 8
M  V30 16 1 15 9
M  V30 17 1 16 10
M  V30 18 1 17 11
M  V30 19 1 18 11
M  V30 20 1 19 11
M  V30 END BOND
M  V30 END CTAB
M  END
>  <i_epik_Tot_Q>  (1) 
0

>  <i_epik_Tot_abs_Q>  (1) 
0

>  <i_i_glide_confnum>  (1) 
1

>  <i_i_glide_lignum>  (1) 
70

>  <i_i_glide_posenum>  (1) 
48

>  <i_i_glide_rotatable_bonds>  (1) 
1

>  <i_lp_mmshare_version>  (1) 
72125

>  <i_m_source_file_index>  (1) 
64

>  <i_f3d_flags>  (1) 
0

>  <num_sample>  (1) 
100

>  <b_lp_Chiralities_Consistent>  (1) 
1

>  <r_epik_Charging_Adjusted_Penalty>  (1) 
0

>  <r_epik_Ionization_Penalty>  (1) 
0

>  <r_epik_Ionization_Penalty_Charging>  (1) 
0

>  <r_epik_Ionization_Penalty_Neutral>  (1) 
0

>  <r_epik_State_Penalty>  (1) 
-0

>  <r_glide_ring_energy>  (1) 
0

>  <r_i_docking_score>  (1) 
-6.1471269383112945

>  <r_i_glide_ecoul>  (1) 
-0.93022160374591656

>  <r_i_glide_eff_state_penalty>  (1) 
-0

>  <r_i_glide_einternal>  (1) 
3.6673482051960118

>  <r_i_glide_emodel>  (1) 
-31.820251754300578

>  <r_i_glide_emodel_strain>  (1) 
0.00030398579716539587

>  <r_i_glide_energy>  (1) 
-24.263979386685726

>  <r_i_glide_erotb>  (1) 
0

>  <r_i_glide_esite>  (1) 
0

>  <r_i_glide_evdw>  (1) 
-23.333757782939809

>  <r_i_glide_gscore>  (1) 
-6.1471269383112945

>  <r_i_glide_gscore_strain>  (1) 
0

>  <r_i_glide_hbond>  (1) 
0

>  <r_i_glide_ligand_efficiency>  (1) 
-0.55882972166466316

>  <r_i_glide_ligand_efficiency_ln>  (1) 
-1.8090984108667854

>  <r_i_glide_ligand_efficiency_sa>  (1) 
-1.2428261750006031

>  <r_i_glide_lipo>  (1) 
-2.285160974238623

>  <r_i_glide_metal>  (1) 
-0

>  <r_i_glide_rewards>  (1) 
-2.5557448343637934

>  <r_lp_Energy>  (1) 
14.639571

>  <r_lp_tautomer_probability>  (1) 
1

>  <s_epik_cmdline>  (1) 
J2VwaWtfcHl0aG9uJywgJy1waHQnLCAnMS4wJywgJy1waCcsICc3LjQnLCAnLXRuJywgJzgnLCAnLW1hJywgJzUwMCcsICctaW1hZScsICc8aW5maWxlLm1hZT4nLCAnLW9tYWUnLCAnPG91dGZpbGUubWFlPic=

>  <s_epik_input>  (1) 
bzFbY0hdW2NIXWMoYzEyKVtjSF1jKE9bQ0gzXSlbY0hdW2NIXTI=

>  <s_glide_docking_method>  (1) 
confgen

>  <s_i_glide_gridfile>  (1) 
gpcr_drd2_6luq_protein_autoprepared_prepared

>  <s_lp_Force_Field>  (1) 
S-OPLS

>  <s_lp_Variant>  (1) 
Pocket2Mol_63-1

>  <s_m_source_file>  (1) 
generated_generic_title2_ligand_Pocket2Mol_2026-06-23_prepared.sdf

>  <GenAI_Model>  (1) 
Pocket2Mol

>  <Protein>  (1) 
generic_title2

$$$$
Pocket2Mol_83
     RDKit          3D

  0  0  0  0  0  0  0  0  0  0999 V3000
M  V30 BEGIN CTAB
M  V30 COUNTS 21 22 0 0 1
M  V30 BEGIN ATOM
M  V30 1 C 11.405752 9.030266 -5.727077 0
M  V30 2 O 12.185907 9.191377 -6.924718 0
M  V30 3 C 11.588691 8.465711 -7.916269 0
M  V30 4 C 10.494645 7.747155 -7.473134 0
M  V30 5 C 9.736447 6.933677 -8.331735 0
M  V30 6 C 10.305736 7.980590 -6.014577 0
M  V30 7 C 11.987004 8.400493 -9.260317 0
M  V30 8 C 10.106169 6.853525 -9.701327 0
M  V30 9 N 9.380442 6.038737 -10.597706 0
M  V30 10 C 11.240795 7.590927 -10.145926 0
M  V30 11 O 8.121504 5.589825 -10.179287 0
M  V30 12 O 9.593498 6.248089 -11.965874 0
M  V30 13 H 10.960864 9.991734 -5.468407 0
M  V30 14 H 12.042107 8.724802 -4.896074 0
M  V30 15 H 8.892887 6.388112 -7.935967 0
M  V30 16 H 9.305730 8.357466 -5.798168 0
M  V30 17 H 10.471082 7.055757 -5.461254 0
M  V30 18 H 12.843968 8.957561 -9.608922 0
M  V30 19 H 11.557524 7.545664 -11.177080 0
M  V30 20 H 7.624828 6.369405 -9.982440 0
M  V30 21 H 10.065231 5.487896 -12.270439 0
M  V30 END ATOM
M  V30 BEGIN BOND
M  V30 1 1 2 1
M  V30 2 1 3 2
M  V30 3 2 4 3
M  V30 4 1 5 4
M  V30 5 1 6 1
M  V30 6 1 6 4
M  V30 7 1 7 3
M  V30 8 2 8 5
M  V30 9 1 9 8
M  V30 10 2 10 7
M  V30 11 1 10 8
M  V30 12 1 11 9
M  V30 13 1 12 9
M  V30 14 1 13 1
M  V30 15 1 14 1
M  V30 16 1 15 5
M  V30 17 1 16 6
M  V30 18 1 17 6
M  V30 19 1 18 7
M  V30 20 1 19 10
M  V30 21 1 20 11
M  V30 22 1 21 12
M  V30 END BOND
M  V30 END CTAB
M  END
>  <i_epik_Tot_Q>  (1) 
0

>  <i_epik_Tot_abs_Q>  (1) 
0

>  <i_i_glide_confnum>  (1) 
1

>  <i_i_glide_lignum>  (1) 
90

>  <i_i_glide_posenum>  (1) 
143

>  <i_i_glide_rotatable_bonds>  (1) 
3

>  <i_lp_mmshare_version>  (1) 
72125

>  <i_m_source_file_index>  (1) 
84

>  <i_f3d_flags>  (1) 
0

>  <num_sample>  (1) 
100

>  <b_lp_Chiralities_Consistent>  (1) 
1

>  <r_epik_Charging_Adjusted_Penalty>  (1) 
0

>  <r_epik_Ionization_Penalty>  (1) 
0.00063218327523872333

>  <r_epik_Ionization_Penalty_Charging>  (1) 
0

>  <r_epik_Ionization_Penalty_Neutral>  (1) 
0.00063218327523872333

>  <r_epik_State_Penalty>  (1) 
-0

>  <r_glide_ring_energy>  (1) 
0

>  <r_i_docking_score>  (1) 
-6.1450472395218991

>  <r_i_glide_ecoul>  (1) 
-4.9643687485970833

>  <r_i_glide_eff_state_penalty>  (1) 
-0

>  <r_i_glide_einternal>  (1) 
0.46183134686467175

>  <r_i_glide_emodel>  (1) 
-38.512644885712149

>  <r_i_glide_emodel_strain>  (1) 
0.049570011794244806

>  <r_i_glide_energy>  (1) 
-26.43223469233476

>  <r_i_glide_erotb>  (1) 
0

>  <r_i_glide_esite>  (1) 
-0.053192899825694584

>  <r_i_glide_evdw>  (1) 
-21.467865943737678

>  <r_i_glide_gscore>  (1) 
-6.1450472395218991

>  <r_i_glide_gscore_strain>  (1) 
0

>  <r_i_glide_hbond>  (1) 
-0.16

>  <r_i_glide_ligand_efficiency>  (1) 
-0.5120872699601583

>  <r_i_glide_ligand_efficiency_ln>  (1) 
-1.7633319503395377

>  <r_i_glide_ligand_efficiency_sa>  (1) 
-1.1723871827072925

>  <r_i_glide_lipo>  (1) 
-1.244124903077215

>  <r_i_glide_metal>  (1) 
-0

>  <r_i_glide_rewards>  (1) 
-2.8696808271425427

>  <r_lp_Energy>  (1) 
14.636832

>  <r_lp_tautomer_probability>  (1) 
1

>  <s_epik_Chemistry_Notes>  (1) 
This compound has a N-S or N-O group and may undergo hydrolysis at high or low pH.

>  <s_epik_cmdline>  (1) 
J2VwaWtfcHl0aG9uJywgJy1waHQnLCAnMS4wJywgJy1waCcsICc3LjQnLCAnLXRuJywgJzgnLCAnLW1hJywgJzUwMCcsICctaW1hZScsICc8aW5maWxlLm1hZT4nLCAnLW9tYWUnLCAnPG91dGZpbGUubWFlPic=

>  <s_epik_input>  (1) 
TzFbQ0gyXVtDSDJdYyhjMTIpW2NIXWMoTihbT0hdKVtPSF0pW2NIXVtjSF0y

>  <s_glide_docking_method>  (1) 
confgen

>  <s_i_glide_gridfile>  (1) 
gpcr_drd2_6luq_protein_autoprepared_prepared

>  <s_lp_Force_Field>  (1) 
S-OPLS

>  <s_lp_Variant>  (1) 
Pocket2Mol_83-1

>  <s_m_source_file>  (1) 
generated_generic_title2_ligand_Pocket2Mol_2026-06-23_prepared.sdf

>  <GenAI_Model>  (1) 
Pocket2Mol

>  <Protein>  (1) 
generic_title2

$$$$
Pocket2Mol_62
     RDKit          3D

  0  0  0  0  0  0  0  0  0  0999 V3000
M  V30 BEGIN CTAB
M  V30 COUNTS 21 22 0 0 1
M  V30 BEGIN ATOM
M  V30 1 C 12.584284 8.424474 -2.093462 0
M  V30 2 O 12.202148 7.109269 -2.647139 0
M  V30 3 C 11.775425 7.444852 -3.886147 0
M  V30 4 C 11.883061 8.746696 -4.210915 0
M  V30 5 C 11.473531 9.232149 -5.466341 0
M  V30 6 C 10.929579 8.327482 -6.407004 0
M  V30 7 O 10.525641 8.790227 -7.642731 0
M  V30 8 C 12.445711 9.590297 -3.167564 0
M  V30 9 C 11.238387 6.516350 -4.783597 0
M  V30 10 C 10.809760 6.950935 -6.056305 0
M  V30 11 C 9.914483 7.890127 -8.558786 0
M  V30 12 H 13.599794 8.390308 -1.702540 0
M  V30 13 H 11.933654 8.638773 -1.244572 0
M  V30 14 H 11.572023 10.280134 -5.708258 0
M  V30 15 H 13.402905 9.990088 -3.493971 0
M  V30 16 H 11.753969 10.371391 -2.847666 0
M  V30 17 H 11.148986 5.487224 -4.502353 0
M  V30 18 H 10.393635 6.238088 -6.750240 0
M  V30 19 H 9.615342 8.433973 -9.454096 0
M  V30 20 H 10.610597 7.109342 -8.866934 0
M  V30 21 H 9.017471 7.431915 -8.139980 0
M  V30 END ATOM
M  V30 BEGIN BOND
M  V30 1 1 2 1
M  V30 2 1 3 2
M  V30 3 2 4 3
M  V30 4 1 5 4
M  V30 5 2 6 5
M  V30 6 1 7 6
M  V30 7 1 8 1
M  V30 8 1 8 4
M  V30 9 1 9 3
M  V30 10 1 10 6
M  V30 11 2 10 9
M  V30 12 1 11 7
M  V30 13 1 12 1
M  V30 14 1 13 1
M  V30 15 1 14 5
M  V30 16 1 15 8
M  V30 17 1 16 8
M  V30 18 1 17 9
M  V30 19 1 18 10
M  V30 20 1 19 11
M  V30 21 1 20 11
M  V30 22 1 21 11
M  V30 END BOND
M  V30 END CTAB
M  END
>  <i_epik_Tot_Q>  (1) 
0

>  <i_epik_Tot_abs_Q>  (1) 
0

>  <i_i_glide_confnum>  (1) 
1

>  <i_i_glide_lignum>  (1) 
69

>  <i_i_glide_posenum>  (1) 
93

>  <i_i_glide_rotatable_bonds>  (1) 
1

>  <i_lp_mmshare_version>  (1) 
72125

>  <i_m_source_file_index>  (1) 
63

>  <i_f3d_flags>  (1) 
0

>  <num_sample>  (1) 
100

>  <b_lp_Chiralities_Consistent>  (1) 
1

>  <r_epik_Charging_Adjusted_Penalty>  (1) 
0

>  <r_epik_Ionization_Penalty>  (1) 
0

>  <r_epik_Ionization_Penalty_Charging>  (1) 
0

>  <r_epik_Ionization_Penalty_Neutral>  (1) 
0

>  <r_epik_State_Penalty>  (1) 
-0

>  <r_glide_ring_energy>  (1) 
0

>  <r_i_docking_score>  (1) 
-6.1449659593996682

>  <r_i_glide_ecoul>  (1) 
-1.4065950372031575

>  <r_i_glide_eff_state_penalty>  (1) 
-0

>  <r_i_glide_einternal>  (1) 
0.025869788019345252

>  <r_i_glide_emodel>  (1) 
-29.814712985678948

>  <r_i_glide_emodel_strain>  (1) 
0

>  <r_i_glide_energy>  (1) 
-20.871521855296077

>  <r_i_glide_erotb>  (1) 
0

>  <r_i_glide_esite>  (1) 
0

>  <r_i_glide_evdw>  (1) 
-19.46492681809292

>  <r_i_glide_gscore>  (1) 
-6.1449659593996682

>  <r_i_glide_gscore_strain>  (1) 
0

>  <r_i_glide_hbond>  (1) 
0

>  <r_i_glide_ligand_efficiency>  (1) 
-0.55863326903633348

>  <r_i_glide_ligand_efficiency_ln>  (1) 
-1.8084624351411867

>  <r_i_glide_ligand_efficiency_sa>  (1) 
-1.2423892682664579

>  <r_i_glide_lipo>  (1) 
-2.3544016764464759

>  <r_i_glide_metal>  (1) 
-0

>  <r_i_glide_rewards>  (1) 
-2.6063286864680735

>  <r_lp_Energy>  (1) 
15.977421

>  <r_lp_tautomer_probability>  (1) 
1

>  <s_epik_cmdline>  (1) 
J2VwaWtfcHl0aG9uJywgJy1waHQnLCAnMS4wJywgJy1waCcsICc3LjQnLCAnLXRuJywgJzgnLCAnLW1hJywgJzUwMCcsICctaW1hZScsICc8aW5maWxlLm1hZT4nLCAnLW9tYWUnLCAnPG91dGZpbGUubWFlPic=

>  <s_epik_input>  (1) 
TzFbQ0gyXVtDSDJdYyhjMTIpW2NIXWMoT1tDSDNdKVtjSF1bY0hdMg==

>  <s_glide_docking_method>  (1) 
confgen

>  <s_i_glide_gridfile>  (1) 
gpcr_drd2_6luq_protein_autoprepared_prepared

>  <s_lp_Force_Field>  (1) 
S-OPLS

>  <s_lp_Variant>  (1) 
Pocket2Mol_62-1

>  <s_m_source_file>  (1) 
generated_generic_title2_ligand_Pocket2Mol_2026-06-23_prepared.sdf

>  <GenAI_Model>  (1) 
Pocket2Mol

>  <Protein>  (1) 
generic_title2

$$$$
Pocket2Mol_65
     RDKit          3D

  0  0  0  0  0  0  0  0  0  0999 V3000
M  V30 BEGIN CTAB
M  V30 COUNTS 18 19 0 0 1
M  V30 BEGIN ATOM
M  V30 1 C 9.775390 7.984317 -8.388535 0
M  V30 2 O 10.804186 8.790273 -7.844629 0
M  V30 3 C 11.175325 8.447908 -6.569267 0
M  V30 4 C 11.775836 9.410825 -5.732645 0
M  V30 5 C 10.208793 6.525486 -8.265671 0
M  V30 6 C 10.958901 7.130289 -6.090157 0
M  V30 7 O 10.366429 6.180660 -6.895043 0
M  V30 8 C 11.347238 6.790293 -4.781086 0
M  V30 9 C 11.946469 7.755538 -3.947320 0
M  V30 10 F 12.317699 7.423375 -2.687944 0
M  V30 11 C 12.159311 9.065740 -4.421292 0
M  V30 12 H 9.610544 8.261728 -9.430038 0
M  V30 13 H 8.844507 8.161935 -7.851411 0
M  V30 14 H 11.941034 10.414296 -6.097111 0
M  V30 15 H 11.154424 6.378868 -8.785187 0
M  V30 16 H 9.471288 5.864581 -8.723226 0
M  V30 17 H 11.183303 5.787621 -4.415231 0
M  V30 18 H 12.618831 9.803597 -3.780401 0
M  V30 END ATOM
M  V30 BEGIN BOND
M  V30 1 1 2 1
M  V30 2 1 3 2
M  V30 3 1 4 3
M  V30 4 1 5 1
M  V30 5 2 6 3
M  V30 6 1 7 5
M  V30 7 1 7 6
M  V30 8 1 8 6
M  V30 9 2 9 8
M  V30 10 1 10 9
M  V30 11 2 11 4
M  V30 12 1 11 9
M  V30 13 1 12 1
M  V30 14 1 13 1
M  V30 15 1 14 4
M  V30 16 1 15 5
M  V30 17 1 16 5
M  V30 18 1 17 8
M  V30 19 1 18 11
M  V30 END BOND
M  V30 END CTAB
M  END
>  <i_epik_Tot_Q>  (1) 
0

>  <i_epik_Tot_abs_Q>  (1) 
0

>  <i_i_glide_confnum>  (1) 
1

>  <i_i_glide_lignum>  (1) 
72

>  <i_i_glide_posenum>  (1) 
12

>  <i_i_glide_rotatable_bonds>  (1) 
0

>  <i_lp_mmshare_version>  (1) 
72125

>  <i_m_source_file_index>  (1) 
66

>  <i_f3d_flags>  (1) 
0

>  <num_sample>  (1) 
100

>  <b_lp_Chiralities_Consistent>  (1) 
1

>  <r_epik_Charging_Adjusted_Penalty>  (1) 
0

>  <r_epik_Ionization_Penalty>  (1) 
0

>  <r_epik_Ionization_Penalty_Charging>  (1) 
0

>  <r_epik_Ionization_Penalty_Neutral>  (1) 
0

>  <r_epik_State_Penalty>  (1) 
-0

>  <r_glide_ring_energy>  (1) 
0

>  <r_i_docking_score>  (1) 
-6.1337775758482476

>  <r_i_glide_ecoul>  (1) 
-0.76368102316919506

>  <r_i_glide_eff_state_penalty>  (1) 
-0

>  <r_i_glide_einternal>  (1) 
0

>  <r_i_glide_emodel>  (1) 
-28.793798917698062

>  <r_i_glide_emodel_strain>  (1) 
0

>  <r_i_glide_energy>  (1) 
-20.100572617398626

>  <r_i_glide_erotb>  (1) 
0

>  <r_i_glide_esite>  (1) 
0

>  <r_i_glide_evdw>  (1) 
-19.336891594229431

>  <r_i_glide_gscore>  (1) 
-6.1337775758482476

>  <r_i_glide_gscore_strain>  (1) 
0

>  <r_i_glide_hbond>  (1) 
0

>  <r_i_glide_ligand_efficiency>  (1) 
-0.55761614325893161

>  <r_i_glide_ligand_efficiency_ln>  (1) 
-1.8051696957677903

>  <r_i_glide_ligand_efficiency_sa>  (1) 
-1.2401272007879112

>  <r_i_glide_lipo>  (1) 
-1.6764183027948552

>  <r_i_glide_metal>  (1) 
-0

>  <r_i_glide_rewards>  (1) 
-3.375962539866542

>  <r_lp_Energy>  (1) 
15.305638999999999

>  <r_lp_tautomer_probability>  (1) 
1

>  <s_epik_cmdline>  (1) 
J2VwaWtfcHl0aG9uJywgJy1waHQnLCAnMS4wJywgJy1waCcsICc3LjQnLCAnLXRuJywgJzgnLCAnLW1hJywgJzUwMCcsICctaW1hZScsICc8aW5maWxlLm1hZT4nLCAnLW9tYWUnLCAnPG91dGZpbGUubWFlPic=

>  <s_epik_input>  (1) 
TzFbQ0gyXVtDSDJdT2MoYzEyKVtjSF1jKEYpW2NIXVtjSF0y

>  <s_glide_docking_method>  (1) 
confgen

>  <s_i_glide_gridfile>  (1) 
gpcr_drd2_6luq_protein_autoprepared_prepared

>  <s_lp_Force_Field>  (1) 
S-OPLS

>  <s_lp_Variant>  (1) 
Pocket2Mol_65-1

>  <s_m_source_file>  (1) 
generated_generic_title2_ligand_Pocket2Mol_2026-06-23_prepared.sdf

>  <GenAI_Model>  (1) 
Pocket2Mol

>  <Protein>  (1) 
generic_title2

$$$$
Pocket2Mol_60
     RDKit          3D

  0  0  0  0  0  0  0  0  0  0999 V3000
M  V30 BEGIN CTAB
M  V30 COUNTS 19 20 0 0 1
M  V30 BEGIN ATOM
M  V30 1 C 9.495793 7.332643 -7.185028 0
M  V30 2 O 10.201601 6.531473 -6.250278 0
M  V30 3 C 10.975410 7.229228 -5.351148 0
M  V30 4 C 10.481725 8.325495 -7.802615 0
M  V30 5 O 10.973498 9.190224 -6.783877 0
M  V30 6 C 11.359802 8.570295 -5.617026 0
M  V30 7 C 11.386912 6.607441 -4.158761 0
M  V30 8 C 12.175410 7.312411 -3.226188 0
M  V30 9 C 12.141168 9.273053 -4.679763 0
M  V30 10 O 12.570726 6.704191 -2.071489 0
M  V30 11 C 12.549628 8.645739 -3.485345 0
M  V30 12 H 9.062711 6.691519 -7.953245 0
M  V30 13 H 8.670339 7.850296 -6.693061 0
M  V30 14 H 11.312387 7.803423 -8.279748 0
M  V30 15 H 9.986430 8.915525 -8.573549 0
M  V30 16 H 11.095117 5.590228 -3.958540 0
M  V30 17 H 12.429720 10.292488 -4.879484 0
M  V30 18 H 12.225010 5.827976 -1.977143 0
M  V30 19 H 13.150786 9.187628 -2.768980 0
M  V30 END ATOM
M  V30 BEGIN BOND
M  V30 1 1 2 1
M  V30 2 1 3 2
M  V30 3 1 4 1
M  V30 4 1 5 4
M  V30 5 2 6 3
M  V30 6 1 6 5
M  V30 7 1 7 3
M  V30 8 2 8 7
M  V30 9 1 9 6
M  V30 10 1 10 8
M  V30 11 1 11 8
M  V30 12 2 11 9
M  V30 13 1 12 1
M  V30 14 1 13 1
M  V30 15 1 14 4
M  V30 16 1 15 4
M  V30 17 1 16 7
M  V30 18 1 17 9
M  V30 19 1 18 10
M  V30 20 1 19 11
M  V30 END BOND
M  V30 END CTAB
M  END
>  <i_epik_Tot_Q>  (1) 
0

>  <i_epik_Tot_abs_Q>  (1) 
0

>  <i_i_glide_confnum>  (1) 
2

>  <i_i_glide_lignum>  (1) 
67

>  <i_i_glide_posenum>  (1) 
393

>  <i_i_glide_rotatable_bonds>  (1) 
1

>  <i_lp_mmshare_version>  (1) 
72125

>  <i_m_source_file_index>  (1) 
61

>  <i_f3d_flags>  (1) 
0

>  <num_sample>  (1) 
100

>  <b_lp_Chiralities_Consistent>  (1) 
1

>  <r_epik_Charging_Adjusted_Penalty>  (1) 
0

>  <r_epik_Ionization_Penalty>  (1) 
0.0014130578134093086

>  <r_epik_Ionization_Penalty_Charging>  (1) 
0

>  <r_epik_Ionization_Penalty_Neutral>  (1) 
0.0014130578134093086

>  <r_epik_State_Penalty>  (1) 
-0

>  <r_glide_ring_energy>  (1) 
0.0030884842251178704

>  <r_i_docking_score>  (1) 
-6.1330629561192787

>  <r_i_glide_ecoul>  (1) 
-2.2769464744296752

>  <r_i_glide_eff_state_penalty>  (1) 
-0

>  <r_i_glide_einternal>  (1) 
0.004119126084664082

>  <r_i_glide_emodel>  (1) 
-34.052988314505143

>  <r_i_glide_emodel_strain>  (1) 
0

>  <r_i_glide_energy>  (1) 
-24.57678113223368

>  <r_i_glide_erotb>  (1) 
0

>  <r_i_glide_esite>  (1) 
0

>  <r_i_glide_evdw>  (1) 
-22.299834657804006

>  <r_i_glide_gscore>  (1) 
-6.1330629561192787

>  <r_i_glide_gscore_strain>  (1) 
0

>  <r_i_glide_hbond>  (1) 
0

>  <r_i_glide_ligand_efficiency>  (1) 
-0.5575511778290253

>  <r_i_glide_ligand_efficiency_ln>  (1) 
-1.8049593833032804

>  <r_i_glide_ligand_efficiency_sa>  (1) 
-1.2399827189652244

>  <r_i_glide_lipo>  (1) 
-1.8750651752942298

>  <r_i_glide_metal>  (1) 
-0

>  <r_i_glide_rewards>  (1) 
-2.8014640767703973

>  <r_lp_Energy>  (1) 
13.915925999999999

>  <r_lp_tautomer_probability>  (1) 
1

>  <s_epik_cmdline>  (1) 
J2VwaWtfcHl0aG9uJywgJy1waHQnLCAnMS4wJywgJy1waCcsICc3LjQnLCAnLXRuJywgJzgnLCAnLW1hJywgJzUwMCcsICctaW1hZScsICc8aW5maWxlLm1hZT4nLCAnLW9tYWUnLCAnPG91dGZpbGUubWFlPic=

>  <s_epik_input>  (1) 
TzFbQ0gyXVtDSDJdT2MoYzEyKVtjSF1bY0hdYyhbY0hdMilbT0hd

>  <s_glide_docking_method>  (1) 
confgen

>  <s_i_glide_gridfile>  (1) 
gpcr_drd2_6luq_protein_autoprepared_prepared

>  <s_lp_Force_Field>  (1) 
S-OPLS

>  <s_lp_Variant>  (1) 
Pocket2Mol_60-1

>  <s_m_source_file>  (1) 
generated_generic_title2_ligand_Pocket2Mol_2026-06-23_prepared.sdf

>  <GenAI_Model>  (1) 
Pocket2Mol

>  <Protein>  (1) 
generic_title2

$$$$
Pocket2Mol_69
     RDKit          3D

  0  0  0  0  0  0  0  0  0  0999 V3000
M  V30 BEGIN CTAB
M  V30 COUNTS 18 19 0 0 1
M  V30 BEGIN ATOM
M  V30 1 C 9.777406 6.116420 -8.345552 0
M  V30 2 O 10.243360 5.990259 -6.982411 0
M  V30 3 C 10.837835 7.049699 -6.305252 0
M  V30 4 C 11.125370 8.262992 -6.975809 0
M  V30 5 C 11.732500 9.327378 -6.275915 0
M  V30 6 C 11.166535 6.908606 -4.942080 0
M  V30 7 C 11.775410 7.973092 -4.247556 0
M  V30 8 C 10.790930 8.390902 -8.376015 0
M  V30 9 F 12.097527 7.832207 -2.939055 0
M  V30 10 C 10.175406 7.408907 -9.023234 0
M  V30 11 C 12.054351 9.182274 -4.912510 0
M  V30 12 H 8.690203 6.035529 -8.359990 0
M  V30 13 H 10.173644 5.279855 -8.920257 0
M  V30 14 H 11.950897 10.253634 -6.785000 0
M  V30 15 H 10.952777 5.982851 -4.428949 0
M  V30 16 H 11.054443 9.307336 -8.881900 0
M  V30 17 H 9.927312 7.516275 -10.069311 0
M  V30 18 H 12.521726 9.990430 -4.377789 0
M  V30 END ATOM
M  V30 BEGIN BOND
M  V30 1 1 2 1
M  V30 2 1 3 2
M  V30 3 2 4 3
M  V30 4 1 5 4
M  V30 5 1 6 3
M  V30 6 2 7 6
M  V30 7 1 8 4
M  V30 8 1 9 7
M  V30 9 1 10 1
M  V30 10 2 10 8
M  V30 11 2 11 5
M  V30 12 1 11 7
M  V30 13 1 12 1
M  V30 14 1 13 1
M  V30 15 1 14 5
M  V30 16 1 15 6
M  V30 17 1 16 8
M  V30 18 1 17 10
M  V30 19 1 18 11
M  V30 END BOND
M  V30 END CTAB
M  END
>  <i_epik_Tot_Q>  (1) 
0

>  <i_epik_Tot_abs_Q>  (1) 
0

>  <i_i_glide_confnum>  (1) 
1

>  <i_i_glide_lignum>  (1) 
76

>  <i_i_glide_posenum>  (1) 
79

>  <i_i_glide_rotatable_bonds>  (1) 
0

>  <i_lp_mmshare_version>  (1) 
72125

>  <i_m_source_file_index>  (1) 
70

>  <i_f3d_flags>  (1) 
0

>  <num_sample>  (1) 
100

>  <b_lp_Chiralities_Consistent>  (1) 
1

>  <r_epik_Charging_Adjusted_Penalty>  (1) 
0

>  <r_epik_Ionization_Penalty>  (1) 
0

>  <r_epik_Ionization_Penalty_Charging>  (1) 
0

>  <r_epik_Ionization_Penalty_Neutral>  (1) 
0

>  <r_epik_State_Penalty>  (1) 
-0

>  <r_glide_ring_energy>  (1) 
0

>  <r_i_docking_score>  (1) 
-6.1247215363574048

>  <r_i_glide_ecoul>  (1) 
-0.079930418923210844

>  <r_i_glide_eff_state_penalty>  (1) 
-0

>  <r_i_glide_einternal>  (1) 
0

>  <r_i_glide_emodel>  (1) 
-27.489524200315241

>  <r_i_glide_emodel_strain>  (1) 
0

>  <r_i_glide_energy>  (1) 
-19.629583418319246

>  <r_i_glide_erotb>  (1) 
0

>  <r_i_glide_esite>  (1) 
0

>  <r_i_glide_evdw>  (1) 
-19.549652999396034

>  <r_i_glide_gscore>  (1) 
-6.1247215363574048

>  <r_i_glide_gscore_strain>  (1) 
0

>  <r_i_glide_hbond>  (1) 
0

>  <r_i_glide_ligand_efficiency>  (1) 
-0.55679286694158225

>  <r_i_glide_ligand_efficiency_ln>  (1) 
-1.8025045048882067

>  <r_i_glide_ligand_efficiency_sa>  (1) 
-1.2382962506490891

>  <r_i_glide_lipo>  (1) 
-1.6600006242829564

>  <r_i_glide_metal>  (1) 
-0

>  <r_i_glide_rewards>  (1) 
-3.4752486992661642

>  <r_lp_Energy>  (1) 
13.322941

>  <r_lp_tautomer_probability>  (1) 
1

>  <s_epik_cmdline>  (1) 
J2VwaWtfcHl0aG9uJywgJy1waHQnLCAnMS4wJywgJy1waCcsICc3LjQnLCAnLXRuJywgJzgnLCAnLW1hJywgJzUwMCcsICctaW1hZScsICc8aW5maWxlLm1hZT4nLCAnLW9tYWUnLCAnPG91dGZpbGUubWFlPic=

>  <s_epik_input>  (1) 
TzFbQ0gyXVtDSF09W0NIXWMoYzEyKVtjSF1bY0hdYyhGKVtjSF0y

>  <s_glide_docking_method>  (1) 
confgen

>  <s_i_glide_gridfile>  (1) 
gpcr_drd2_6luq_protein_autoprepared_prepared

>  <s_lp_Force_Field>  (1) 
S-OPLS

>  <s_lp_Variant>  (1) 
Pocket2Mol_69-1

>  <s_m_source_file>  (1) 
generated_generic_title2_ligand_Pocket2Mol_2026-06-23_prepared.sdf

>  <GenAI_Model>  (1) 
Pocket2Mol

>  <Protein>  (1) 
generic_title2

$$$$
Pocket2Mol_81
     RDKit          3D

  0  0  0  0  0  0  0  0  0  0999 V3000
M  V30 BEGIN CTAB
M  V30 COUNTS 20 21 0 0 1
M  V30 BEGIN ATOM
M  V30 1 C 5.969623 6.249152 -16.751179 0
M  V30 2 O 7.191734 5.678002 -16.299604 0
M  V30 3 C 7.427407 5.765681 -14.943943 0
M  V30 4 C 5.770391 7.618225 -16.102841 0
M  V30 5 O 5.698330 7.451736 -14.699096 0
M  V30 6 C 6.673572 6.657488 -14.137526 0
M  V30 7 C 6.921781 6.732893 -12.751704 0
M  V30 8 O 6.192184 7.590161 -11.985024 0
M  V30 9 C 8.426853 4.965753 -14.356689 0
M  V30 10 C 7.925507 5.923853 -12.164810 0
M  V30 11 O 8.175246 5.990149 -10.816667 0
M  V30 12 C 8.675436 5.043908 -12.970835 0
M  V30 13 H 5.137085 5.590227 -16.506105 0
M  V30 14 H 5.997683 6.342789 -17.836640 0
M  V30 15 H 4.842081 8.073914 -16.447418 0
M  V30 16 H 6.575355 8.306185 -16.355482 0
M  V30 17 H 6.428071 7.614131 -11.055417 0
M  V30 18 H 9.003198 4.289168 -14.969651 0
M  V30 19 H 7.694606 6.646991 -10.311054 0
M  V30 20 H 9.443148 4.426898 -12.525797 0
M  V30 END ATOM
M  V30 BEGIN BOND
M  V30 1 1 2 1
M  V30 2 1 3 2
M  V30 3 1 4 1
M  V30 4 1 5 4
M  V30 5 2 6 3
M  V30 6 1 6 5
M  V30 7 1 7 6
M  V30 8 1 8 7
M  V30 9 1 9 3
M  V30 10 2 10 7
M  V30 11 1 11 10
M  V30 12 2 12 9
M  V30 13 1 12 10
M  V30 14 1 13 1
M  V30 15 1 14 1
M  V30 16 1 15 4
M  V30 17 1 16 4
M  V30 18 1 17 8
M  V30 19 1 18 9
M  V30 20 1 19 11
M  V30 21 1 20 12
M  V30 END BOND
M  V30 END CTAB
M  END
>  <i_epik_Tot_Q>  (1) 
0

>  <i_epik_Tot_abs_Q>  (1) 
0

>  <i_i_glide_confnum>  (1) 
2

>  <i_i_glide_lignum>  (1) 
88

>  <i_i_glide_posenum>  (1) 
197

>  <i_i_glide_rotatable_bonds>  (1) 
2

>  <i_lp_mmshare_version>  (1) 
72125

>  <i_m_source_file_index>  (1) 
82

>  <i_f3d_flags>  (1) 
0

>  <num_sample>  (1) 
100

>  <b_lp_Chiralities_Consistent>  (1) 
1

>  <r_epik_Charging_Adjusted_Penalty>  (1) 
0.0036846811785224438

>  <r_epik_Ionization_Penalty>  (1) 
0.0053862680964110767

>  <r_epik_Ionization_Penalty_Charging>  (1) 
0

>  <r_epik_Ionization_Penalty_Neutral>  (1) 
0.0053862680964110767

>  <r_epik_State_Penalty>  (1) 
0.0036846811785224438

>  <r_glide_ring_energy>  (1) 
0.0030853077569594689

>  <r_i_docking_score>  (1) 
-6.1222924720274001

>  <r_i_glide_ecoul>  (1) 
-9.5038054950151096

>  <r_i_glide_eff_state_penalty>  (1) 
0.0036846811785224438

>  <r_i_glide_einternal>  (1) 
0.050190233173111665

>  <r_i_glide_emodel>  (1) 
-35.383225011638984

>  <r_i_glide_emodel_strain>  (1) 
0

>  <r_i_glide_energy>  (1) 
-24.469698525560624

>  <r_i_glide_erotb>  (1) 
0

>  <r_i_glide_esite>  (1) 
0

>  <r_i_glide_evdw>  (1) 
-14.965893030545514

>  <r_i_glide_gscore>  (1) 
-6.1259771532059224

>  <r_i_glide_gscore_strain>  (1) 
0

>  <r_i_glide_hbond>  (1) 
-0.30399999999999999

>  <r_i_glide_ligand_efficiency>  (1) 
-0.51019103933561671

>  <r_i_glide_ligand_efficiency_ln>  (1) 
-1.7568024303893024

>  <r_i_glide_ligand_efficiency_sa>  (1) 
-1.1680458983011353

>  <r_i_glide_lipo>  (1) 
-1.0301490171122796

>  <r_i_glide_metal>  (1) 
-0

>  <r_i_glide_rewards>  (1) 
-2.6179626603141006

>  <r_lp_Energy>  (1) 
18.638769

>  <r_lp_tautomer_probability>  (1) 
0.99999998461580031

>  <s_epik_cmdline>  (1) 
J2VwaWtfcHl0aG9uJywgJy1waHQnLCAnMS4wJywgJy1waCcsICc3LjQnLCAnLXRuJywgJzgnLCAnLW1hJywgJzUwMCcsICctaW1hZScsICc8aW5maWxlLm1hZT4nLCAnLW9tYWUnLCAnPG91dGZpbGUubWFlPic=

>  <s_epik_input>  (1) 
TzFbQ0gyXVtDSDJdT2MoYzEyKWMoW09IXSljKFtPSF0pW2NIXVtjSF0y

>  <s_glide_docking_method>  (1) 
confgen

>  <s_i_glide_gridfile>  (1) 
gpcr_drd2_6luq_protein_autoprepared_prepared

>  <s_lp_Force_Field>  (1) 
S-OPLS

>  <s_lp_Variant>  (1) 
Pocket2Mol_81-1

>  <s_m_source_file>  (1) 
generated_generic_title2_ligand_Pocket2Mol_2026-06-23_prepared.sdf

>  <GenAI_Model>  (1) 
Pocket2Mol

>  <Protein>  (1) 
generic_title2

$$$$
Pocket2Mol_64
     RDKit          3D

  0  0  0  0  0  0  0  0  0  0999 V3000
M  V30 BEGIN CTAB
M  V30 COUNTS 16 17 0 0 1
M  V30 BEGIN ATOM
M  V30 1 C 12.174144 7.270978 -2.473667 0
M  V30 2 O 11.598145 6.588321 -3.512653 0
M  V30 3 C 11.375439 7.279326 -4.682563 0
M  V30 4 C 11.743310 8.644944 -4.787571 0
M  V30 5 C 11.517551 9.337258 -5.993544 0
M  V30 6 C 10.783824 6.627040 -5.778203 0
M  V30 7 C 10.561545 7.321331 -6.978478 0
M  V30 8 O 12.321362 9.292152 -3.718268 0
M  V30 9 C 12.519777 8.567522 -2.571125 0
M  V30 10 F 11.865167 10.638499 -6.101083 0
M  V30 11 C 10.930296 8.670637 -7.089447 0
M  V30 12 H 12.305690 6.657976 -1.595271 0
M  V30 13 H 10.500990 5.590227 -5.698498 0
M  V30 14 H 10.107003 6.816279 -7.818212 0
M  V30 15 H 12.970826 9.151613 -1.781217 0
M  V30 16 H 10.760569 9.190380 -8.015879 0
M  V30 END ATOM
M  V30 BEGIN BOND
M  V30 1 1 2 1
M  V30 2 1 3 2
M  V30 3 1 4 3
M  V30 4 2 5 4
M  V30 5 2 6 3
M  V30 6 1 7 6
M  V30 7 1 8 4
M  V30 8 2 9 1
M  V30 9 1 9 8
M  V30 10 1 10 5
M  V30 11 1 11 5
M  V30 12 2 11 7
M  V30 13 1 12 1
M  V30 14 1 13 6
M  V30 15 1 14 7
M  V30 16 1 15 9
M  V30 17 1 16 11
M  V30 END BOND
M  V30 END CTAB
M  END
>  <i_epik_Tot_Q>  (1) 
0

>  <i_epik_Tot_abs_Q>  (1) 
0

>  <i_i_glide_confnum>  (1) 
1

>  <i_i_glide_lignum>  (1) 
71

>  <i_i_glide_posenum>  (1) 
276

>  <i_i_glide_rotatable_bonds>  (1) 
0

>  <i_lp_mmshare_version>  (1) 
72125

>  <i_m_source_file_index>  (1) 
65

>  <i_f3d_flags>  (1) 
0

>  <num_sample>  (1) 
100

>  <b_lp_Chiralities_Consistent>  (1) 
1

>  <r_epik_Charging_Adjusted_Penalty>  (1) 
0

>  <r_epik_Ionization_Penalty>  (1) 
0

>  <r_epik_Ionization_Penalty_Charging>  (1) 
0

>  <r_epik_Ionization_Penalty_Neutral>  (1) 
0

>  <r_epik_State_Penalty>  (1) 
-0

>  <r_glide_ring_energy>  (1) 
0

>  <r_i_docking_score>  (1) 
-6.1181608586064318

>  <r_i_glide_ecoul>  (1) 
-1.1392689206852868

>  <r_i_glide_eff_state_penalty>  (1) 
-0

>  <r_i_glide_einternal>  (1) 
0

>  <r_i_glide_emodel>  (1) 
-29.425676668479873

>  <r_i_glide_emodel_strain>  (1) 
0

>  <r_i_glide_energy>  (1) 
-21.485253419013951

>  <r_i_glide_erotb>  (1) 
0

>  <r_i_glide_esite>  (1) 
0

>  <r_i_glide_evdw>  (1) 
-20.345984498328665

>  <r_i_glide_gscore>  (1) 
-6.1181608586064318

>  <r_i_glide_gscore_strain>  (1) 
0

>  <r_i_glide_hbond>  (1) 
0

>  <r_i_glide_ligand_efficiency>  (1) 
-0.55619644169149385

>  <r_i_glide_ligand_efficiency_ln>  (1) 
-1.800573698543616

>  <r_i_glide_ligand_efficiency_sa>  (1) 
-1.2369698127673796

>  <r_i_glide_lipo>  (1) 
-2.0175247693317493

>  <r_i_glide_metal>  (1) 
-0

>  <r_i_glide_rewards>  (1) 
-2.9124465262554553

>  <r_lp_Energy>  (1) 
23.975801000000001

>  <r_lp_tautomer_probability>  (1) 
1

>  <s_epik_cmdline>  (1) 
J2VwaWtfcHl0aG9uJywgJy1waHQnLCAnMS4wJywgJy1waCcsICc3LjQnLCAnLXRuJywgJzgnLCAnLW1hJywgJzUwMCcsICctaW1hZScsICc8aW5maWxlLm1hZT4nLCAnLW9tYWUnLCAnPG91dGZpbGUubWFlPic=

>  <s_epik_input>  (1) 
TzFbQ0hdPVtDSF1PYyhjMTIpYyhGKVtjSF1bY0hdW2NIXTI=

>  <s_glide_docking_method>  (1) 
confgen

>  <s_i_glide_gridfile>  (1) 
gpcr_drd2_6luq_protein_autoprepared_prepared

>  <s_lp_Force_Field>  (1) 
S-OPLS

>  <s_lp_Variant>  (1) 
Pocket2Mol_64-1

>  <s_m_source_file>  (1) 
generated_generic_title2_ligand_Pocket2Mol_2026-06-23_prepared.sdf

>  <GenAI_Model>  (1) 
Pocket2Mol

>  <Protein>  (1) 
generic_title2

$$$$
Pocket2Mol_81
     RDKit          3D

  0  0  0  0  0  0  0  0  0  0999 V3000
M  V30 BEGIN CTAB
M  V30 COUNTS 20 21 0 0 1
M  V30 BEGIN ATOM
M  V30 1 C 11.690673 8.937228 -4.925273 0
M  V30 2 O 10.503698 8.690377 -5.655351 0
M  V30 3 C 10.671356 8.321381 -6.970281 0
M  V30 4 C 12.602104 9.824649 -5.765330 0
M  V30 5 O 12.936445 9.190227 -6.986508 0
M  V30 6 C 11.898070 8.569717 -7.641107 0
M  V30 7 C 12.053882 8.175147 -8.988966 0
M  V30 8 O 13.239166 8.390230 -9.633855 0
M  V30 9 C 9.617954 7.693361 -7.653611 0
M  V30 10 C 10.985053 7.556365 -9.668728 0
M  V30 11 O 11.121506 7.190285 -10.979603 0
M  V30 12 C 9.775418 7.312281 -8.999073 0
M  V30 13 H 12.175411 7.995505 -4.665755 0
M  V30 14 H 11.433676 9.436879 -3.990446 0
M  V30 15 H 13.531992 9.990224 -5.221791 0
M  V30 16 H 12.142694 10.793259 -5.965559 0
M  V30 17 H 13.740838 9.111474 -9.274224 0
M  V30 18 H 8.681391 7.503961 -7.146990 0
M  V30 19 H 10.328037 6.829263 -11.344539 0
M  V30 20 H 8.962275 6.831419 -9.517985 0
M  V30 END ATOM
M  V30 BEGIN BOND
M  V30 1 1 2 1
M  V30 2 1 3 2
M  V30 3 1 4 1
M  V30 4 1 5 4
M  V30 5 2 6 3
M  V30 6 1 6 5
M  V30 7 1 7 6
M  V30 8 1 8 7
M  V30 9 1 9 3
M  V30 10 2 10 7
M  V30 11 1 11 10
M  V30 12 2 12 9
M  V30 13 1 12 10
M  V30 14 1 13 1
M  V30 15 1 14 1
M  V30 16 1 15 4
M  V30 17 1 16 4
M  V30 18 1 17 8
M  V30 19 1 18 9
M  V30 20 1 19 11
M  V30 21 1 20 12
M  V30 END BOND
M  V30 END CTAB
M  END
>  <i_epik_Tot_Q>  (1) 
0

>  <i_epik_Tot_abs_Q>  (1) 
0

>  <i_i_glide_confnum>  (1) 
2

>  <i_i_glide_lignum>  (1) 
88

>  <i_i_glide_posenum>  (1) 
326

>  <i_i_glide_rotatable_bonds>  (1) 
2

>  <i_lp_mmshare_version>  (1) 
72125

>  <i_m_source_file_index>  (1) 
82

>  <i_f3d_flags>  (1) 
0

>  <num_sample>  (1) 
100

>  <b_lp_Chiralities_Consistent>  (1) 
1

>  <r_epik_Charging_Adjusted_Penalty>  (1) 
0.0036846811785224438

>  <r_epik_Ionization_Penalty>  (1) 
0.0053862680964110767

>  <r_epik_Ionization_Penalty_Charging>  (1) 
0

>  <r_epik_Ionization_Penalty_Neutral>  (1) 
0.0053862680964110767

>  <r_epik_State_Penalty>  (1) 
0.0036846811785224438

>  <r_glide_ring_energy>  (1) 
0.0030853077569594689

>  <r_i_docking_score>  (1) 
-6.1173221596730496

>  <r_i_glide_ecoul>  (1) 
-5.3513155096720828

>  <r_i_glide_eff_state_penalty>  (1) 
0.0036846811785224438

>  <r_i_glide_einternal>  (1) 
0.71617536571842799

>  <r_i_glide_emodel>  (1) 
-33.137536918865742

>  <r_i_glide_emodel_strain>  (1) 
0.11300249473167412

>  <r_i_glide_energy>  (1) 
-22.678880545841636

>  <r_i_glide_erotb>  (1) 
0

>  <r_i_glide_esite>  (1) 
0

>  <r_i_glide_evdw>  (1) 
-17.327565036169553

>  <r_i_glide_gscore>  (1) 
-6.1210068408515719

>  <r_i_glide_gscore_strain>  (1) 
0

>  <r_i_glide_hbond>  (1) 
-0.25385118271589724

>  <r_i_glide_ligand_efficiency>  (1) 
-0.5097768466394208

>  <r_i_glide_ligand_efficiency_ln>  (1) 
-1.7553761906492356

>  <r_i_glide_ligand_efficiency_sa>  (1) 
-1.1670976337441412

>  <r_i_glide_lipo>  (1) 
-1.4922224803867807

>  <r_i_glide_metal>  (1) 
-0

>  <r_i_glide_rewards>  (1) 
-2.7058575994896037

>  <r_lp_Energy>  (1) 
18.638769

>  <r_lp_tautomer_probability>  (1) 
0.99999998461580031

>  <s_epik_cmdline>  (1) 
J2VwaWtfcHl0aG9uJywgJy1waHQnLCAnMS4wJywgJy1waCcsICc3LjQnLCAnLXRuJywgJzgnLCAnLW1hJywgJzUwMCcsICctaW1hZScsICc8aW5maWxlLm1hZT4nLCAnLW9tYWUnLCAnPG91dGZpbGUubWFlPic=

>  <s_epik_input>  (1) 
TzFbQ0gyXVtDSDJdT2MoYzEyKWMoW09IXSljKFtPSF0pW2NIXVtjSF0y

>  <s_glide_docking_method>  (1) 
confgen

>  <s_i_glide_gridfile>  (1) 
gpcr_drd2_6luq_protein_autoprepared_prepared

>  <s_lp_Force_Field>  (1) 
S-OPLS

>  <s_lp_Variant>  (1) 
Pocket2Mol_81-1

>  <s_m_source_file>  (1) 
generated_generic_title2_ligand_Pocket2Mol_2026-06-23_prepared.sdf

>  <GenAI_Model>  (1) 
Pocket2Mol

>  <Protein>  (1) 
generic_title2

$$$$
Pocket2Mol_54
     RDKit          3D

  0  0  0  0  0  0  0  0  0  0999 V3000
M  V30 BEGIN CTAB
M  V30 COUNTS 18 19 0 0 1
M  V30 BEGIN ATOM
M  V30 1 C 10.210054 7.239251 -6.085993 0
M  V30 2 O 11.470277 7.926041 -6.429982 0
M  V30 3 C 11.470402 7.845196 -7.778080 0
M  V30 4 C 10.419906 7.201497 -8.325459 0
M  V30 5 C 10.287751 7.056652 -9.715359 0
M  V30 6 C 12.488630 8.390228 -8.578081 0
M  V30 7 C 12.399090 8.264282 -9.983011 0
M  V30 8 O 13.375410 8.790227 -10.785023 0
M  V30 9 C 11.289536 7.590227 -10.555793 0
M  V30 10 C 9.450799 6.677719 -7.367398 0
M  V30 11 H 10.409088 6.438270 -5.372965 0
M  V30 12 H 9.567753 7.961845 -5.585023 0
M  V30 13 H 9.435584 6.541061 -10.134981 0
M  V30 14 H 13.325710 8.899063 -8.125077 0
M  V30 15 H 13.873473 9.487110 -10.360176 0
M  V30 16 H 11.209355 7.487076 -11.627458 0
M  V30 17 H 8.480332 7.133612 -7.509993 0
M  V30 18 H 9.389289 5.590142 -7.396939 0
M  V30 END ATOM
M  V30 BEGIN BOND
M  V30 1 1 2 1
M  V30 2 1 3 2
M  V30 3 2 4 3
M  V30 4 1 5 4
M  V30 5 1 6 3
M  V30 6 2 7 6
M  V30 7 1 8 7
M  V30 8 2 9 5
M  V30 9 1 9 7
M  V30 10 1 10 1
M  V30 11 1 10 4
M  V30 12 1 11 1
M  V30 13 1 12 1
M  V30 14 1 13 5
M  V30 15 1 14 6
M  V30 16 1 15 8
M  V30 17 1 16 9
M  V30 18 1 17 10
M  V30 19 1 18 10
M  V30 END BOND
M  V30 END CTAB
M  END
>  <i_epik_Tot_Q>  (1) 
0

>  <i_epik_Tot_abs_Q>  (1) 
0

>  <i_i_glide_confnum>  (1) 
1

>  <i_i_glide_lignum>  (1) 
61

>  <i_i_glide_posenum>  (1) 
173

>  <i_i_glide_rotatable_bonds>  (1) 
1

>  <i_lp_mmshare_version>  (1) 
72125

>  <i_m_source_file_index>  (1) 
55

>  <i_f3d_flags>  (1) 
0

>  <num_sample>  (1) 
100

>  <b_lp_Chiralities_Consistent>  (1) 
1

>  <r_epik_Charging_Adjusted_Penalty>  (1) 
0

>  <r_epik_Ionization_Penalty>  (1) 
0.0019697177408658601

>  <r_epik_Ionization_Penalty_Charging>  (1) 
0

>  <r_epik_Ionization_Penalty_Neutral>  (1) 
0.0019697177408658601

>  <r_epik_State_Penalty>  (1) 
-0

>  <r_glide_ring_energy>  (1) 
0

>  <r_i_docking_score>  (1) 
-6.1162992695413507

>  <r_i_glide_ecoul>  (1) 
-8.0013452208368943

>  <r_i_glide_eff_state_penalty>  (1) 
-0

>  <r_i_glide_einternal>  (1) 
0.46043124281235448

>  <r_i_glide_emodel>  (1) 
-29.156422255534522

>  <r_i_glide_emodel_strain>  (1) 
0.053318976104836935

>  <r_i_glide_energy>  (1) 
-20.725990591833259

>  <r_i_glide_erotb>  (1) 
0

>  <r_i_glide_esite>  (1) 
0

>  <r_i_glide_evdw>  (1) 
-12.724645370996367

>  <r_i_glide_gscore>  (1) 
-6.1162992695413507

>  <r_i_glide_gscore_strain>  (1) 
0

>  <r_i_glide_hbond>  (1) 
-0.32000000000000001

>  <r_i_glide_ligand_efficiency>  (1) 
-0.61162992695413509

>  <r_i_glide_ligand_efficiency_ln>  (1) 
-1.851973256500246

>  <r_i_glide_ligand_efficiency_sa>  (1) 
-1.3177167320916559

>  <r_i_glide_lipo>  (1) 
-0.96690527040585306

>  <r_i_glide_metal>  (1) 
-0

>  <r_i_glide_rewards>  (1) 
-2.9929599474601454

>  <r_lp_Energy>  (1) 
8.5284040000000001

>  <r_lp_tautomer_probability>  (1) 
1

>  <s_epik_cmdline>  (1) 
J2VwaWtfcHl0aG9uJywgJy1waHQnLCAnMS4wJywgJy1waCcsICc3LjQnLCAnLXRuJywgJzgnLCAnLW1hJywgJzUwMCcsICctaW1hZScsICc8aW5maWxlLm1hZT4nLCAnLW9tYWUnLCAnPG91dGZpbGUubWFlPic=

>  <s_epik_input>  (1) 
TzFbQ0gyXVtDSDJdYyhjMTIpW2NIXVtjSF1jKFtjSF0yKVtPSF0=

>  <s_glide_docking_method>  (1) 
confgen

>  <s_i_glide_gridfile>  (1) 
gpcr_drd2_6luq_protein_autoprepared_prepared

>  <s_lp_Force_Field>  (1) 
S-OPLS

>  <s_lp_Variant>  (1) 
Pocket2Mol_54-1

>  <s_m_source_file>  (1) 
generated_generic_title2_ligand_Pocket2Mol_2026-06-23_prepared.sdf

>  <GenAI_Model>  (1) 
Pocket2Mol

>  <Protein>  (1) 
generic_title2

$$$$
Pocket2Mol_57
     RDKit          3D

  0  0  0  0  0  0  0  0  0  0999 V3000
M  V30 BEGIN CTAB
M  V30 COUNTS 18 19 0 0 1
M  V30 BEGIN ATOM
M  V30 1 C 10.359996 6.552498 -6.987272 0
M  V30 2 O 10.993075 6.139436 -5.806861 0
M  V30 3 C 11.375410 7.135037 -4.942322 0
M  V30 4 C 11.375206 8.473700 -5.372291 0
M  V30 5 C 11.775082 9.499843 -4.494752 0
M  V30 6 C 11.775413 6.816297 -3.629079 0
M  V30 7 C 12.175689 7.841245 -2.747673 0
M  V30 8 C 10.949594 8.793017 -6.784071 0
M  V30 9 C 12.176089 9.183462 -3.180827 0
M  V30 10 O 11.005620 7.629428 -7.594778 0
M  V30 11 H 10.373798 5.713884 -7.683715 0
M  V30 12 H 9.314781 6.797717 -6.781450 0
M  V30 13 H 11.773645 10.526298 -4.828178 0
M  V30 14 H 11.776375 5.788046 -3.299008 0
M  V30 15 H 12.482651 7.598608 -1.741164 0
M  V30 16 H 9.932054 9.185952 -6.773960 0
M  V30 17 H 11.598441 9.559091 -7.209351 0
M  V30 18 H 12.482474 9.968692 -2.505156 0
M  V30 END ATOM
M  V30 BEGIN BOND
M  V30 1 1 2 1
M  V30 2 1 3 2
M  V30 3 1 4 3
M  V30 4 2 5 4
M  V30 5 2 6 3
M  V30 6 1 7 6
M  V30 7 1 8 4
M  V30 8 1 9 5
M  V30 9 2 9 7
M  V30 10 1 10 1
M  V30 11 1 10 8
M  V30 12 1 11 1
M  V30 13 1 12 1
M  V30 14 1 13 5
M  V30 15 1 14 6
M  V30 16 1 15 7
M  V30 17 1 16 8
M  V30 18 1 17 8
M  V30 19 1 18 9
M  V30 END BOND
M  V30 END CTAB
M  END
>  <i_epik_Tot_Q>  (1) 
0

>  <i_epik_Tot_abs_Q>  (1) 
0

>  <i_i_glide_confnum>  (1) 
1

>  <i_i_glide_lignum>  (1) 
64

>  <i_i_glide_posenum>  (1) 
345

>  <i_i_glide_rotatable_bonds>  (1) 
0

>  <i_lp_mmshare_version>  (1) 
72125

>  <i_m_source_file_index>  (1) 
58

>  <i_f3d_flags>  (1) 
0

>  <num_sample>  (1) 
100

>  <b_lp_Chiralities_Consistent>  (1) 
1

>  <r_epik_Charging_Adjusted_Penalty>  (1) 
0

>  <r_epik_Ionization_Penalty>  (1) 
5.7885637950061117e-15

>  <r_epik_Ionization_Penalty_Charging>  (1) 
0

>  <r_epik_Ionization_Penalty_Neutral>  (1) 
5.7885637950061117e-15

>  <r_epik_State_Penalty>  (1) 
-0

>  <r_glide_ring_energy>  (1) 
0

>  <r_i_docking_score>  (1) 
-6.1142138499835408

>  <r_i_glide_ecoul>  (1) 
-0.55863262153464921

>  <r_i_glide_eff_state_penalty>  (1) 
-0

>  <r_i_glide_einternal>  (1) 
0

>  <r_i_glide_emodel>  (1) 
-28.348208488362115

>  <r_i_glide_emodel_strain>  (1) 
0

>  <r_i_glide_energy>  (1) 
-20.316653610144165

>  <r_i_glide_erotb>  (1) 
0

>  <r_i_glide_esite>  (1) 
0

>  <r_i_glide_evdw>  (1) 
-19.758020988609516

>  <r_i_glide_gscore>  (1) 
-6.1142138499835408

>  <r_i_glide_gscore_strain>  (1) 
0

>  <r_i_glide_hbond>  (1) 
0

>  <r_i_glide_ligand_efficiency>  (1) 
-0.61142138499835408

>  <r_i_glide_ligand_efficiency_ln>  (1) 
-1.8513418058338471

>  <r_i_glide_ligand_efficiency_sa>  (1) 
-1.3172674420677941

>  <r_i_glide_lipo>  (1) 
-1.9825764431151178

>  <r_i_glide_metal>  (1) 
-0

>  <r_i_glide_rewards>  (1) 
-3.0599414642077498

>  <r_lp_Energy>  (1) 
18.330197999999999

>  <r_lp_tautomer_probability>  (1) 
1

>  <s_epik_Chemistry_Notes>  (1) 
This compound contains an acetal/aminal-like group ( X-CH(R)-Y where X, Y are N, S, or O) that may be acid/base labile, releasing an aldehyde.

>  <s_epik_cmdline>  (1) 
J2VwaWtfcHl0aG9uJywgJy1waHQnLCAnMS4wJywgJy1waCcsICc3LjQnLCAnLXRuJywgJzgnLCAnLW1hJywgJzUwMCcsICctaW1hZScsICc8aW5maWxlLm1hZT4nLCAnLW9tYWUnLCAnPG91dGZpbGUubWFlPic=

>  <s_epik_input>  (1) 
TzFbQ0gyXU9bQ0gyXWMoYzEyKVtjSF1bY0hdW2NIXVtjSF0y

>  <s_glide_docking_method>  (1) 
confgen

>  <s_i_glide_gridfile>  (1) 
gpcr_drd2_6luq_protein_autoprepared_prepared

>  <s_lp_Force_Field>  (1) 
S-OPLS

>  <s_lp_Variant>  (1) 
Pocket2Mol_57-1

>  <s_m_source_file>  (1) 
generated_generic_title2_ligand_Pocket2Mol_2026-06-23_prepared.sdf

>  <GenAI_Model>  (1) 
Pocket2Mol

>  <Protein>  (1) 
generic_title2

$$$$
Pocket2Mol_98
     RDKit          3D

  0  0  0  0  0  0  0  0  0  0999 V3000
M  V30 BEGIN CTAB
M  V30 COUNTS 24 25 0 0 1
M  V30 BEGIN ATOM
M  V30 1 C 12.050270 7.557707 -2.394450 0
M  V30 2 O 12.279837 8.807858 -3.151348 0
M  V30 3 C 11.829826 8.477277 -4.383012 0
M  V30 4 C 11.375411 7.213727 -4.522123 0
M  V30 5 C 10.877417 6.741806 -5.746235 0
M  V30 6 C 11.456654 6.390575 -3.310684 0
M  V30 7 C 10.870127 7.601768 -6.866615 0
M  V30 8 N 10.351867 7.093047 -8.119432 0
M  V30 9 C 11.836762 9.372317 -5.463394 0
M  V30 10 C 11.363486 8.938011 -6.721192 0
M  V30 11 C 10.423379 7.713572 -9.325393 0
M  V30 12 O 10.976851 8.790206 -9.516337 0
M  V30 13 C 9.775408 6.981476 -10.494631 0
M  V30 14 H 12.975387 7.236386 -1.920984 0
M  V30 15 H 11.355019 7.780458 -1.584876 0
M  V30 16 H 10.514151 5.730493 -5.832576 0
M  V30 17 H 10.490953 6.006230 -2.980442 0
M  V30 18 H 12.175412 5.590169 -3.444358 0
M  V30 19 H 12.205826 10.378940 -5.336801 0
M  V30 20 H 11.375413 9.620944 -7.540802 0
M  V30 21 H 9.331218 6.035189 -10.184611 0
M  V30 22 H 8.984530 7.598467 -10.922918 0
M  V30 23 H 10.513639 6.782933 -11.271633 0
M  V30 24 H 9.906612 6.188006 -8.088269 0
M  V30 END ATOM
M  V30 BEGIN BOND
M  V30 1 1 2 1
M  V30 2 1 3 2
M  V30 3 2 4 3
M  V30 4 1 5 4
M  V30 5 1 6 1
M  V30 6 1 6 4
M  V30 7 2 7 5
M  V30 8 1 8 7
M  V30 9 1 9 3
M  V30 10 1 10 7
M  V30 11 2 10 9
M  V30 12 1 11 8
M  V30 13 2 12 11
M  V30 14 1 13 11
M  V30 15 1 14 1
M  V30 16 1 15 1
M  V30 17 1 16 5
M  V30 18 1 17 6
M  V30 19 1 18 6
M  V30 20 1 19 9
M  V30 21 1 20 10
M  V30 22 1 21 13
M  V30 23 1 22 13
M  V30 24 1 23 13
M  V30 25 1 24 8
M  V30 END BOND
M  V30 END CTAB
M  END
>  <i_epik_Tot_Q>  (1) 
0

>  <i_epik_Tot_abs_Q>  (1) 
0

>  <i_i_glide_confnum>  (1) 
1

>  <i_i_glide_lignum>  (1) 
107

>  <i_i_glide_posenum>  (1) 
363

>  <i_i_glide_rotatable_bonds>  (1) 
2

>  <i_lp_mmshare_version>  (1) 
72125

>  <i_m_source_file_index>  (1) 
99

>  <i_f3d_flags>  (1) 
0

>  <num_sample>  (1) 
100

>  <b_lp_Chiralities_Consistent>  (1) 
1

>  <r_epik_Charging_Adjusted_Penalty>  (1) 
0

>  <r_epik_Ionization_Penalty>  (1) 
1.4103773659367358e-07

>  <r_epik_Ionization_Penalty_Charging>  (1) 
0

>  <r_epik_Ionization_Penalty_Neutral>  (1) 
1.4103773659367358e-07

>  <r_epik_State_Penalty>  (1) 
-0

>  <r_glide_ring_energy>  (1) 
0

>  <r_i_docking_score>  (1) 
-6.1126186043599766

>  <r_i_glide_ecoul>  (1) 
-1.8855283240078422

>  <r_i_glide_eff_state_penalty>  (1) 
-0

>  <r_i_glide_einternal>  (1) 
0.32862383756191882

>  <r_i_glide_emodel>  (1) 
-36.195969682373963

>  <r_i_glide_emodel_strain>  (1) 
0.039864843450985177

>  <r_i_glide_energy>  (1) 
-26.865741442816539

>  <r_i_glide_erotb>  (1) 
0

>  <r_i_glide_esite>  (1) 
-0.06663105152217029

>  <r_i_glide_evdw>  (1) 
-24.980213118808695

>  <r_i_glide_gscore>  (1) 
-6.1126186043599766

>  <r_i_glide_gscore_strain>  (1) 
0

>  <r_i_glide_hbond>  (1) 
0

>  <r_i_glide_ligand_efficiency>  (1) 
-0.4702014311046136

>  <r_i_glide_ligand_efficiency_ln>  (1) 
-1.7146438817051071

>  <r_i_glide_ligand_efficiency_sa>  (1) 
-1.10560093517222

>  <r_i_glide_lipo>  (1) 
-1.9678379410102715

>  <r_i_glide_metal>  (1) 
-0

>  <r_i_glide_rewards>  (1) 
-2.546309707285924

>  <r_lp_Energy>  (1) 
14.229996

>  <r_lp_tautomer_probability>  (1) 
1

>  <s_epik_cmdline>  (1) 
J2VwaWtfcHl0aG9uJywgJy1waHQnLCAnMS4wJywgJy1waCcsICc3LjQnLCAnLXRuJywgJzgnLCAnLW1hJywgJzUwMCcsICctaW1hZScsICc8aW5maWxlLm1hZT4nLCAnLW9tYWUnLCAnPG91dGZpbGUubWFlPic=

>  <s_epik_input>  (1) 
TzFbQ0gyXVtDSDJdYyhjMTIpW2NIXWMoW2NIXVtjSF0yKS9OPUMoXFtPSF0pW0NIM10=

>  <s_glide_docking_method>  (1) 
confgen

>  <s_i_glide_gridfile>  (1) 
gpcr_drd2_6luq_protein_autoprepared_prepared

>  <s_lp_Force_Field>  (1) 
S-OPLS

>  <s_lp_Variant>  (1) 
Pocket2Mol_98-1

>  <s_m_source_file>  (1) 
generated_generic_title2_ligand_Pocket2Mol_2026-06-23_prepared.sdf

>  <GenAI_Model>  (1) 
Pocket2Mol

>  <Protein>  (1) 
generic_title2

$$$$
Pocket2Mol_80
     RDKit          3D

  0  0  0  0  0  0  0  0  0  0999 V3000
M  V30 BEGIN CTAB
M  V30 COUNTS 19 20 0 0 1
M  V30 BEGIN ATOM
M  V30 1 C 12.366286 8.260258 -1.985025 0
M  V30 2 O 12.290632 9.443953 -2.861832 0
M  V30 3 C 11.912299 8.898400 -4.035018 0
M  V30 4 C 11.775410 7.553579 -4.041403 0
M  V30 5 C 11.364780 6.861832 -5.199660 0
M  V30 6 C 12.067947 6.894826 -2.759496 0
M  V30 7 C 11.100002 7.603781 -6.384638 0
M  V30 8 N 10.670514 6.919755 -7.623895 0 CHG=1
M  V30 9 O 10.532155 5.704292 -7.585024 0 CHG=-1
M  V30 10 O 10.483575 7.614040 -8.618104 0
M  V30 11 C 11.256782 9.014437 -6.369089 0
M  V30 12 C 11.662346 9.663534 -5.185025 0
M  V30 13 H 13.347335 8.235673 -1.510835 0
M  V30 14 H 11.638157 8.390237 -1.185021 0
M  V30 15 H 11.253986 5.787742 -5.185327 0
M  V30 16 H 11.201230 6.361643 -2.366777 0
M  V30 17 H 12.939480 6.242135 -2.785025 0
M  V30 18 H 11.063445 9.590208 -7.258039 0
M  V30 19 H 11.775410 10.737101 -5.163861 0
M  V30 END ATOM
M  V30 BEGIN BOND
M  V30 1 1 2 1
M  V30 2 1 3 2
M  V30 3 2 4 3
M  V30 4 1 5 4
M  V30 5 1 6 1
M  V30 6 1 6 4
M  V30 7 2 7 5
M  V30 8 1 8 7
M  V30 9 1 9 8
M  V30 10 2 10 8
M  V30 11 1 11 7
M  V30 12 1 12 3
M  V30 13 2 12 11
M  V30 14 1 13 1
M  V30 15 1 14 1
M  V30 16 1 15 5
M  V30 17 1 16 6
M  V30 18 1 17 6
M  V30 19 1 18 11
M  V30 20 1 19 12
M  V30 END BOND
M  V30 END CTAB
M  END
>  <i_epik_Tot_Q>  (1) 
0

>  <i_epik_Tot_abs_Q>  (1) 
2

>  <i_i_glide_confnum>  (1) 
1

>  <i_i_glide_lignum>  (1) 
87

>  <i_i_glide_posenum>  (1) 
338

>  <i_i_glide_rotatable_bonds>  (1) 
1

>  <i_lp_mmshare_version>  (1) 
72125

>  <i_m_source_file_index>  (1) 
81

>  <i_f3d_flags>  (1) 
0

>  <num_sample>  (1) 
100

>  <b_lp_Chiralities_Consistent>  (1) 
1

>  <r_epik_Charging_Adjusted_Penalty>  (1) 
0

>  <r_epik_Ionization_Penalty>  (1) 
0

>  <r_epik_Ionization_Penalty_Charging>  (1) 
0

>  <r_epik_Ionization_Penalty_Neutral>  (1) 
0

>  <r_epik_State_Penalty>  (1) 
-0

>  <r_glide_ring_energy>  (1) 
0

>  <r_i_docking_score>  (1) 
-6.1124294617175181

>  <r_i_glide_ecoul>  (1) 
0.31872643219396124

>  <r_i_glide_eff_state_penalty>  (1) 
-0

>  <r_i_glide_einternal>  (1) 
0.0152190469379474

>  <r_i_glide_emodel>  (1) 
-33.77460045138649

>  <r_i_glide_emodel_strain>  (1) 
0

>  <r_i_glide_energy>  (1) 
-23.649218816577321

>  <r_i_glide_erotb>  (1) 
0

>  <r_i_glide_esite>  (1) 
-0.028460855206603644

>  <r_i_glide_evdw>  (1) 
-23.967945248771283

>  <r_i_glide_gscore>  (1) 
-6.1124294617175181

>  <r_i_glide_gscore_strain>  (1) 
0

>  <r_i_glide_hbond>  (1) 
0

>  <r_i_glide_ligand_efficiency>  (1) 
-0.50936912180979321

>  <r_i_glide_ligand_efficiency_ln>  (1) 
-1.75397222249536

>  <r_i_glide_ligand_efficiency_sa>  (1) 
-1.1661641769051065

>  <r_i_glide_lipo>  (1) 
-2.2356095639834472

>  <r_i_glide_metal>  (1) 
-0

>  <r_i_glide_rewards>  (1) 
-2.6977707449179977

>  <r_lp_Energy>  (1) 
14.797289999999998

>  <r_lp_tautomer_probability>  (1) 
1

>  <s_epik_cmdline>  (1) 
J2VwaWtfcHl0aG9uJywgJy1waHQnLCAnMS4wJywgJy1waCcsICc3LjQnLCAnLXRuJywgJzgnLCAnLW1hJywgJzUwMCcsICctaW1hZScsICc8aW5maWxlLm1hZT4nLCAnLW9tYWUnLCAnPG91dGZpbGUubWFlPic=

>  <s_epik_input>  (1) 
TzFbQ0gyXVtDSDJdYyhjMTIpW2NIXWMoW04rXShbTy1dKT1PKVtjSF1bY0hdMg==

>  <s_glide_docking_method>  (1) 
confgen

>  <s_i_glide_gridfile>  (1) 
gpcr_drd2_6luq_protein_autoprepared_prepared

>  <s_lp_Force_Field>  (1) 
S-OPLS

>  <s_lp_Variant>  (1) 
Pocket2Mol_80-1

>  <s_m_source_file>  (1) 
generated_generic_title2_ligand_Pocket2Mol_2026-06-23_prepared.sdf

>  <GenAI_Model>  (1) 
Pocket2Mol

>  <Protein>  (1) 
generic_title2

$$$$
Pocket2Mol_72
     RDKit          3D

  0  0  0  0  0  0  0  0  0  0999 V3000
M  V30 BEGIN CTAB
M  V30 COUNTS 18 19 0 0 1
M  V30 BEGIN ATOM
M  V30 1 C 12.575254 7.201207 -2.560761 0
M  V30 2 O 11.629961 6.598517 -3.426696 0
M  V30 3 C 11.375410 7.286415 -4.591435 0
M  V30 4 C 10.752368 6.627359 -5.663899 0
M  V30 5 C 12.262470 8.688947 -2.405502 0
M  V30 6 C 11.737453 8.655975 -4.716976 0
M  V30 7 O 12.347932 9.319233 -3.674402 0
M  V30 8 C 10.489601 7.314577 -6.861164 0
M  V30 9 C 11.471450 9.338939 -5.918861 0
M  V30 10 F 11.810534 10.641637 -6.044714 0
M  V30 11 C 10.850206 8.667251 -6.989775 0
M  V30 12 H 12.551917 6.693139 -1.596445 0
M  V30 13 H 13.571791 7.069723 -2.976616 0
M  V30 14 H 10.477426 5.590227 -5.567514 0
M  V30 15 H 11.271769 8.833676 -1.983470 0
M  V30 16 H 12.974756 9.159036 -1.726397 0
M  V30 17 H 10.009610 6.802948 -7.683353 0
M  V30 18 H 10.648260 9.190227 -7.911026 0
M  V30 END ATOM
M  V30 BEGIN BOND
M  V30 1 1 2 1
M  V30 2 1 3 2
M  V30 3 2 4 3
M  V30 4 1 5 1
M  V30 5 1 6 3
M  V30 6 1 7 5
M  V30 7 1 7 6
M  V30 8 1 8 4
M  V30 9 2 9 6
M  V30 10 1 10 9
M  V30 11 2 11 8
M  V30 12 1 11 9
M  V30 13 1 12 1
M  V30 14 1 13 1
M  V30 15 1 14 4
M  V30 16 1 15 5
M  V30 17 1 16 5
M  V30 18 1 17 8
M  V30 19 1 18 11
M  V30 END BOND
M  V30 END CTAB
M  END
>  <i_epik_Tot_Q>  (1) 
0

>  <i_epik_Tot_abs_Q>  (1) 
0

>  <i_i_glide_confnum>  (1) 
2

>  <i_i_glide_lignum>  (1) 
79

>  <i_i_glide_posenum>  (1) 
326

>  <i_i_glide_rotatable_bonds>  (1) 
0

>  <i_lp_mmshare_version>  (1) 
72125

>  <i_m_source_file_index>  (1) 
73

>  <i_f3d_flags>  (1) 
0

>  <num_sample>  (1) 
100

>  <b_lp_Chiralities_Consistent>  (1) 
1

>  <r_epik_Charging_Adjusted_Penalty>  (1) 
0

>  <r_epik_Ionization_Penalty>  (1) 
0

>  <r_epik_Ionization_Penalty_Charging>  (1) 
0

>  <r_epik_Ionization_Penalty_Neutral>  (1) 
0

>  <r_epik_State_Penalty>  (1) 
-0

>  <r_glide_ring_energy>  (1) 
0.0030882705297212471

>  <r_i_docking_score>  (1) 
-6.1091558142872167

>  <r_i_glide_ecoul>  (1) 
-0.71267302936673871

>  <r_i_glide_eff_state_penalty>  (1) 
-0

>  <r_i_glide_einternal>  (1) 
0

>  <r_i_glide_emodel>  (1) 
-28.562968834436823

>  <r_i_glide_emodel_strain>  (1) 
0

>  <r_i_glide_energy>  (1) 
-20.565798677609504

>  <r_i_glide_erotb>  (1) 
0

>  <r_i_glide_esite>  (1) 
0

>  <r_i_glide_evdw>  (1) 
-19.853125648242766

>  <r_i_glide_gscore>  (1) 
-6.1091558142872167

>  <r_i_glide_gscore_strain>  (1) 
0

>  <r_i_glide_hbond>  (1) 
0

>  <r_i_glide_ligand_efficiency>  (1) 
-0.55537780129883785

>  <r_i_glide_ligand_efficiency_ln>  (1) 
-1.797923515534356

>  <r_i_glide_ligand_efficiency_sa>  (1) 
-1.235149172832777

>  <r_i_glide_lipo>  (1) 
-2.0280994395370802

>  <r_i_glide_metal>  (1) 
-0

>  <r_i_glide_rewards>  (1) 
-2.9814991379329867

>  <r_lp_Energy>  (1) 
17.335863

>  <r_lp_tautomer_probability>  (1) 
1

>  <s_epik_cmdline>  (1) 
J2VwaWtfcHl0aG9uJywgJy1waHQnLCAnMS4wJywgJy1waCcsICc3LjQnLCAnLXRuJywgJzgnLCAnLW1hJywgJzUwMCcsICctaW1hZScsICc8aW5maWxlLm1hZT4nLCAnLW9tYWUnLCAnPG91dGZpbGUubWFlPic=

>  <s_epik_input>  (1) 
TzFbQ0gyXVtDSDJdT2MoYzEyKWMoRilbY0hdW2NIXVtjSF0y

>  <s_glide_docking_method>  (1) 
confgen

>  <s_i_glide_gridfile>  (1) 
gpcr_drd2_6luq_protein_autoprepared_prepared

>  <s_lp_Force_Field>  (1) 
S-OPLS

>  <s_lp_Variant>  (1) 
Pocket2Mol_72-1

>  <s_m_source_file>  (1) 
generated_generic_title2_ligand_Pocket2Mol_2026-06-23_prepared.sdf

>  <GenAI_Model>  (1) 
Pocket2Mol

>  <Protein>  (1) 
generic_title2

$$$$
Pocket2Mol_64
     RDKit          3D

  0  0  0  0  0  0  0  0  0  0999 V3000
M  V30 BEGIN CTAB
M  V30 COUNTS 16 17 0 0 1
M  V30 BEGIN ATOM
M  V30 1 C 9.893798 6.517408 -7.185023 0
M  V30 2 O 10.614253 6.134231 -6.084677 0
M  V30 3 C 11.105627 7.125245 -5.269508 0
M  V30 4 C 10.983910 8.482476 -5.652065 0
M  V30 5 C 11.495039 9.494668 -4.819632 0
M  V30 6 C 11.734987 6.790227 -4.051575 0
M  V30 7 C 12.246458 7.807029 -3.219778 0
M  V30 8 O 10.366332 8.814534 -6.836070 0
M  V30 9 C 9.775404 7.804588 -7.545532 0
M  V30 10 F 11.375416 10.790229 -5.185039 0
M  V30 11 C 12.129097 9.158501 -3.604459 0
M  V30 12 H 9.447598 5.682787 -7.705334 0
M  V30 13 H 11.824857 5.754928 -3.757647 0
M  V30 14 H 12.728676 7.550543 -2.287757 0
M  V30 15 H 9.218008 8.162351 -8.399678 0
M  V30 16 H 12.520453 9.936875 -2.965506 0
M  V30 END ATOM
M  V30 BEGIN BOND
M  V30 1 1 2 1
M  V30 2 1 3 2
M  V30 3 1 4 3
M  V30 4 2 5 4
M  V30 5 2 6 3
M  V30 6 1 7 6
M  V30 7 1 8 4
M  V30 8 2 9 1
M  V30 9 1 9 8
M  V30 10 1 10 5
M  V30 11 1 11 5
M  V30 12 2 11 7
M  V30 13 1 12 1
M  V30 14 1 13 6
M  V30 15 1 14 7
M  V30 16 1 15 9
M  V30 17 1 16 11
M  V30 END BOND
M  V30 END CTAB
M  END
>  <i_epik_Tot_Q>  (1) 
0

>  <i_epik_Tot_abs_Q>  (1) 
0

>  <i_i_glide_confnum>  (1) 
1

>  <i_i_glide_lignum>  (1) 
71

>  <i_i_glide_posenum>  (1) 
10

>  <i_i_glide_rotatable_bonds>  (1) 
0

>  <i_lp_mmshare_version>  (1) 
72125

>  <i_m_source_file_index>  (1) 
65

>  <i_f3d_flags>  (1) 
0

>  <num_sample>  (1) 
100

>  <b_lp_Chiralities_Consistent>  (1) 
1

>  <r_epik_Charging_Adjusted_Penalty>  (1) 
0

>  <r_epik_Ionization_Penalty>  (1) 
0

>  <r_epik_Ionization_Penalty_Charging>  (1) 
0

>  <r_epik_Ionization_Penalty_Neutral>  (1) 
0

>  <r_epik_State_Penalty>  (1) 
-0

>  <r_glide_ring_energy>  (1) 
0

>  <r_i_docking_score>  (1) 
-6.1055158942346459

>  <r_i_glide_ecoul>  (1) 
-0.84060240782418894

>  <r_i_glide_eff_state_penalty>  (1) 
-0

>  <r_i_glide_einternal>  (1) 
0

>  <r_i_glide_emodel>  (1) 
-28.02760083377057

>  <r_i_glide_emodel_strain>  (1) 
3.8617642417193565e-10

>  <r_i_glide_energy>  (1) 
-20.103588785933624

>  <r_i_glide_erotb>  (1) 
0

>  <r_i_glide_esite>  (1) 
0

>  <r_i_glide_evdw>  (1) 
-19.262986378109435

>  <r_i_glide_gscore>  (1) 
-6.1055158942346459

>  <r_i_glide_gscore_strain>  (1) 
0

>  <r_i_glide_hbond>  (1) 
0

>  <r_i_glide_ligand_efficiency>  (1) 
-0.55504689947587693

>  <r_i_glide_ligand_efficiency_ln>  (1) 
-1.7968522876828947

>  <r_i_glide_ligand_efficiency_sa>  (1) 
-1.2344132537665786

>  <r_i_glide_lipo>  (1) 
-1.8230551963991724

>  <r_i_glide_metal>  (1) 
-0

>  <r_i_glide_rewards>  (1) 
-3.1932210177563736

>  <r_lp_Energy>  (1) 
23.975801000000001

>  <r_lp_tautomer_probability>  (1) 
1

>  <s_epik_cmdline>  (1) 
J2VwaWtfcHl0aG9uJywgJy1waHQnLCAnMS4wJywgJy1waCcsICc3LjQnLCAnLXRuJywgJzgnLCAnLW1hJywgJzUwMCcsICctaW1hZScsICc8aW5maWxlLm1hZT4nLCAnLW9tYWUnLCAnPG91dGZpbGUubWFlPic=

>  <s_epik_input>  (1) 
TzFbQ0hdPVtDSF1PYyhjMTIpYyhGKVtjSF1bY0hdW2NIXTI=

>  <s_glide_docking_method>  (1) 
confgen

>  <s_i_glide_gridfile>  (1) 
gpcr_drd2_6luq_protein_autoprepared_prepared

>  <s_lp_Force_Field>  (1) 
S-OPLS

>  <s_lp_Variant>  (1) 
Pocket2Mol_64-1

>  <s_m_source_file>  (1) 
generated_generic_title2_ligand_Pocket2Mol_2026-06-23_prepared.sdf

>  <GenAI_Model>  (1) 
Pocket2Mol

>  <Protein>  (1) 
generic_title2

$$$$
Pocket2Mol_37
     RDKit          3D

  0  0  0  0  0  0  0  0  0  0999 V3000
M  V30 BEGIN CTAB
M  V30 COUNTS 17 18 0 0 1
M  V30 BEGIN ATOM
M  V30 1 C 10.996946 8.790227 -6.571503 0
M  V30 2 O 10.881866 7.529650 -6.067193 0
M  V30 3 C 11.375410 7.608881 -4.797291 0
M  V30 4 C 11.789652 8.848921 -4.492174 0
M  V30 5 C 12.375560 9.240120 -3.185023 0
M  V30 6 C 11.375410 6.390227 -3.987667 0
M  V30 7 C 11.546402 9.633486 -5.648669 0
M  V30 8 C 12.014009 6.748353 -2.626336 0
M  V30 9 C 12.451591 7.995910 -2.275824 0
M  V30 10 H 10.646365 8.913015 -7.585798 0
M  V30 11 H 11.760042 10.002006 -2.708331 0
M  V30 12 H 13.375410 9.641886 -3.337213 0
M  V30 13 H 11.946293 5.604949 -4.480065 0
M  V30 14 H 10.360796 6.019768 -3.840350 0
M  V30 15 H 11.747693 10.685220 -5.790035 0
M  V30 16 H 12.109159 5.938123 -1.918048 0
M  V30 17 H 12.884277 8.147576 -1.297790 0
M  V30 END ATOM
M  V30 BEGIN BOND
M  V30 1 1 2 1
M  V30 2 1 3 2
M  V30 3 2 4 3
M  V30 4 1 5 4
M  V30 5 1 6 3
M  V30 6 2 7 1
M  V30 7 1 7 4
M  V30 8 1 8 6
M  V30 9 1 9 5
M  V30 10 2 9 8
M  V30 11 1 10 1
M  V30 12 1 11 5
M  V30 13 1 12 5
M  V30 14 1 13 6
M  V30 15 1 14 6
M  V30 16 1 15 7
M  V30 17 1 16 8
M  V30 18 1 17 9
M  V30 END BOND
M  V30 END CTAB
M  END
>  <i_epik_Tot_Q>  (1) 
0

>  <i_epik_Tot_abs_Q>  (1) 
0

>  <i_i_glide_confnum>  (1) 
1

>  <i_i_glide_lignum>  (1) 
42

>  <i_i_glide_posenum>  (1) 
310

>  <i_i_glide_rotatable_bonds>  (1) 
0

>  <i_lp_mmshare_version>  (1) 
72125

>  <i_m_source_file_index>  (1) 
38

>  <i_f3d_flags>  (1) 
0

>  <num_sample>  (1) 
100

>  <b_lp_Chiralities_Consistent>  (1) 
1

>  <r_epik_Charging_Adjusted_Penalty>  (1) 
0

>  <r_epik_Ionization_Penalty>  (1) 
0

>  <r_epik_Ionization_Penalty_Charging>  (1) 
0

>  <r_epik_Ionization_Penalty_Neutral>  (1) 
0

>  <r_epik_State_Penalty>  (1) 
-0

>  <r_glide_ring_energy>  (1) 
0

>  <r_i_docking_score>  (1) 
-6.096705987896673

>  <r_i_glide_ecoul>  (1) 
-0.7589554780739296

>  <r_i_glide_eff_state_penalty>  (1) 
-0

>  <r_i_glide_einternal>  (1) 
0

>  <r_i_glide_emodel>  (1) 
-29.341064808064274

>  <r_i_glide_emodel_strain>  (1) 
0

>  <r_i_glide_energy>  (1) 
-21.227021208564999

>  <r_i_glide_erotb>  (1) 
0

>  <r_i_glide_esite>  (1) 
0

>  <r_i_glide_evdw>  (1) 
-20.46806573049107

>  <r_i_glide_gscore>  (1) 
-6.096705987896673

>  <r_i_glide_gscore_strain>  (1) 
0

>  <r_i_glide_hbond>  (1) 
0

>  <r_i_glide_ligand_efficiency>  (1) 
-0.67741177643296369

>  <r_i_glide_ligand_efficiency_ln>  (1) 
-1.9068744908048243

>  <r_i_glide_ligand_efficiency_sa>  (1) 
-1.409073277703061

>  <r_i_glide_lipo>  (1) 
-2.2177081744160159

>  <r_i_glide_metal>  (1) 
-0

>  <r_i_glide_rewards>  (1) 
-2.7417512052450146

>  <r_lp_Energy>  (1) 
4.5932930000000001

>  <r_lp_tautomer_probability>  (1) 
1

>  <s_epik_cmdline>  (1) 
J2VwaWtfcHl0aG9uJywgJy1waHQnLCAnMS4wJywgJy1waCcsICc3LjQnLCAnLXRuJywgJzgnLCAnLW1hJywgJzUwMCcsICctaW1hZScsICc8aW5maWxlLm1hZT4nLCAnLW9tYWUnLCAnPG91dGZpbGUubWFlPic=

>  <s_epik_input>  (1) 
bzFbY0hdW2NIXWMoYzEyKVtDSDJdW0NIXT1bQ0hdW0NIMl0y

>  <s_glide_docking_method>  (1) 
confgen

>  <s_i_glide_gridfile>  (1) 
gpcr_drd2_6luq_protein_autoprepared_prepared

>  <s_lp_Force_Field>  (1) 
S-OPLS

>  <s_lp_Variant>  (1) 
Pocket2Mol_37-1

>  <s_m_source_file>  (1) 
generated_generic_title2_ligand_Pocket2Mol_2026-06-23_prepared.sdf

>  <GenAI_Model>  (1) 
Pocket2Mol

>  <Protein>  (1) 
generic_title2

$$$$
Pocket2Mol_84
     RDKit          3D

  0  0  0  0  0  0  0  0  0  0999 V3000
M  V30 BEGIN CTAB
M  V30 COUNTS 23 24 0 0 1
M  V30 BEGIN ATOM
M  V30 1 C 12.447797 9.255990 -4.025477 0
M  V30 2 O 11.775410 7.944974 -3.984983 0
M  V30 3 C 11.322879 7.844025 -5.253625 0
M  V30 4 C 11.761510 8.790223 -6.108088 0
M  V30 5 C 11.375314 8.801982 -7.454795 0
M  V30 6 C 12.645640 9.789786 -5.518621 0
M  V30 7 C 10.471837 7.816844 -7.923365 0
M  V30 8 N 10.031788 7.840505 -9.266044 0
M  V30 9 C 10.442994 6.835333 -5.673500 0
M  V30 10 C 9.998707 6.824209 -7.014918 0
M  V30 11 O 9.375410 6.672571 -9.673474 0
M  V30 12 C 11.064571 8.148104 -10.246174 0
M  V30 13 H 13.375479 9.227811 -3.464907 0
M  V30 14 H 11.798710 9.949995 -3.488702 0
M  V30 15 H 11.741187 9.572395 -8.115784 0
M  V30 16 H 13.667603 9.693679 -5.887254 0
M  V30 17 H 12.244689 10.790229 -5.678734 0
M  V30 18 H 10.095939 6.087130 -4.976036 0
M  V30 19 H 9.305862 6.063995 -7.343697 0
M  V30 20 H 8.443948 6.908875 -9.632330 0
M  V30 21 H 10.690561 7.971280 -11.254872 0
M  V30 22 H 11.375400 9.190218 -10.191686 0
M  V30 23 H 11.942303 7.518368 -10.095990 0
M  V30 END ATOM
M  V30 BEGIN BOND
M  V30 1 1 2 1
M  V30 2 1 3 2
M  V30 3 2 4 3
M  V30 4 1 5 4
M  V30 5 1 6 1
M  V30 6 1 6 4
M  V30 7 2 7 5
M  V30 8 1 8 7
M  V30 9 1 9 3
M  V30 10 1 10 7
M  V30 11 2 10 9
M  V30 12 1 11 8
M  V30 13 1 12 8
M  V30 14 1 13 1
M  V30 15 1 14 1
M  V30 16 1 15 5
M  V30 17 1 16 6
M  V30 18 1 17 6
M  V30 19 1 18 9
M  V30 20 1 19 10
M  V30 21 1 20 11
M  V30 22 1 21 12
M  V30 23 1 22 12
M  V30 24 1 23 12
M  V30 END BOND
M  V30 END CTAB
M  END
>  <i_epik_Tot_Q>  (1) 
0

>  <i_epik_Tot_abs_Q>  (1) 
0

>  <i_i_glide_confnum>  (1) 
2

>  <i_i_glide_lignum>  (1) 
91

>  <i_i_glide_posenum>  (1) 
143

>  <i_i_glide_rotatable_bonds>  (1) 
2

>  <i_lp_mmshare_version>  (1) 
72125

>  <i_m_source_file_index>  (1) 
85

>  <i_f3d_flags>  (1) 
0

>  <num_sample>  (1) 
100

>  <b_lp_Chiralities_Consistent>  (1) 
1

>  <r_epik_Charging_Adjusted_Penalty>  (1) 
0

>  <r_epik_Ionization_Penalty>  (1) 
0.00097486698469066322

>  <r_epik_Ionization_Penalty_Charging>  (1) 
0

>  <r_epik_Ionization_Penalty_Neutral>  (1) 
0.00097486698469066322

>  <r_epik_State_Penalty>  (1) 
-0

>  <r_glide_ring_energy>  (1) 
0

>  <r_i_docking_score>  (1) 
-6.0960321437326961

>  <r_i_glide_ecoul>  (1) 
-3.4275543179242276

>  <r_i_glide_eff_state_penalty>  (1) 
-0

>  <r_i_glide_einternal>  (1) 
0.40396389182297199

>  <r_i_glide_emodel>  (1) 
-33.595903075341099

>  <r_i_glide_emodel_strain>  (1) 
0.11398165634599877

>  <r_i_glide_energy>  (1) 
-23.873714592269103

>  <r_i_glide_erotb>  (1) 
0

>  <r_i_glide_esite>  (1) 
-0.0893951733633504

>  <r_i_glide_evdw>  (1) 
-20.446160274344876

>  <r_i_glide_gscore>  (1) 
-6.0960321437326961

>  <r_i_glide_gscore_strain>  (1) 
0

>  <r_i_glide_hbond>  (1) 
-0.16

>  <r_i_glide_ligand_efficiency>  (1) 
-0.5080026786443913

>  <r_i_glide_ligand_efficiency_ln>  (1) 
-1.7492669836948258

>  <r_i_glide_ligand_efficiency_sa>  (1) 
-1.1630358029989563

>  <r_i_glide_lipo>  (1) 
-1.6519293079565502

>  <r_i_glide_metal>  (1) 
-0

>  <r_i_glide_rewards>  (1) 
-2.6582665010069171

>  <r_lp_Energy>  (1) 
21.474352

>  <r_lp_tautomer_probability>  (1) 
1

>  <s_epik_Chemistry_Notes>  (1) 
This compound has a N-S or N-O group and may undergo hydrolysis at high or low pH.

>  <s_epik_cmdline>  (1) 
J2VwaWtfcHl0aG9uJywgJy1waHQnLCAnMS4wJywgJy1waCcsICc3LjQnLCAnLXRuJywgJzgnLCAnLW1hJywgJzUwMCcsICctaW1hZScsICc8aW5maWxlLm1hZT4nLCAnLW9tYWUnLCAnPG91dGZpbGUubWFlPic=

>  <s_epik_input>  (1) 
TzFbQ0gyXVtDSDJdYyhjMTIpW2NIXWMoTihbT0hdKVtDSDNdKVtjSF1bY0hdMg==

>  <s_glide_docking_method>  (1) 
confgen

>  <s_i_glide_gridfile>  (1) 
gpcr_drd2_6luq_protein_autoprepared_prepared

>  <s_lp_Force_Field>  (1) 
S-OPLS

>  <s_lp_Variant>  (1) 
Pocket2Mol_84-1

>  <s_m_source_file>  (1) 
generated_generic_title2_ligand_Pocket2Mol_2026-06-23_prepared.sdf

>  <GenAI_Model>  (1) 
Pocket2Mol

>  <Protein>  (1) 
generic_title2

$$$$
Pocket2Mol_59
     RDKit          3D

  0  0  0  0  0  0  0  0  0  0999 V3000
M  V30 BEGIN CTAB
M  V30 COUNTS 17 18 0 0 1
M  V30 BEGIN ATOM
M  V30 1 C 10.036190 7.533709 -7.713858 0
M  V30 2 O 10.687591 8.790231 -7.303881 0
M  V30 3 C 11.147783 8.485150 -6.073453 0
M  V30 4 C 10.937702 7.239272 -5.666362 0
M  V30 5 C 11.375411 6.794322 -4.407096 0
M  V30 6 N 12.047861 7.660358 -3.559312 0 CHG=1
M  V30 7 C 10.228747 6.390227 -6.624521 0
M  V30 8 O 12.459755 7.268127 -2.406963 0 CHG=-1
M  V30 9 C 12.259846 8.964844 -3.985025 0
M  V30 10 C 11.806914 9.391581 -5.256667 0
M  V30 11 H 10.432466 7.215829 -8.678672 0
M  V30 12 H 8.975426 7.733035 -7.861318 0
M  V30 13 H 11.234996 5.800847 -4.022319 0
M  V30 14 H 10.872268 5.590209 -6.984040 0
M  V30 15 H 9.287181 6.003896 -6.232865 0
M  V30 16 H 12.784805 9.590225 -3.279225 0
M  V30 17 H 11.974900 10.403587 -5.588338 0
M  V30 END ATOM
M  V30 BEGIN BOND
M  V30 1 1 2 1
M  V30 2 1 3 2
M  V30 3 2 4 3
M  V30 4 1 5 4
M  V30 5 2 6 5
M  V30 6 1 7 1
M  V30 7 1 7 4
M  V30 8 1 8 6
M  V30 9 1 9 6
M  V30 10 1 10 3
M  V30 11 2 10 9
M  V30 12 1 11 1
M  V30 13 1 12 1
M  V30 14 1 13 5
M  V30 15 1 14 7
M  V30 16 1 15 7
M  V30 17 1 16 9
M  V30 18 1 17 10
M  V30 END BOND
M  V30 END CTAB
M  END
>  <i_epik_Tot_Q>  (1) 
0

>  <i_epik_Tot_abs_Q>  (1) 
2

>  <i_i_glide_confnum>  (1) 
1

>  <i_i_glide_lignum>  (1) 
66

>  <i_i_glide_posenum>  (1) 
95

>  <i_i_glide_rotatable_bonds>  (1) 
0

>  <i_lp_mmshare_version>  (1) 
72125

>  <i_m_source_file_index>  (1) 
60

>  <i_f3d_flags>  (1) 
0

>  <num_sample>  (1) 
100

>  <b_lp_Chiralities_Consistent>  (1) 
1

>  <r_epik_Charging_Adjusted_Penalty>  (1) 
1.5203065777176405e-06

>  <r_epik_Ionization_Penalty>  (1) 
1.5203065777176405e-06

>  <r_epik_Ionization_Penalty_Charging>  (1) 
1.5203065777176405e-06

>  <r_epik_Ionization_Penalty_Neutral>  (1) 
0

>  <r_epik_State_Penalty>  (1) 
-0

>  <r_glide_ring_energy>  (1) 
0

>  <r_i_docking_score>  (1) 
-6.0928402896118641

>  <r_i_glide_ecoul>  (1) 
-1.2095576714056604

>  <r_i_glide_eff_state_penalty>  (1) 
-0

>  <r_i_glide_einternal>  (1) 
0

>  <r_i_glide_emodel>  (1) 
-28.069216104669621

>  <r_i_glide_emodel_strain>  (1) 
0

>  <r_i_glide_energy>  (1) 
-19.173092776769664

>  <r_i_glide_erotb>  (1) 
0

>  <r_i_glide_esite>  (1) 
0

>  <r_i_glide_evdw>  (1) 
-17.963535105364002

>  <r_i_glide_gscore>  (1) 
-6.0928402896118641

>  <r_i_glide_gscore_strain>  (1) 
0

>  <r_i_glide_hbond>  (1) 
0

>  <r_i_glide_ligand_efficiency>  (1) 
-0.60928402896118639

>  <r_i_glide_ligand_efficiency_ln>  (1) 
-1.8448700390905715

>  <r_i_glide_ligand_efficiency_sa>  (1) 
-1.312662648076371

>  <r_i_glide_lipo>  (1) 
-1.6948044229421018

>  <r_i_glide_metal>  (1) 
-0

>  <r_i_glide_rewards>  (1) 
-3.3184254606907135

>  <r_lp_Energy>  (1) 
12.910414999999999

>  <r_lp_tautomer_probability>  (1) 
1

>  <s_epik_cmdline>  (1) 
J2VwaWtfcHl0aG9uJywgJy1waHQnLCAnMS4wJywgJy1waCcsICc3LjQnLCAnLXRuJywgJzgnLCAnLW1hJywgJzUwMCcsICctaW1hZScsICc8aW5maWxlLm1hZT4nLCAnLW9tYWUnLCAnPG91dGZpbGUubWFlPic=

>  <s_epik_input>  (1) 
TzFbQ0gyXVtDSDJdYyhjMTIpW2NIXVtuK10oW08tXSlbY0hdW2NIXTI=

>  <s_glide_docking_method>  (1) 
confgen

>  <s_i_glide_gridfile>  (1) 
gpcr_drd2_6luq_protein_autoprepared_prepared

>  <s_lp_Force_Field>  (1) 
S-OPLS

>  <s_lp_Variant>  (1) 
Pocket2Mol_59-1

>  <s_m_source_file>  (1) 
generated_generic_title2_ligand_Pocket2Mol_2026-06-23_prepared.sdf

>  <GenAI_Model>  (1) 
Pocket2Mol

>  <Protein>  (1) 
generic_title2

$$$$
Pocket2Mol_52
     RDKit          3D

  0  0  0  0  0  0  0  0  0  0999 V3000
M  V30 BEGIN CTAB
M  V30 COUNTS 15 16 0 0 1
M  V30 BEGIN ATOM
M  V30 1 C 11.513155 9.538631 -5.239697 0
M  V30 2 O 10.343326 8.790230 -5.585025 0
M  V30 3 C 10.556445 8.390227 -6.889845 0
M  V30 4 C 11.752077 8.860770 -7.269564 0
M  V30 5 C 12.206690 8.583914 -8.578213 0
M  V30 6 C 9.741616 7.649522 -7.713198 0
M  V30 7 C 12.412182 9.590227 -6.293264 0
M  V30 8 N 11.424277 7.840332 -9.460987 0 CHG=1
M  V30 9 O 11.834572 7.590227 -10.651804 0 CHG=-1
M  V30 10 C 10.185884 7.373690 -9.021747 0
M  V30 11 H 11.518567 9.935985 -4.235235 0
M  V30 12 H 13.152047 8.916125 -8.981794 0
M  V30 13 H 8.780474 7.291971 -7.367998 0
M  V30 14 H 13.383261 10.053225 -6.385025 0
M  V30 15 H 9.626421 6.807208 -9.752670 0
M  V30 END ATOM
M  V30 BEGIN BOND
M  V30 1 1 2 1
M  V30 2 1 3 2
M  V30 3 1 4 3
M  V30 4 2 5 4
M  V30 5 2 6 3
M  V30 6 2 7 1
M  V30 7 1 7 4
M  V30 8 1 8 5
M  V30 9 1 9 8
M  V30 10 1 10 6
M  V30 11 2 10 8
M  V30 12 1 11 1
M  V30 13 1 12 5
M  V30 14 1 13 6
M  V30 15 1 14 7
M  V30 16 1 15 10
M  V30 END BOND
M  V30 END CTAB
M  END
>  <i_epik_Tot_Q>  (1) 
0

>  <i_epik_Tot_abs_Q>  (1) 
2

>  <i_i_glide_confnum>  (1) 
1

>  <i_i_glide_lignum>  (1) 
59

>  <i_i_glide_posenum>  (1) 
134

>  <i_i_glide_rotatable_bonds>  (1) 
0

>  <i_lp_mmshare_version>  (1) 
72125

>  <i_m_source_file_index>  (1) 
53

>  <i_f3d_flags>  (1) 
0

>  <num_sample>  (1) 
100

>  <b_lp_Chiralities_Consistent>  (1) 
1

>  <r_epik_Charging_Adjusted_Penalty>  (1) 
1.0992902245007022e-07

>  <r_epik_Ionization_Penalty>  (1) 
1.0992902245007022e-07

>  <r_epik_Ionization_Penalty_Charging>  (1) 
1.0992902245007022e-07

>  <r_epik_Ionization_Penalty_Neutral>  (1) 
0

>  <r_epik_State_Penalty>  (1) 
-0

>  <r_glide_ring_energy>  (1) 
0

>  <r_i_docking_score>  (1) 
-6.0908179288864277

>  <r_i_glide_ecoul>  (1) 
-4.706044872308877

>  <r_i_glide_eff_state_penalty>  (1) 
-0

>  <r_i_glide_einternal>  (1) 
0

>  <r_i_glide_emodel>  (1) 
-28.528963960969364

>  <r_i_glide_emodel_strain>  (1) 
0

>  <r_i_glide_energy>  (1) 
-19.95812200459212

>  <r_i_glide_erotb>  (1) 
0

>  <r_i_glide_esite>  (1) 
0

>  <r_i_glide_evdw>  (1) 
-15.252077132283242

>  <r_i_glide_gscore>  (1) 
-6.0908179288864277

>  <r_i_glide_gscore_strain>  (1) 
0

>  <r_i_glide_hbond>  (1) 
0

>  <r_i_glide_ligand_efficiency>  (1) 
-0.60908179288864273

>  <r_i_glide_ligand_efficiency_ln>  (1) 
-1.8442576822039234

>  <r_i_glide_ligand_efficiency_sa>  (1) 
-1.3122269436661071

>  <r_i_glide_lipo>  (1) 
-1.3994295358745423

>  <r_i_glide_metal>  (1) 
-0

>  <r_i_glide_rewards>  (1) 
-3.2228778055513922

>  <r_lp_Energy>  (1) 
10.75684

>  <r_lp_tautomer_probability>  (1) 
1

>  <s_epik_cmdline>  (1) 
J2VwaWtfcHl0aG9uJywgJy1waHQnLCAnMS4wJywgJy1waCcsICc3LjQnLCAnLXRuJywgJzgnLCAnLW1hJywgJzUwMCcsICctaW1hZScsICc8aW5maWxlLm1hZT4nLCAnLW9tYWUnLCAnPG91dGZpbGUubWFlPic=

>  <s_epik_input>  (1) 
bzFbY0hdW2NIXWMoYzEyKVtjSF1bbitdKFtPLV0pW2NIXVtjSF0y

>  <s_glide_docking_method>  (1) 
confgen

>  <s_i_glide_gridfile>  (1) 
gpcr_drd2_6luq_protein_autoprepared_prepared

>  <s_lp_Force_Field>  (1) 
S-OPLS

>  <s_lp_Variant>  (1) 
Pocket2Mol_52-1

>  <s_m_source_file>  (1) 
generated_generic_title2_ligand_Pocket2Mol_2026-06-23_prepared.sdf

>  <GenAI_Model>  (1) 
Pocket2Mol

>  <Protein>  (1) 
generic_title2

$$$$
Pocket2Mol_50
     RDKit          3D

  0  0  0  0  0  0  0  0  0  0999 V3000
M  V30 BEGIN CTAB
M  V30 COUNTS 16 17 0 0 1
M  V30 BEGIN ATOM
M  V30 1 C 11.853143 9.717212 -5.282491 0
M  V30 2 O 10.575404 9.089478 -5.585618 0
M  V30 3 C 10.819742 8.669798 -6.828827 0
M  V30 4 C 12.050933 8.937499 -7.260280 0
M  V30 5 C 12.482647 8.564700 -8.544130 0
M  V30 6 C 9.878749 8.010123 -7.638497 0
M  V30 7 C 10.261991 7.623531 -8.945693 0
M  V30 8 O 9.375410 6.992516 -9.766163 0
M  V30 9 C 11.576345 7.900368 -9.399881 0
M  V30 10 O 12.812444 9.590227 -6.373555 0
M  V30 11 H 11.674695 10.778417 -5.106241 0
M  V30 12 H 12.271009 9.273188 -4.378057 0
M  V30 13 H 13.486238 8.790224 -8.874101 0
M  V30 14 H 8.881936 7.807159 -7.272238 0
M  V30 15 H 8.451926 7.207078 -9.585024 0
M  V30 16 H 11.880558 7.609533 -10.394360 0
M  V30 END ATOM
M  V30 BEGIN BOND
M  V30 1 1 2 1
M  V30 2 1 3 2
M  V30 3 2 4 3
M  V30 4 1 5 4
M  V30 5 1 6 3
M  V30 6 2 7 6
M  V30 7 1 8 7
M  V30 8 2 9 5
M  V30 9 1 9 7
M  V30 10 1 10 1
M  V30 11 1 10 4
M  V30 12 1 11 1
M  V30 13 1 12 1
M  V30 14 1 13 5
M  V30 15 1 14 6
M  V30 16 1 15 8
M  V30 17 1 16 9
M  V30 END BOND
M  V30 END CTAB
M  END
>  <i_epik_Tot_Q>  (1) 
0

>  <i_epik_Tot_abs_Q>  (1) 
0

>  <i_i_glide_confnum>  (1) 
1

>  <i_i_glide_lignum>  (1) 
57

>  <i_i_glide_posenum>  (1) 
308

>  <i_i_glide_rotatable_bonds>  (1) 
1

>  <i_lp_mmshare_version>  (1) 
72125

>  <i_m_source_file_index>  (1) 
51

>  <i_f3d_flags>  (1) 
0

>  <num_sample>  (1) 
100

>  <b_lp_Chiralities_Consistent>  (1) 
1

>  <r_epik_Charging_Adjusted_Penalty>  (1) 
0

>  <r_epik_Ionization_Penalty>  (1) 
0.0018243540331301816

>  <r_epik_Ionization_Penalty_Charging>  (1) 
0

>  <r_epik_Ionization_Penalty_Neutral>  (1) 
0.0018243540331301816

>  <r_epik_State_Penalty>  (1) 
-0

>  <r_glide_ring_energy>  (1) 
0

>  <r_i_docking_score>  (1) 
-6.0811663893190415

>  <r_i_glide_ecoul>  (1) 
-5.775185651275172

>  <r_i_glide_eff_state_penalty>  (1) 
-0

>  <r_i_glide_einternal>  (1) 
0.58318700350431907

>  <r_i_glide_emodel>  (1) 
-31.980548818381983

>  <r_i_glide_emodel_strain>  (1) 
0.16234198347171258

>  <r_i_glide_energy>  (1) 
-22.652997241987041

>  <r_i_glide_erotb>  (1) 
0

>  <r_i_glide_esite>  (1) 
0

>  <r_i_glide_evdw>  (1) 
-16.877811590711868

>  <r_i_glide_gscore>  (1) 
-6.0811663893190415

>  <r_i_glide_gscore_strain>  (1) 
0

>  <r_i_glide_hbond>  (1) 
-0.16

>  <r_i_glide_ligand_efficiency>  (1) 
-0.60811663893190415

>  <r_i_glide_ligand_efficiency_ln>  (1) 
-1.841335262555188

>  <r_i_glide_ligand_efficiency_sa>  (1) 
-1.310147582500488

>  <r_i_glide_lipo>  (1) 
-0.97766462875883897

>  <r_i_glide_metal>  (1) 
-0

>  <r_i_glide_rewards>  (1) 
-3.2333333333333334

>  <r_lp_Energy>  (1) 
16.555202999999999

>  <r_lp_tautomer_probability>  (1) 
1

>  <s_epik_Chemistry_Notes>  (1) 
This compound contains an acetal/aminal-like group ( X-CH(R)-Y where X, Y are N, S, or O) that may be acid/base labile, releasing an aldehyde.

>  <s_epik_cmdline>  (1) 
J2VwaWtfcHl0aG9uJywgJy1waHQnLCAnMS4wJywgJy1waCcsICc3LjQnLCAnLXRuJywgJzgnLCAnLW1hJywgJzUwMCcsICctaW1hZScsICc8aW5maWxlLm1hZT4nLCAnLW9tYWUnLCAnPG91dGZpbGUubWFlPic=

>  <s_epik_input>  (1) 
TzFbQ0gyXU9jKGMxMilbY0hdW2NIXWMoW2NIXTIpW09IXQ==

>  <s_glide_docking_method>  (1) 
confgen

>  <s_i_glide_gridfile>  (1) 
gpcr_drd2_6luq_protein_autoprepared_prepared

>  <s_lp_Force_Field>  (1) 
S-OPLS

>  <s_lp_Variant>  (1) 
Pocket2Mol_50-1

>  <s_m_source_file>  (1) 
generated_generic_title2_ligand_Pocket2Mol_2026-06-23_prepared.sdf

>  <GenAI_Model>  (1) 
Pocket2Mol

>  <Protein>  (1) 
generic_title2

$$$$
Pocket2Mol_0
     RDKit          3D

  0  0  0  0  0  0  0  0  0  0999 V3000
M  V30 BEGIN CTAB
M  V30 COUNTS 21 23 0 0 1
M  V30 BEGIN ATOM
M  V30 1 C 10.175410 7.555715 -9.442997 0
M  V30 2 O 10.694494 8.790227 -8.824157 0
M  V30 3 C 10.926271 8.393079 -7.553875 0
M  V30 4 C 10.567991 7.140326 -7.264357 0
M  V30 5 C 10.773812 6.595683 -5.997460 0
M  V30 6 C 9.955764 6.397380 -8.370297 0
M  V30 7 C 11.505870 9.225737 -6.588064 0
M  V30 8 C 11.375410 7.364727 -4.978520 0
M  V30 9 N 11.606827 6.824034 -3.752576 0
M  V30 10 C 12.175722 7.638746 -2.846123 0
M  V30 11 C 11.743722 8.737306 -5.278543 0
M  V30 12 C 12.520666 8.965702 -3.132632 0
M  V30 13 N 12.312123 9.529807 -4.337025 0
M  V30 14 H 10.902711 7.228438 -10.186820 0
M  V30 15 H 9.254712 7.769190 -9.984839 0
M  V30 16 H 10.479849 5.590228 -5.796685 0
M  V30 17 H 10.487868 5.476321 -8.604519 0
M  V30 18 H 8.899819 6.202570 -8.175641 0
M  V30 19 H 11.776187 10.238162 -6.842423 0
M  V30 20 H 12.359599 7.220854 -1.867467 0
M  V30 21 H 12.974714 9.590227 -2.380047 0
M  V30 END ATOM
M  V30 BEGIN BOND
M  V30 1 1 2 1
M  V30 2 1 3 2
M  V30 3 1 4 3
M  V30 4 2 5 4
M  V30 5 1 6 1
M  V30 6 1 6 4
M  V30 7 2 7 3
M  V30 8 1 8 5
M  V30 9 2 9 8
M  V30 10 1 10 9
M  V30 11 1 11 7
M  V30 12 1 11 8
M  V30 13 2 12 10
M  V30 14 2 13 11
M  V30 15 1 13 12
M  V30 16 1 14 1
M  V30 17 1 15 1
M  V30 18 1 16 5
M  V30 19 1 17 6
M  V30 20 1 18 6
M  V30 21 1 19 7
M  V30 22 1 20 10
M  V30 23 1 21 12
M  V30 END BOND
M  V30 END CTAB
M  END
>  <i_epik_Tot_Q>  (1) 
0

>  <i_epik_Tot_abs_Q>  (1) 
0

>  <i_i_glide_confnum>  (1) 
1

>  <i_i_glide_lignum>  (1) 
1

>  <i_i_glide_posenum>  (1) 
25

>  <i_i_glide_rotatable_bonds>  (1) 
0

>  <i_lp_mmshare_version>  (1) 
72125

>  <i_m_source_file_index>  (1) 
1

>  <i_f3d_flags>  (1) 
0

>  <num_sample>  (1) 
100

>  <b_lp_Chiralities_Consistent>  (1) 
1

>  <r_epik_Charging_Adjusted_Penalty>  (1) 
0

>  <r_epik_Ionization_Penalty>  (1) 
2.4588925185764017e-06

>  <r_epik_Ionization_Penalty_Charging>  (1) 
0

>  <r_epik_Ionization_Penalty_Neutral>  (1) 
2.4588925185764017e-06

>  <r_epik_State_Penalty>  (1) 
-0

>  <r_glide_ring_energy>  (1) 
0

>  <r_i_docking_score>  (1) 
-6.0735687731473424

>  <r_i_glide_ecoul>  (1) 
-1.3162998982182201

>  <r_i_glide_eff_state_penalty>  (1) 
-0

>  <r_i_glide_einternal>  (1) 
0

>  <r_i_glide_emodel>  (1) 
-34.647739969930761

>  <r_i_glide_emodel_strain>  (1) 
0

>  <r_i_glide_energy>  (1) 
-24.950439783723912

>  <r_i_glide_erotb>  (1) 
0

>  <r_i_glide_esite>  (1) 
0

>  <r_i_glide_evdw>  (1) 
-23.634139885505693

>  <r_i_glide_gscore>  (1) 
-6.0735687731473424

>  <r_i_glide_gscore_strain>  (1) 
0

>  <r_i_glide_hbond>  (1) 
0

>  <r_i_glide_ligand_efficiency>  (1) 
-0.46719759793441096

>  <r_i_glide_ligand_efficiency_ln>  (1) 
-1.7036900567564015

>  <r_i_glide_ligand_efficiency_sa>  (1) 
-1.0985379180429964

>  <r_i_glide_lipo>  (1) 
-1.9179761047645161

>  <r_i_glide_metal>  (1) 
-0

>  <r_i_glide_rewards>  (1) 
-2.7764406893748093

>  <r_lp_Energy>  (1) 
22.769921999999998

>  <r_lp_tautomer_probability>  (1) 
1

>  <s_epik_cmdline>  (1) 
J2VwaWtfcHl0aG9uJywgJy1waHQnLCAnMS4wJywgJy1waCcsICc3LjQnLCAnLXRuJywgJzgnLCAnLW1hJywgJzUwMCcsICctaW1hZScsICc8aW5maWxlLm1hZT4nLCAnLW9tYWUnLCAnPG91dGZpbGUubWFlPic=

>  <s_epik_input>  (1) 
TzFbQ0gyXVtDSDJdYyhjMTIpW2NIXWMzYyhbY0hdMiluW2NIXVtjSF1uMw==

>  <s_glide_docking_method>  (1) 
confgen

>  <s_i_glide_gridfile>  (1) 
gpcr_drd2_6luq_protein_autoprepared_prepared

>  <s_lp_Force_Field>  (1) 
S-OPLS

>  <s_lp_Variant>  (1) 
Pocket2Mol_0-1

>  <s_m_source_file>  (1) 
generated_generic_title2_ligand_Pocket2Mol_2026-06-23_prepared.sdf

>  <GenAI_Model>  (1) 
Pocket2Mol

>  <Protein>  (1) 
generic_title2

$$$$
Pocket2Mol_51
     RDKit          3D

  0  0  0  0  0  0  0  0  0  0999 V3000
M  V30 BEGIN CTAB
M  V30 COUNTS 15 16 0 0 1
M  V30 BEGIN ATOM
M  V30 1 C 9.917434 6.619484 -8.147540 0
M  V30 2 O 10.362073 5.995369 -6.910821 0
M  V30 3 C 10.859861 7.002199 -6.138182 0
M  V30 4 C 10.951752 8.246826 -6.706288 0
M  V30 5 C 11.448251 9.346589 -5.984580 0
M  V30 6 C 11.269398 6.790227 -4.808928 0
M  V30 7 C 11.775411 7.875149 -4.058524 0
M  V30 8 S 10.436864 8.390226 -8.331255 0
M  V30 9 F 12.175411 7.687242 -2.778429 0
M  V30 10 C 11.863117 9.159733 -4.647804 0
M  V30 11 H 10.288181 6.045211 -8.996310 0
M  V30 12 H 8.828552 6.572218 -8.183819 0
M  V30 13 H 11.513145 10.320767 -6.445720 0
M  V30 14 H 11.196536 5.808008 -4.366464 0
M  V30 15 H 12.248470 9.990228 -4.077815 0
M  V30 END ATOM
M  V30 BEGIN BOND
M  V30 1 1 2 1
M  V30 2 1 3 2
M  V30 3 2 4 3
M  V30 4 1 5 4
M  V30 5 1 6 3
M  V30 6 2 7 6
M  V30 7 1 8 1
M  V30 8 1 8 4
M  V30 9 1 9 7
M  V30 10 2 10 5
M  V30 11 1 10 7
M  V30 12 1 11 1
M  V30 13 1 12 1
M  V30 14 1 13 5
M  V30 15 1 14 6
M  V30 16 1 15 10
M  V30 END BOND
M  V30 END CTAB
M  END
>  <i_epik_Tot_Q>  (1) 
0

>  <i_epik_Tot_abs_Q>  (1) 
0

>  <i_i_glide_confnum>  (1) 
1

>  <i_i_glide_lignum>  (1) 
58

>  <i_i_glide_posenum>  (1) 
260

>  <i_i_glide_rotatable_bonds>  (1) 
0

>  <i_lp_mmshare_version>  (1) 
72125

>  <i_m_source_file_index>  (1) 
52

>  <i_f3d_flags>  (1) 
0

>  <num_sample>  (1) 
100

>  <b_lp_Chiralities_Consistent>  (1) 
1

>  <r_epik_Charging_Adjusted_Penalty>  (1) 
0

>  <r_epik_Ionization_Penalty>  (1) 
0

>  <r_epik_Ionization_Penalty_Charging>  (1) 
0

>  <r_epik_Ionization_Penalty_Neutral>  (1) 
0

>  <r_epik_State_Penalty>  (1) 
-0

>  <r_glide_ring_energy>  (1) 
0

>  <r_i_docking_score>  (1) 
-6.0716215393599571

>  <r_i_glide_ecoul>  (1) 
-0.28015575254450331

>  <r_i_glide_eff_state_penalty>  (1) 
-0

>  <r_i_glide_einternal>  (1) 
0

>  <r_i_glide_emodel>  (1) 
-28.118197788382311

>  <r_i_glide_emodel_strain>  (1) 
0

>  <r_i_glide_energy>  (1) 
-20.242443247562925

>  <r_i_glide_erotb>  (1) 
0

>  <r_i_glide_esite>  (1) 
0

>  <r_i_glide_evdw>  (1) 
-19.962287495018423

>  <r_i_glide_gscore>  (1) 
-6.0716215393599571

>  <r_i_glide_gscore_strain>  (1) 
0

>  <r_i_glide_hbond>  (1) 
0

>  <r_i_glide_ligand_efficiency>  (1) 
-0.60716215393599571

>  <r_i_glide_ligand_efficiency_ln>  (1) 
-1.8384451477843884

>  <r_i_glide_ligand_efficiency_sa>  (1) 
-1.3080912069141879

>  <r_i_glide_lipo>  (1) 
-1.6356741657089557

>  <r_i_glide_metal>  (1) 
-0

>  <r_i_glide_rewards>  (1) 
-3.3958096360184049

>  <r_lp_Energy>  (1) 
4.072584

>  <r_lp_tautomer_probability>  (1) 
1

>  <s_epik_Chemistry_Notes>  (1) 
This compound contains an acetal/aminal-like group ( X-CH(R)-Y where X, Y are N, S, or O) that may be acid/base labile, releasing an aldehyde.

>  <s_epik_cmdline>  (1) 
J2VwaWtfcHl0aG9uJywgJy1waHQnLCAnMS4wJywgJy1waCcsICc3LjQnLCAnLXRuJywgJzgnLCAnLW1hJywgJzUwMCcsICctaW1hZScsICc8aW5maWxlLm1hZT4nLCAnLW9tYWUnLCAnPG91dGZpbGUubWFlPic=

>  <s_epik_input>  (1) 
TzFbQ0gyXVNjKGMxMilbY0hdW2NIXWMoRilbY0hdMg==

>  <s_glide_docking_method>  (1) 
confgen

>  <s_i_glide_gridfile>  (1) 
gpcr_drd2_6luq_protein_autoprepared_prepared

>  <s_lp_Force_Field>  (1) 
S-OPLS

>  <s_lp_Variant>  (1) 
Pocket2Mol_51-1

>  <s_m_source_file>  (1) 
generated_generic_title2_ligand_Pocket2Mol_2026-06-23_prepared.sdf

>  <GenAI_Model>  (1) 
Pocket2Mol

>  <Protein>  (1) 
generic_title2

$$$$
Pocket2Mol_63
     RDKit          3D

  0  0  0  0  0  0  0  0  0  0999 V3000
M  V30 BEGIN CTAB
M  V30 COUNTS 19 20 0 0 1
M  V30 BEGIN ATOM
M  V30 1 C 12.575405 8.039785 -2.013298 0
M  V30 2 O 12.575219 9.159564 -2.818489 0
M  V30 3 C 12.088936 8.780275 -4.042347 0
M  V30 4 C 11.775468 7.412712 -4.017554 0
M  V30 5 C 11.245463 6.854699 -5.216558 0
M  V30 6 C 11.061046 7.675275 -6.377649 0
M  V30 7 O 10.553941 7.159136 -7.551520 0
M  V30 8 C 11.917044 9.593986 -5.159031 0
M  V30 9 C 12.096491 6.938710 -2.702353 0
M  V30 10 C 11.404688 9.038692 -6.334201 0
M  V30 11 C 10.178513 5.801260 -7.622603 0
M  V30 12 H 12.937186 8.185984 -1.005711 0
M  V30 13 H 10.986898 5.807736 -5.241534 0
M  V30 14 H 12.174155 10.637924 -5.120597 0
M  V30 15 H 11.979832 5.929662 -2.333765 0
M  V30 16 H 11.272969 9.649976 -7.207724 0
M  V30 17 H 9.813414 5.577718 -8.623692 0
M  V30 18 H 11.057141 5.190227 -7.447848 0
M  V30 19 H 9.384709 5.572612 -6.911682 0
M  V30 END ATOM
M  V30 BEGIN BOND
M  V30 1 1 2 1
M  V30 2 1 3 2
M  V30 3 1 4 3
M  V30 4 2 5 4
M  V30 5 1 6 5
M  V30 6 1 7 6
M  V30 7 2 8 3
M  V30 8 2 9 1
M  V30 9 1 9 4
M  V30 10 2 10 6
M  V30 11 1 10 8
M  V30 12 1 11 7
M  V30 13 1 12 1
M  V30 14 1 13 5
M  V30 15 1 14 8
M  V30 16 1 15 9
M  V30 17 1 16 10
M  V30 18 1 17 11
M  V30 19 1 18 11
M  V30 20 1 19 11
M  V30 END BOND
M  V30 END CTAB
M  END
>  <i_epik_Tot_Q>  (1) 
0

>  <i_epik_Tot_abs_Q>  (1) 
0

>  <i_i_glide_confnum>  (1) 
1

>  <i_i_glide_lignum>  (1) 
70

>  <i_i_glide_posenum>  (1) 
3

>  <i_i_glide_rotatable_bonds>  (1) 
1

>  <i_lp_mmshare_version>  (1) 
72125

>  <i_m_source_file_index>  (1) 
64

>  <i_f3d_flags>  (1) 
0

>  <num_sample>  (1) 
100

>  <b_lp_Chiralities_Consistent>  (1) 
1

>  <r_epik_Charging_Adjusted_Penalty>  (1) 
0

>  <r_epik_Ionization_Penalty>  (1) 
0

>  <r_epik_Ionization_Penalty_Charging>  (1) 
0

>  <r_epik_Ionization_Penalty_Neutral>  (1) 
0

>  <r_epik_State_Penalty>  (1) 
-0

>  <r_glide_ring_energy>  (1) 
0

>  <r_i_docking_score>  (1) 
-6.0645659385161217

>  <r_i_glide_ecoul>  (1) 
-0.26791604208111858

>  <r_i_glide_eff_state_penalty>  (1) 
-0

>  <r_i_glide_einternal>  (1) 
0.0021600733463718047

>  <r_i_glide_emodel>  (1) 
-31.737892704368079

>  <r_i_glide_emodel_strain>  (1) 
0

>  <r_i_glide_energy>  (1) 
-22.474841116439052

>  <r_i_glide_erotb>  (1) 
0

>  <r_i_glide_esite>  (1) 
0

>  <r_i_glide_evdw>  (1) 
-22.206925074357933

>  <r_i_glide_gscore>  (1) 
-6.0645659385161217

>  <r_i_glide_gscore_strain>  (1) 
0

>  <r_i_glide_hbond>  (1) 
0

>  <r_i_glide_ligand_efficiency>  (1) 
-0.55132417622873831

>  <r_i_glide_ligand_efficiency_ln>  (1) 
-1.7848007226901927

>  <r_i_glide_ligand_efficiency_sa>  (1) 
-1.2261339913822429

>  <r_i_glide_lipo>  (1) 
-2.3896183547096994

>  <r_i_glide_metal>  (1) 
-0

>  <r_i_glide_rewards>  (1) 
-2.5244139237763568

>  <r_lp_Energy>  (1) 
14.639571

>  <r_lp_tautomer_probability>  (1) 
1

>  <s_epik_cmdline>  (1) 
J2VwaWtfcHl0aG9uJywgJy1waHQnLCAnMS4wJywgJy1waCcsICc3LjQnLCAnLXRuJywgJzgnLCAnLW1hJywgJzUwMCcsICctaW1hZScsICc8aW5maWxlLm1hZT4nLCAnLW9tYWUnLCAnPG91dGZpbGUubWFlPic=

>  <s_epik_input>  (1) 
bzFbY0hdW2NIXWMoYzEyKVtjSF1jKE9bQ0gzXSlbY0hdW2NIXTI=

>  <s_glide_docking_method>  (1) 
confgen

>  <s_i_glide_gridfile>  (1) 
gpcr_drd2_6luq_protein_autoprepared_prepared

>  <s_lp_Force_Field>  (1) 
S-OPLS

>  <s_lp_Variant>  (1) 
Pocket2Mol_63-1

>  <s_m_source_file>  (1) 
generated_generic_title2_ligand_Pocket2Mol_2026-06-23_prepared.sdf

>  <GenAI_Model>  (1) 
Pocket2Mol

>  <Protein>  (1) 
generic_title2

$$$$
Pocket2Mol_76
     RDKit          3D

  0  0  0  0  0  0  0  0  0  0999 V3000
M  V30 BEGIN CTAB
M  V30 COUNTS 20 21 0 0 1
M  V30 BEGIN ATOM
M  V30 1 C 9.477724 6.660641 -7.534243 0
M  V30 2 O 10.290478 6.107769 -6.513520 0
M  V30 3 C 10.899349 7.023158 -5.689741 0
M  V30 4 C 10.261647 7.758049 -8.250064 0
M  V30 5 O 10.555295 8.790227 -7.317817 0
M  V30 6 C 11.033015 8.373225 -6.094237 0
M  V30 7 C 11.396959 6.614502 -4.436911 0
M  V30 8 C 12.037074 7.542026 -3.590706 0
M  V30 9 C 11.659116 9.297856 -5.243806 0
M  V30 10 O 11.775418 10.590666 -5.634703 0
M  V30 11 O 12.524570 7.139376 -2.382859 0
M  V30 12 C 12.167626 8.885363 -3.993274 0
M  V30 13 H 9.185184 5.873054 -8.228139 0
M  V30 14 H 8.575395 7.071450 -7.088350 0
M  V30 15 H 11.184203 7.364786 -8.680507 0
M  V30 16 H 9.669390 8.172551 -9.066611 0
M  V30 17 H 11.293027 5.590251 -4.128510 0
M  V30 18 H 11.375143 10.724249 -6.481217 0
M  V30 19 H 12.341229 6.230880 -2.191110 0
M  V30 20 H 12.654139 9.598835 -3.344535 0
M  V30 END ATOM
M  V30 BEGIN BOND
M  V30 1 1 2 1
M  V30 2 1 3 2
M  V30 3 1 4 1
M  V30 4 1 5 4
M  V30 5 1 6 3
M  V30 6 1 6 5
M  V30 7 2 7 3
M  V30 8 1 8 7
M  V30 9 2 9 6
M  V30 10 1 10 9
M  V30 11 1 11 8
M  V30 12 2 12 8
M  V30 13 1 12 9
M  V30 14 1 13 1
M  V30 15 1 14 1
M  V30 16 1 15 4
M  V30 17 1 16 4
M  V30 18 1 17 7
M  V30 19 1 18 10
M  V30 20 1 19 11
M  V30 21 1 20 12
M  V30 END BOND
M  V30 END CTAB
M  END
>  <i_epik_Tot_Q>  (1) 
0

>  <i_epik_Tot_abs_Q>  (1) 
0

>  <i_i_glide_confnum>  (1) 
2

>  <i_i_glide_lignum>  (1) 
83

>  <i_i_glide_posenum>  (1) 
134

>  <i_i_glide_rotatable_bonds>  (1) 
2

>  <i_lp_mmshare_version>  (1) 
72125

>  <i_m_source_file_index>  (1) 
77

>  <i_f3d_flags>  (1) 
0

>  <num_sample>  (1) 
100

>  <b_lp_Chiralities_Consistent>  (1) 
1

>  <r_epik_Charging_Adjusted_Penalty>  (1) 
0

>  <r_epik_Ionization_Penalty>  (1) 
0.012400157081266662

>  <r_epik_Ionization_Penalty_Charging>  (1) 
0

>  <r_epik_Ionization_Penalty_Neutral>  (1) 
0.012400157081266662

>  <r_epik_State_Penalty>  (1) 
-0

>  <r_glide_ring_energy>  (1) 
0.0030882677572799519

>  <r_i_docking_score>  (1) 
-6.0616641100673796

>  <r_i_glide_ecoul>  (1) 
-1.8177224284172588

>  <r_i_glide_eff_state_penalty>  (1) 
-0

>  <r_i_glide_einternal>  (1) 
0.020748073777058507

>  <r_i_glide_emodel>  (1) 
-34.65295375832909

>  <r_i_glide_emodel_strain>  (1) 
0

>  <r_i_glide_energy>  (1) 
-23.681791640539025

>  <r_i_glide_erotb>  (1) 
0

>  <r_i_glide_esite>  (1) 
0

>  <r_i_glide_evdw>  (1) 
-21.864069212121766

>  <r_i_glide_gscore>  (1) 
-6.0616641100673796

>  <r_i_glide_gscore_strain>  (1) 
0

>  <r_i_glide_hbond>  (1) 
0

>  <r_i_glide_ligand_efficiency>  (1) 
-0.50513867583894834

>  <r_i_glide_ligand_efficiency_ln>  (1) 
-1.7394050168994148

>  <r_i_glide_ligand_efficiency_sa>  (1) 
-1.1564788733947495

>  <r_i_glide_lipo>  (1) 
-1.8624689518653694

>  <r_i_glide_metal>  (1) 
-0

>  <r_i_glide_rewards>  (1) 
-2.8333333333333335

>  <r_lp_Energy>  (1) 
12.367407

>  <r_lp_tautomer_probability>  (1) 
1

>  <s_epik_cmdline>  (1) 
J2VwaWtfcHl0aG9uJywgJy1waHQnLCAnMS4wJywgJy1waCcsICc3LjQnLCAnLXRuJywgJzgnLCAnLW1hJywgJzUwMCcsICctaW1hZScsICc8aW5maWxlLm1hZT4nLCAnLW9tYWUnLCAnPG91dGZpbGUubWFlPic=

>  <s_epik_input>  (1) 
TzFbQ0gyXVtDSDJdT2MoYzEyKWMoW09IXSlbY0hdYyhbY0hdMilbT0hd

>  <s_glide_docking_method>  (1) 
confgen

>  <s_i_glide_gridfile>  (1) 
gpcr_drd2_6luq_protein_autoprepared_prepared

>  <s_lp_Force_Field>  (1) 
S-OPLS

>  <s_lp_Variant>  (1) 
Pocket2Mol_76-1

>  <s_m_source_file>  (1) 
generated_generic_title2_ligand_Pocket2Mol_2026-06-23_prepared.sdf

>  <GenAI_Model>  (1) 
Pocket2Mol

>  <Protein>  (1) 
generic_title2

$$$$
Pocket2Mol_51
     RDKit          3D

  0  0  0  0  0  0  0  0  0  0999 V3000
M  V30 BEGIN CTAB
M  V30 COUNTS 15 16 0 0 1
M  V30 BEGIN ATOM
M  V30 1 C 10.524928 6.974166 -7.106582 0
M  V30 2 O 10.974937 6.239131 -5.935632 0
M  V30 3 C 11.373512 7.171383 -5.029586 0
M  V30 4 C 11.375411 8.481142 -5.433832 0
M  V30 5 C 11.771653 9.512618 -4.570291 0
M  V30 6 C 11.775411 6.823404 -3.727627 0
M  V30 7 C 12.181959 7.840614 -2.836585 0
M  V30 8 S 10.883310 8.790216 -7.036001 0
M  V30 9 F 12.575416 7.526254 -1.585025 0
M  V30 10 C 12.177170 9.190223 -3.257983 0
M  V30 11 H 10.984630 6.549870 -7.998963 0
M  V30 12 H 9.447866 6.835840 -7.208043 0
M  V30 13 H 11.766630 10.538414 -4.906007 0
M  V30 14 H 11.775148 5.790470 -3.413280 0
M  V30 15 H 12.485718 9.970806 -2.578419 0
M  V30 END ATOM
M  V30 BEGIN BOND
M  V30 1 1 2 1
M  V30 2 1 3 2
M  V30 3 2 4 3
M  V30 4 1 5 4
M  V30 5 1 6 3
M  V30 6 2 7 6
M  V30 7 1 8 1
M  V30 8 1 8 4
M  V30 9 1 9 7
M  V30 10 2 10 5
M  V30 11 1 10 7
M  V30 12 1 11 1
M  V30 13 1 12 1
M  V30 14 1 13 5
M  V30 15 1 14 6
M  V30 16 1 15 10
M  V30 END BOND
M  V30 END CTAB
M  END
>  <i_epik_Tot_Q>  (1) 
0

>  <i_epik_Tot_abs_Q>  (1) 
0

>  <i_i_glide_confnum>  (1) 
1

>  <i_i_glide_lignum>  (1) 
58

>  <i_i_glide_posenum>  (1) 
345

>  <i_i_glide_rotatable_bonds>  (1) 
0

>  <i_lp_mmshare_version>  (1) 
72125

>  <i_m_source_file_index>  (1) 
52

>  <i_f3d_flags>  (1) 
0

>  <num_sample>  (1) 
100

>  <b_lp_Chiralities_Consistent>  (1) 
1

>  <r_epik_Charging_Adjusted_Penalty>  (1) 
0

>  <r_epik_Ionization_Penalty>  (1) 
0

>  <r_epik_Ionization_Penalty_Charging>  (1) 
0

>  <r_epik_Ionization_Penalty_Neutral>  (1) 
0

>  <r_epik_State_Penalty>  (1) 
-0

>  <r_glide_ring_energy>  (1) 
0

>  <r_i_docking_score>  (1) 
-6.0589240657696584

>  <r_i_glide_ecoul>  (1) 
-0.64788074775860349

>  <r_i_glide_eff_state_penalty>  (1) 
-0

>  <r_i_glide_einternal>  (1) 
0

>  <r_i_glide_emodel>  (1) 
-28.096848893191527

>  <r_i_glide_emodel_strain>  (1) 
0

>  <r_i_glide_energy>  (1) 
-20.237564777058108

>  <r_i_glide_erotb>  (1) 
0

>  <r_i_glide_esite>  (1) 
0

>  <r_i_glide_evdw>  (1) 
-19.589684029299505

>  <r_i_glide_gscore>  (1) 
-6.0589240657696584

>  <r_i_glide_gscore_strain>  (1) 
0

>  <r_i_glide_hbond>  (1) 
0

>  <r_i_glide_ligand_efficiency>  (1) 
-0.60589240657696586

>  <r_i_glide_ligand_efficiency_ln>  (1) 
-1.8346004403104661

>  <r_i_glide_ligand_efficiency_sa>  (1) 
-1.3053556191563176

>  <r_i_glide_lipo>  (1) 
-2.0992201622515658

>  <r_i_glide_metal>  (1) 
-0

>  <r_i_glide_rewards>  (1) 
-2.8830375898893279

>  <r_lp_Energy>  (1) 
4.072584

>  <r_lp_tautomer_probability>  (1) 
1

>  <s_epik_Chemistry_Notes>  (1) 
This compound contains an acetal/aminal-like group ( X-CH(R)-Y where X, Y are N, S, or O) that may be acid/base labile, releasing an aldehyde.

>  <s_epik_cmdline>  (1) 
J2VwaWtfcHl0aG9uJywgJy1waHQnLCAnMS4wJywgJy1waCcsICc3LjQnLCAnLXRuJywgJzgnLCAnLW1hJywgJzUwMCcsICctaW1hZScsICc8aW5maWxlLm1hZT4nLCAnLW9tYWUnLCAnPG91dGZpbGUubWFlPic=

>  <s_epik_input>  (1) 
TzFbQ0gyXVNjKGMxMilbY0hdW2NIXWMoRilbY0hdMg==

>  <s_glide_docking_method>  (1) 
confgen

>  <s_i_glide_gridfile>  (1) 
gpcr_drd2_6luq_protein_autoprepared_prepared

>  <s_lp_Force_Field>  (1) 
S-OPLS

>  <s_lp_Variant>  (1) 
Pocket2Mol_51-1

>  <s_m_source_file>  (1) 
generated_generic_title2_ligand_Pocket2Mol_2026-06-23_prepared.sdf

>  <GenAI_Model>  (1) 
Pocket2Mol

>  <Protein>  (1) 
generic_title2

$$$$
Pocket2Mol_32
     RDKit          3D

  0  0  0  0  0  0  0  0  0  0999 V3000
M  V30 BEGIN CTAB
M  V30 COUNTS 17 18 0 0 1
M  V30 BEGIN ATOM
M  V30 1 C 11.111065 9.077115 -6.477483 0
M  V30 2 O 11.799493 9.791489 -5.381209 0
M  V30 3 C 11.889937 8.824376 -4.443077 0
M  V30 4 C 11.375410 7.623899 -4.785025 0
M  V30 5 C 11.402273 6.536240 -3.900977 0
M  V30 6 C 10.796368 7.554554 -6.127252 0
M  V30 7 C 12.479296 9.030672 -3.185023 0
M  V30 8 C 12.528017 7.961382 -2.264946 0
M  V30 9 C 11.985020 6.704586 -2.624474 0
M  V30 10 H 10.175417 9.590227 -6.691160 0
M  V30 11 H 11.718479 9.140998 -7.380934 0
M  V30 12 H 10.981573 5.590227 -4.190905 0
M  V30 13 H 11.329381 6.847330 -6.763489 0
M  V30 14 H 9.728872 7.330887 -6.100057 0
M  V30 15 H 12.888505 9.990227 -2.924648 0
M  V30 16 H 12.975410 8.102482 -1.292305 0
M  V30 17 H 12.014673 5.879381 -1.927736 0
M  V30 END ATOM
M  V30 BEGIN BOND
M  V30 1 1 2 1
M  V30 2 1 3 2
M  V30 3 1 4 3
M  V30 4 2 5 4
M  V30 5 1 6 1
M  V30 6 1 6 4
M  V30 7 2 7 3
M  V30 8 1 8 7
M  V30 9 1 9 5
M  V30 10 2 9 8
M  V30 11 1 10 1
M  V30 12 1 11 1
M  V30 13 1 12 5
M  V30 14 1 13 6
M  V30 15 1 14 6
M  V30 16 1 15 7
M  V30 17 1 16 8
M  V30 18 1 17 9
M  V30 END BOND
M  V30 END CTAB
M  END
>  <i_epik_Tot_Q>  (1) 
0

>  <i_epik_Tot_abs_Q>  (1) 
0

>  <i_i_glide_confnum>  (1) 
1

>  <i_i_glide_lignum>  (1) 
36

>  <i_i_glide_posenum>  (1) 
297

>  <i_i_glide_rotatable_bonds>  (1) 
0

>  <i_lp_mmshare_version>  (1) 
72125

>  <i_m_source_file_index>  (1) 
33

>  <i_f3d_flags>  (1) 
0

>  <num_sample>  (1) 
100

>  <b_lp_Chiralities_Consistent>  (1) 
1

>  <r_epik_Charging_Adjusted_Penalty>  (1) 
0

>  <r_epik_Ionization_Penalty>  (1) 
0

>  <r_epik_Ionization_Penalty_Charging>  (1) 
0

>  <r_epik_Ionization_Penalty_Neutral>  (1) 
0

>  <r_epik_State_Penalty>  (1) 
-0

>  <r_glide_ring_energy>  (1) 
0

>  <r_i_docking_score>  (1) 
-6.0561202402154786

>  <r_i_glide_ecoul>  (1) 
-1.5946471631240555

>  <r_i_glide_eff_state_penalty>  (1) 
-0

>  <r_i_glide_einternal>  (1) 
0

>  <r_i_glide_emodel>  (1) 
-27.843809100115028

>  <r_i_glide_emodel_strain>  (1) 
0

>  <r_i_glide_energy>  (1) 
-20.023247291358192

>  <r_i_glide_erotb>  (1) 
0

>  <r_i_glide_esite>  (1) 
0

>  <r_i_glide_evdw>  (1) 
-18.428600128234137

>  <r_i_glide_gscore>  (1) 
-6.0561202402154786

>  <r_i_glide_gscore_strain>  (1) 
0

>  <r_i_glide_hbond>  (1) 
0

>  <r_i_glide_ligand_efficiency>  (1) 
-0.6729022489128309

>  <r_i_glide_ligand_efficiency_ln>  (1) 
-1.8941804348511417

>  <r_i_glide_ligand_efficiency_sa>  (1) 
-1.3996930824588256

>  <r_i_glide_lipo>  (1) 
-2.1871598260018299

>  <r_i_glide_metal>  (1) 
-0

>  <r_i_glide_rewards>  (1) 
-2.7083333333333335

>  <r_lp_Energy>  (1) 
11.954839999999999

>  <r_lp_tautomer_probability>  (1) 
1

>  <s_epik_cmdline>  (1) 
J2VwaWtfcHl0aG9uJywgJy1waHQnLCAnMS4wJywgJy1waCcsICc3LjQnLCAnLXRuJywgJzgnLCAnLW1hJywgJzUwMCcsICctaW1hZScsICc8aW5maWxlLm1hZT4nLCAnLW9tYWUnLCAnPG91dGZpbGUubWFlPic=

>  <s_epik_input>  (1) 
TzFbQ0gyXVtDSDJdYyhjMTIpW2NIXVtjSF1bY0hdW2NIXTI=

>  <s_glide_docking_method>  (1) 
confgen

>  <s_i_glide_gridfile>  (1) 
gpcr_drd2_6luq_protein_autoprepared_prepared

>  <s_lp_Force_Field>  (1) 
S-OPLS

>  <s_lp_Variant>  (1) 
Pocket2Mol_32-1

>  <s_m_source_file>  (1) 
generated_generic_title2_ligand_Pocket2Mol_2026-06-23_prepared.sdf

>  <GenAI_Model>  (1) 
Pocket2Mol

>  <Protein>  (1) 
generic_title2

$$$$
Pocket2Mol_90
     RDKit          3D

  0  0  0  0  0  0  0  0  0  0999 V3000
M  V30 BEGIN CTAB
M  V30 COUNTS 23 24 0 0 1
M  V30 BEGIN ATOM
M  V30 1 C 12.389279 8.477175 -2.001197 0
M  V30 2 O 12.175394 7.121919 -2.535737 0
M  V30 3 C 11.775410 7.383791 -3.800723 0
M  V30 4 C 11.775413 8.675729 -4.162139 0
M  V30 5 C 11.375414 9.084891 -5.449913 0
M  V30 6 C 12.215470 9.590226 -3.126126 0
M  V30 7 C 11.375409 6.390143 -4.683527 0
M  V30 8 C 10.962393 8.100583 -6.382013 0
M  V30 9 N 10.542563 8.522501 -7.698956 0
M  V30 10 C 10.964416 6.732224 -5.983752 0
M  V30 11 C 10.165762 7.706703 -8.717729 0
M  V30 12 O 10.177197 6.484149 -8.683930 0
M  V30 13 N 9.775408 8.390133 -9.786016 0
M  V30 14 H 11.665779 8.643109 -1.203667 0
M  V30 15 H 13.375469 8.545243 -1.542360 0
M  V30 16 H 11.381747 10.130967 -5.720331 0
M  V30 17 H 13.182794 9.990224 -3.416310 0
M  V30 18 H 11.482495 10.359667 -2.877745 0
M  V30 19 H 11.375199 5.366648 -4.371659 0
M  V30 20 H 10.512784 9.514683 -7.862053 0
M  V30 21 H 10.653707 5.952213 -6.644691 0
M  V30 22 H 9.764261 9.394043 -9.768715 0
M  V30 23 H 9.450484 7.892833 -10.601348 0
M  V30 END ATOM
M  V30 BEGIN BOND
M  V30 1 1 2 1
M  V30 2 1 3 2
M  V30 3 2 4 3
M  V30 4 1 5 4
M  V30 5 1 6 1
M  V30 6 1 6 4
M  V30 7 1 7 3
M  V30 8 2 8 5
M  V30 9 1 9 8
M  V30 10 2 10 7
M  V30 11 1 10 8
M  V30 12 1 11 9
M  V30 13 2 12 11
M  V30 14 1 13 11
M  V30 15 1 14 1
M  V30 16 1 15 1
M  V30 17 1 16 5
M  V30 18 1 17 6
M  V30 19 1 18 6
M  V30 20 1 19 7
M  V30 21 1 20 9
M  V30 22 1 21 10
M  V30 23 1 22 13
M  V30 24 1 23 13
M  V30 END BOND
M  V30 END CTAB
M  END
>  <i_epik_Tot_Q>  (1) 
0

>  <i_epik_Tot_abs_Q>  (1) 
0

>  <i_i_glide_confnum>  (1) 
1

>  <i_i_glide_lignum>  (1) 
97

>  <i_i_glide_posenum>  (1) 
79

>  <i_i_glide_rotatable_bonds>  (1) 
2

>  <i_lp_mmshare_version>  (1) 
72125

>  <i_m_source_file_index>  (1) 
91

>  <i_f3d_flags>  (1) 
0

>  <num_sample>  (1) 
100

>  <b_lp_Chiralities_Consistent>  (1) 
1

>  <r_epik_Charging_Adjusted_Penalty>  (1) 
0

>  <r_epik_Ionization_Penalty>  (1) 
1.9038757045197726e-05

>  <r_epik_Ionization_Penalty_Charging>  (1) 
0

>  <r_epik_Ionization_Penalty_Neutral>  (1) 
1.9038757045197726e-05

>  <r_epik_State_Penalty>  (1) 
-0

>  <r_glide_ring_energy>  (1) 
0

>  <r_i_docking_score>  (1) 
-6.0535959302550744

>  <r_i_glide_ecoul>  (1) 
1.3385516987917978

>  <r_i_glide_eff_state_penalty>  (1) 
-0

>  <r_i_glide_einternal>  (1) 
0.14348988846148991

>  <r_i_glide_emodel>  (1) 
-32.384616640836981

>  <r_i_glide_emodel_strain>  (1) 
1.055910558989126e-08

>  <r_i_glide_energy>  (1) 
-21.79948010877315

>  <r_i_glide_erotb>  (1) 
0

>  <r_i_glide_esite>  (1) 
-0.16454089700138264

>  <r_i_glide_evdw>  (1) 
-23.138031807564946

>  <r_i_glide_gscore>  (1) 
-6.0535959302550744

>  <r_i_glide_gscore_strain>  (1) 
0

>  <r_i_glide_hbond>  (1) 
0

>  <r_i_glide_ligand_efficiency>  (1) 
-0.46566122540423649

>  <r_i_glide_ligand_efficiency_ln>  (1) 
-1.6980874966946535

>  <r_i_glide_ligand_efficiency_sa>  (1) 
-1.0949253920195359

>  <r_i_glide_lipo>  (1) 
-2.2946997278640455

>  <r_i_glide_metal>  (1) 
-0

>  <r_i_glide_rewards>  (1) 
-2.6382364698301686

>  <r_lp_Energy>  (1) 
13.450968999999999

>  <r_lp_tautomer_probability>  (1) 
1

>  <s_epik_cmdline>  (1) 
J2VwaWtfcHl0aG9uJywgJy1waHQnLCAnMS4wJywgJy1waCcsICc3LjQnLCAnLXRuJywgJzgnLCAnLW1hJywgJzUwMCcsICctaW1hZScsICc8aW5maWxlLm1hZT4nLCAnLW9tYWUnLCAnPG91dGZpbGUubWFlPic=

>  <s_epik_input>  (1) 
TzFbQ0gyXVtDSDJdYyhjMTIpW2NIXWMoW2NIXVtjSF0yKVtOSF1DKD1PKVtOSDJd

>  <s_glide_docking_method>  (1) 
confgen

>  <s_i_glide_gridfile>  (1) 
gpcr_drd2_6luq_protein_autoprepared_prepared

>  <s_lp_Force_Field>  (1) 
S-OPLS

>  <s_lp_Variant>  (1) 
Pocket2Mol_90-1

>  <s_m_source_file>  (1) 
generated_generic_title2_ligand_Pocket2Mol_2026-06-23_prepared.sdf

>  <GenAI_Model>  (1) 
Pocket2Mol

>  <Protein>  (1) 
generic_title2

$$$$
Pocket2Mol_58
     RDKit          3D

  0  0  0  0  0  0  0  0  0  0999 V3000
M  V30 BEGIN CTAB
M  V30 COUNTS 18 19 0 0 1
M  V30 BEGIN ATOM
M  V30 1 C 10.244628 8.390227 -8.157639 0
M  V30 2 O 10.997809 9.158140 -7.184918 0
M  V30 3 C 11.375410 8.628519 -5.959083 0
M  V30 4 C 10.974240 7.326631 -5.585043 0
M  V30 5 C 11.375410 6.795358 -4.341372 0
M  V30 6 C 12.166895 9.396889 -5.082758 0
M  V30 7 C 12.566027 8.867008 -3.838752 0
M  V30 8 C 10.153190 6.558001 -6.487705 0
M  V30 9 C 12.175410 7.565396 -3.469605 0
M  V30 10 C 9.804337 7.034971 -7.673598 0
M  V30 11 H 10.849182 8.266208 -9.056115 0
M  V30 12 H 9.357940 8.956395 -8.443359 0
M  V30 13 H 11.070497 5.799523 -4.055153 0
M  V30 14 H 12.471106 10.390227 -5.367985 0
M  V30 15 H 13.174709 9.458364 -3.170043 0
M  V30 16 H 9.825380 5.590227 -6.170214 0
M  V30 17 H 12.482857 7.158183 -2.517490 0
M  V30 18 H 9.183379 6.449535 -8.337199 0
M  V30 END ATOM
M  V30 BEGIN BOND
M  V30 1 1 2 1
M  V30 2 1 3 2
M  V30 3 1 4 3
M  V30 4 2 5 4
M  V30 5 2 6 3
M  V30 6 1 7 6
M  V30 7 1 8 4
M  V30 8 1 9 5
M  V30 9 2 9 7
M  V30 10 1 10 1
M  V30 11 2 10 8
M  V30 12 1 11 1
M  V30 13 1 12 1
M  V30 14 1 13 5
M  V30 15 1 14 6
M  V30 16 1 15 7
M  V30 17 1 16 8
M  V30 18 1 17 9
M  V30 19 1 18 10
M  V30 END BOND
M  V30 END CTAB
M  END
>  <i_epik_Tot_Q>  (1) 
0

>  <i_epik_Tot_abs_Q>  (1) 
0

>  <i_i_glide_confnum>  (1) 
1

>  <i_i_glide_lignum>  (1) 
65

>  <i_i_glide_posenum>  (1) 
142

>  <i_i_glide_rotatable_bonds>  (1) 
0

>  <i_lp_mmshare_version>  (1) 
72125

>  <i_m_source_file_index>  (1) 
59

>  <i_f3d_flags>  (1) 
0

>  <num_sample>  (1) 
100

>  <b_lp_Chiralities_Consistent>  (1) 
1

>  <r_epik_Charging_Adjusted_Penalty>  (1) 
0

>  <r_epik_Ionization_Penalty>  (1) 
0

>  <r_epik_Ionization_Penalty_Charging>  (1) 
0

>  <r_epik_Ionization_Penalty_Neutral>  (1) 
0

>  <r_epik_State_Penalty>  (1) 
-0

>  <r_glide_ring_energy>  (1) 
0

>  <r_i_docking_score>  (1) 
-6.0495098071924582

>  <r_i_glide_ecoul>  (1) 
-1.4729170857172147

>  <r_i_glide_eff_state_penalty>  (1) 
-0

>  <r_i_glide_einternal>  (1) 
0

>  <r_i_glide_emodel>  (1) 
-27.016829423603276

>  <r_i_glide_emodel_strain>  (1) 
0

>  <r_i_glide_energy>  (1) 
-19.489947160759026

>  <r_i_glide_erotb>  (1) 
0

>  <r_i_glide_esite>  (1) 
0

>  <r_i_glide_evdw>  (1) 
-18.017030075041813

>  <r_i_glide_gscore>  (1) 
-6.0495098071924582

>  <r_i_glide_gscore_strain>  (1) 
0

>  <r_i_glide_hbond>  (1) 
0

>  <r_i_glide_ligand_efficiency>  (1) 
-0.6049509807192458

>  <r_i_glide_ligand_efficiency_ln>  (1) 
-1.8317498677098778

>  <r_i_glide_ligand_efficiency_sa>  (1) 
-1.3033273786303525

>  <r_i_glide_lipo>  (1) 
-2.0253442380769817

>  <r_i_glide_metal>  (1) 
-0

>  <r_i_glide_rewards>  (1) 
-2.9023765025058035

>  <r_lp_Energy>  (1) 
15.262369

>  <r_lp_tautomer_probability>  (1) 
1

>  <s_epik_cmdline>  (1) 
J2VwaWtfcHl0aG9uJywgJy1waHQnLCAnMS4wJywgJy1waCcsICc3LjQnLCAnLXRuJywgJzgnLCAnLW1hJywgJzUwMCcsICctaW1hZScsICc8aW5maWxlLm1hZT4nLCAnLW9tYWUnLCAnPG91dGZpbGUubWFlPic=

>  <s_epik_input>  (1) 
TzFbQ0gyXVtDSF09W0NIXWMoYzEyKVtjSF1bY0hdW2NIXVtjSF0y

>  <s_glide_docking_method>  (1) 
confgen

>  <s_i_glide_gridfile>  (1) 
gpcr_drd2_6luq_protein_autoprepared_prepared

>  <s_lp_Force_Field>  (1) 
S-OPLS

>  <s_lp_Variant>  (1) 
Pocket2Mol_58-1

>  <s_m_source_file>  (1) 
generated_generic_title2_ligand_Pocket2Mol_2026-06-23_prepared.sdf

>  <GenAI_Model>  (1) 
Pocket2Mol

>  <Protein>  (1) 
generic_title2

$$$$
Pocket2Mol_37
     RDKit          3D

  0  0  0  0  0  0  0  0  0  0999 V3000
M  V30 BEGIN CTAB
M  V30 COUNTS 17 18 0 0 1
M  V30 BEGIN ATOM
M  V30 1 C 10.129915 8.181126 -7.090966 0
M  V30 2 O 10.772125 9.190198 -6.431395 0
M  V30 3 C 11.271552 8.613898 -5.299664 0
M  V30 4 C 10.975410 7.303525 -5.227912 0
M  V30 5 C 11.375415 6.408720 -4.111473 0
M  V30 6 C 12.014327 9.468687 -4.365973 0
M  V30 7 C 10.228927 7.010211 -6.398196 0
M  V30 8 C 12.454267 8.571539 -3.185025 0
M  V30 9 C 12.175416 7.233970 -3.073434 0
M  V30 10 H 9.660591 8.463099 -8.023187 0
M  V30 11 H 11.979593 5.590275 -4.496769 0
M  V30 12 H 10.486033 5.990228 -3.641693 0
M  V30 13 H 11.375456 10.274661 -4.003075 0
M  V30 14 H 12.886983 9.905683 -4.850997 0
M  V30 15 H 9.809692 6.059901 -6.695277 0
M  V30 16 H 13.020611 9.058323 -2.403705 0
M  V30 17 H 12.527713 6.693392 -2.206940 0
M  V30 END ATOM
M  V30 BEGIN BOND
M  V30 1 1 2 1
M  V30 2 1 3 2
M  V30 3 2 4 3
M  V30 4 1 5 4
M  V30 5 1 6 3
M  V30 6 2 7 1
M  V30 7 1 7 4
M  V30 8 1 8 6
M  V30 9 1 9 5
M  V30 10 2 9 8
M  V30 11 1 10 1
M  V30 12 1 11 5
M  V30 13 1 12 5
M  V30 14 1 13 6
M  V30 15 1 14 6
M  V30 16 1 15 7
M  V30 17 1 16 8
M  V30 18 1 17 9
M  V30 END BOND
M  V30 END CTAB
M  END
>  <i_epik_Tot_Q>  (1) 
0

>  <i_epik_Tot_abs_Q>  (1) 
0

>  <i_i_glide_confnum>  (1) 
1

>  <i_i_glide_lignum>  (1) 
42

>  <i_i_glide_posenum>  (1) 
309

>  <i_i_glide_rotatable_bonds>  (1) 
0

>  <i_lp_mmshare_version>  (1) 
72125

>  <i_m_source_file_index>  (1) 
38

>  <i_f3d_flags>  (1) 
0

>  <num_sample>  (1) 
100

>  <b_lp_Chiralities_Consistent>  (1) 
1

>  <r_epik_Charging_Adjusted_Penalty>  (1) 
0

>  <r_epik_Ionization_Penalty>  (1) 
0

>  <r_epik_Ionization_Penalty_Charging>  (1) 
0

>  <r_epik_Ionization_Penalty_Neutral>  (1) 
0

>  <r_epik_State_Penalty>  (1) 
-0

>  <r_glide_ring_energy>  (1) 
0

>  <r_i_docking_score>  (1) 
-6.0463984261905628

>  <r_i_glide_ecoul>  (1) 
-1.0271609481692696

>  <r_i_glide_eff_state_penalty>  (1) 
-0

>  <r_i_glide_einternal>  (1) 
0

>  <r_i_glide_emodel>  (1) 
-29.149696477115747

>  <r_i_glide_emodel_strain>  (1) 
0

>  <r_i_glide_energy>  (1) 
-21.102606696593185

>  <r_i_glide_erotb>  (1) 
0

>  <r_i_glide_esite>  (1) 
0

>  <r_i_glide_evdw>  (1) 
-20.075445748423917

>  <r_i_glide_gscore>  (1) 
-6.0463984261905628

>  <r_i_glide_gscore_strain>  (1) 
0

>  <r_i_glide_hbond>  (1) 
0

>  <r_i_glide_ligand_efficiency>  (1) 
-0.67182204735450701

>  <r_i_glide_ligand_efficiency_ln>  (1) 
-1.8911397307061062

>  <r_i_glide_ligand_efficiency_sa>  (1) 
-1.3974461726717204

>  <r_i_glide_lipo>  (1) 
-2.1292879736855674

>  <r_i_glide_metal>  (1) 
-0

>  <r_i_glide_rewards>  (1) 
-2.7592640228584093

>  <r_lp_Energy>  (1) 
4.5932930000000001

>  <r_lp_tautomer_probability>  (1) 
1

>  <s_epik_cmdline>  (1) 
J2VwaWtfcHl0aG9uJywgJy1waHQnLCAnMS4wJywgJy1waCcsICc3LjQnLCAnLXRuJywgJzgnLCAnLW1hJywgJzUwMCcsICctaW1hZScsICc8aW5maWxlLm1hZT4nLCAnLW9tYWUnLCAnPG91dGZpbGUubWFlPic=

>  <s_epik_input>  (1) 
bzFbY0hdW2NIXWMoYzEyKVtDSDJdW0NIXT1bQ0hdW0NIMl0y

>  <s_glide_docking_method>  (1) 
confgen

>  <s_i_glide_gridfile>  (1) 
gpcr_drd2_6luq_protein_autoprepared_prepared

>  <s_lp_Force_Field>  (1) 
S-OPLS

>  <s_lp_Variant>  (1) 
Pocket2Mol_37-1

>  <s_m_source_file>  (1) 
generated_generic_title2_ligand_Pocket2Mol_2026-06-23_prepared.sdf

>  <GenAI_Model>  (1) 
Pocket2Mol

>  <Protein>  (1) 
generic_title2

$$$$
Pocket2Mol_47
     RDKit          3D

  0  0  0  0  0  0  0  0  0  0999 V3000
M  V30 BEGIN CTAB
M  V30 COUNTS 16 17 0 0 1
M  V30 BEGIN ATOM
M  V30 1 C 11.589814 9.584394 -6.520988 0
M  V30 2 O 11.971791 9.863740 -5.239394 0
M  V30 3 C 11.947883 8.825451 -4.344429 0
M  V30 4 C 11.375410 7.581925 -4.709729 0
M  V30 5 C 11.372339 6.522241 -3.792620 0
M  V30 6 C 12.497450 8.995923 -3.061269 0
M  V30 7 C 12.481026 7.932180 -2.139031 0
M  V30 8 O 10.830237 7.408279 -5.958247 0
M  V30 9 C 11.922281 6.693373 -2.506451 0
M  V30 10 C 11.038266 8.407927 -6.865716 0
M  V30 11 H 11.775517 10.399598 -7.194771 0
M  V30 12 H 10.941136 5.585959 -4.072053 0
M  V30 13 H 12.933157 9.942045 -2.785026 0
M  V30 14 H 12.899508 8.065164 -1.150005 0
M  V30 15 H 11.910795 5.874413 -1.800653 0
M  V30 16 H 10.715193 8.142281 -7.861563 0
M  V30 END ATOM
M  V30 BEGIN BOND
M  V30 1 1 2 1
M  V30 2 1 3 2
M  V30 3 1 4 3
M  V30 4 2 5 4
M  V30 5 2 6 3
M  V30 6 1 7 6
M  V30 7 1 8 4
M  V30 8 1 9 5
M  V30 9 2 9 7
M  V30 10 2 10 1
M  V30 11 1 10 8
M  V30 12 1 11 1
M  V30 13 1 12 5
M  V30 14 1 13 6
M  V30 15 1 14 7
M  V30 16 1 15 9
M  V30 17 1 16 10
M  V30 END BOND
M  V30 END CTAB
M  END
>  <i_epik_Tot_Q>  (1) 
0

>  <i_epik_Tot_abs_Q>  (1) 
0

>  <i_i_glide_confnum>  (1) 
1

>  <i_i_glide_lignum>  (1) 
53

>  <i_i_glide_posenum>  (1) 
290

>  <i_i_glide_rotatable_bonds>  (1) 
0

>  <i_lp_mmshare_version>  (1) 
72125

>  <i_m_source_file_index>  (1) 
48

>  <i_f3d_flags>  (1) 
0

>  <num_sample>  (1) 
100

>  <b_lp_Chiralities_Consistent>  (1) 
1

>  <r_epik_Charging_Adjusted_Penalty>  (1) 
0

>  <r_epik_Ionization_Penalty>  (1) 
0

>  <r_epik_Ionization_Penalty_Charging>  (1) 
0

>  <r_epik_Ionization_Penalty_Neutral>  (1) 
0

>  <r_epik_State_Penalty>  (1) 
-0

>  <r_glide_ring_energy>  (1) 
0

>  <r_i_docking_score>  (1) 
-6.0435614457642153

>  <r_i_glide_ecoul>  (1) 
-0.86228431756177659

>  <r_i_glide_eff_state_penalty>  (1) 
-0

>  <r_i_glide_einternal>  (1) 
0

>  <r_i_glide_emodel>  (1) 
-26.476797007393898

>  <r_i_glide_emodel_strain>  (1) 
0

>  <r_i_glide_energy>  (1) 
-18.615261400956879

>  <r_i_glide_erotb>  (1) 
0

>  <r_i_glide_esite>  (1) 
0

>  <r_i_glide_evdw>  (1) 
-17.752977083395102

>  <r_i_glide_gscore>  (1) 
-6.0435614457642153

>  <r_i_glide_gscore_strain>  (1) 
0

>  <r_i_glide_hbond>  (1) 
0

>  <r_i_glide_ligand_efficiency>  (1) 
-0.60435614457642151

>  <r_i_glide_ligand_efficiency_ln>  (1) 
-1.8299487448740541

>  <r_i_glide_ligand_efficiency_sa>  (1) 
-1.3020458430093671

>  <r_i_glide_lipo>  (1) 
-2.2260922128812042

>  <r_i_glide_metal>  (1) 
-0

>  <r_i_glide_rewards>  (1) 
-2.8004777310789897

>  <r_lp_Energy>  (1) 
24.726983000000001

>  <r_lp_tautomer_probability>  (1) 
1

>  <s_epik_cmdline>  (1) 
J2VwaWtfcHl0aG9uJywgJy1waHQnLCAnMS4wJywgJy1waCcsICc3LjQnLCAnLXRuJywgJzgnLCAnLW1hJywgJzUwMCcsICctaW1hZScsICc8aW5maWxlLm1hZT4nLCAnLW9tYWUnLCAnPG91dGZpbGUubWFlPic=

>  <s_epik_input>  (1) 
TzFbQ0hdPVtDSF1PYyhjMTIpW2NIXVtjSF1bY0hdW2NIXTI=

>  <s_glide_docking_method>  (1) 
confgen

>  <s_i_glide_gridfile>  (1) 
gpcr_drd2_6luq_protein_autoprepared_prepared

>  <s_lp_Force_Field>  (1) 
S-OPLS

>  <s_lp_Variant>  (1) 
Pocket2Mol_47-1

>  <s_m_source_file>  (1) 
generated_generic_title2_ligand_Pocket2Mol_2026-06-23_prepared.sdf

>  <GenAI_Model>  (1) 
Pocket2Mol

>  <Protein>  (1) 
generic_title2

$$$$
Pocket2Mol_60
     RDKit          3D

  0  0  0  0  0  0  0  0  0  0999 V3000
M  V30 BEGIN CTAB
M  V30 COUNTS 19 20 0 0 1
M  V30 BEGIN ATOM
M  V30 1 C 11.375410 8.802013 -5.044592 0
M  V30 2 O 10.329127 8.642985 -5.991633 0
M  V30 3 C 10.743003 8.389455 -7.281642 0
M  V30 4 C 12.409573 9.761654 -5.619151 0
M  V30 5 O 12.975411 9.190227 -6.785025 0
M  V30 6 C 12.078790 8.662557 -7.677953 0
M  V30 7 C 9.835058 7.858614 -8.213511 0
M  V30 8 C 10.252678 7.593891 -9.532483 0
M  V30 9 C 12.490391 8.390229 -8.995023 0
M  V30 10 O 9.373459 7.083576 -10.432394 0
M  V30 11 C 11.578502 7.857585 -9.921196 0
M  V30 12 H 10.975409 9.213007 -4.119011 0
M  V30 13 H 11.811738 7.832456 -4.803703 0
M  V30 14 H 11.959825 10.727877 -5.854324 0
M  V30 15 H 13.205982 9.936296 -4.896157 0
M  V30 16 H 8.817027 7.652013 -7.916278 0
M  V30 17 H 13.507084 8.596094 -9.295734 0
M  V30 18 H 8.467689 7.190230 -10.132877 0
M  V30 19 H 11.894987 7.651917 -10.932798 0
M  V30 END ATOM
M  V30 BEGIN BOND
M  V30 1 1 2 1
M  V30 2 1 3 2
M  V30 3 1 4 1
M  V30 4 1 5 4
M  V30 5 2 6 3
M  V30 6 1 6 5
M  V30 7 1 7 3
M  V30 8 2 8 7
M  V30 9 1 9 6
M  V30 10 1 10 8
M  V30 11 1 11 8
M  V30 12 2 11 9
M  V30 13 1 12 1
M  V30 14 1 13 1
M  V30 15 1 14 4
M  V30 16 1 15 4
M  V30 17 1 16 7
M  V30 18 1 17 9
M  V30 19 1 18 10
M  V30 20 1 19 11
M  V30 END BOND
M  V30 END CTAB
M  END
>  <i_epik_Tot_Q>  (1) 
0

>  <i_epik_Tot_abs_Q>  (1) 
0

>  <i_i_glide_confnum>  (1) 
2

>  <i_i_glide_lignum>  (1) 
67

>  <i_i_glide_posenum>  (1) 
361

>  <i_i_glide_rotatable_bonds>  (1) 
1

>  <i_lp_mmshare_version>  (1) 
72125

>  <i_m_source_file_index>  (1) 
61

>  <i_f3d_flags>  (1) 
0

>  <num_sample>  (1) 
100

>  <b_lp_Chiralities_Consistent>  (1) 
1

>  <r_epik_Charging_Adjusted_Penalty>  (1) 
0

>  <r_epik_Ionization_Penalty>  (1) 
0.0014130578134093086

>  <r_epik_Ionization_Penalty_Charging>  (1) 
0

>  <r_epik_Ionization_Penalty_Neutral>  (1) 
0.0014130578134093086

>  <r_epik_State_Penalty>  (1) 
-0

>  <r_glide_ring_energy>  (1) 
0.0030884842251178704

>  <r_i_docking_score>  (1) 
-6.0389274474471595

>  <r_i_glide_ecoul>  (1) 
-4.4466817587588201

>  <r_i_glide_eff_state_penalty>  (1) 
-0

>  <r_i_glide_einternal>  (1) 
0.23449857548968089

>  <r_i_glide_emodel>  (1) 
-31.719219936437561

>  <r_i_glide_emodel_strain>  (1) 
0.0029365788262492032

>  <r_i_glide_energy>  (1) 
-22.506619622264949

>  <r_i_glide_erotb>  (1) 
0

>  <r_i_glide_esite>  (1) 
0

>  <r_i_glide_evdw>  (1) 
-18.059937863506129

>  <r_i_glide_gscore>  (1) 
-6.0389274474471595

>  <r_i_glide_gscore_strain>  (1) 
0

>  <r_i_glide_hbond>  (1) 
-0.16

>  <r_i_glide_ligand_efficiency>  (1) 
-0.54899340431337817

>  <r_i_glide_ligand_efficiency_ln>  (1) 
-1.7772553191357603

>  <r_i_glide_ligand_efficiency_sa>  (1) 
-1.2209504010468237

>  <r_i_glide_lipo>  (1) 
-1.4922616237913631

>  <r_i_glide_metal>  (1) 
-0

>  <r_i_glide_rewards>  (1) 
-2.8166666666666669

>  <r_lp_Energy>  (1) 
13.915925999999999

>  <r_lp_tautomer_probability>  (1) 
1

>  <s_epik_cmdline>  (1) 
J2VwaWtfcHl0aG9uJywgJy1waHQnLCAnMS4wJywgJy1waCcsICc3LjQnLCAnLXRuJywgJzgnLCAnLW1hJywgJzUwMCcsICctaW1hZScsICc8aW5maWxlLm1hZT4nLCAnLW9tYWUnLCAnPG91dGZpbGUubWFlPic=

>  <s_epik_input>  (1) 
TzFbQ0gyXVtDSDJdT2MoYzEyKVtjSF1bY0hdYyhbY0hdMilbT0hd

>  <s_glide_docking_method>  (1) 
confgen

>  <s_i_glide_gridfile>  (1) 
gpcr_drd2_6luq_protein_autoprepared_prepared

>  <s_lp_Force_Field>  (1) 
S-OPLS

>  <s_lp_Variant>  (1) 
Pocket2Mol_60-1

>  <s_m_source_file>  (1) 
generated_generic_title2_ligand_Pocket2Mol_2026-06-23_prepared.sdf

>  <GenAI_Model>  (1) 
Pocket2Mol

>  <Protein>  (1) 
generic_title2

$$$$
Pocket2Mol_37
     RDKit          3D

  0  0  0  0  0  0  0  0  0  0999 V3000
M  V30 BEGIN CTAB
M  V30 COUNTS 17 18 0 0 1
M  V30 BEGIN ATOM
M  V30 1 C 12.555732 7.992488 -2.235808 0
M  V30 2 O 12.216550 6.910642 -2.991672 0
M  V30 3 C 11.775408 7.429251 -4.174954 0
M  V30 4 C 11.827560 8.773656 -4.189412 0
M  V30 5 C 11.410247 9.624517 -5.338982 0
M  V30 6 C 11.315474 6.491045 -5.204395 0
M  V30 7 C 12.333651 9.151141 -2.919899 0
M  V30 8 C 10.865430 7.333349 -6.416550 0
M  V30 9 C 10.905736 8.700026 -6.476977 0
M  V30 10 H 12.930416 7.765599 -1.248989 0
M  V30 11 H 12.252109 10.224173 -5.687558 0
M  V30 12 H 10.616573 10.305256 -5.028071 0
M  V30 13 H 10.465996 5.923725 -4.830957 0
M  V30 14 H 12.103181 5.796544 -5.495268 0
M  V30 15 H 12.513538 10.144608 -2.548358 0
M  V30 16 H 10.492354 6.780163 -7.267428 0
M  V30 17 H 10.564223 9.190224 -7.374479 0
M  V30 END ATOM
M  V30 BEGIN BOND
M  V30 1 1 2 1
M  V30 2 1 3 2
M  V30 3 2 4 3
M  V30 4 1 5 4
M  V30 5 1 6 3
M  V30 6 2 7 1
M  V30 7 1 7 4
M  V30 8 1 8 6
M  V30 9 1 9 5
M  V30 10 2 9 8
M  V30 11 1 10 1
M  V30 12 1 11 5
M  V30 13 1 12 5
M  V30 14 1 13 6
M  V30 15 1 14 6
M  V30 16 1 15 7
M  V30 17 1 16 8
M  V30 18 1 17 9
M  V30 END BOND
M  V30 END CTAB
M  END
>  <i_epik_Tot_Q>  (1) 
0

>  <i_epik_Tot_abs_Q>  (1) 
0

>  <i_i_glide_confnum>  (1) 
1

>  <i_i_glide_lignum>  (1) 
42

>  <i_i_glide_posenum>  (1) 
390

>  <i_i_glide_rotatable_bonds>  (1) 
0

>  <i_lp_mmshare_version>  (1) 
72125

>  <i_m_source_file_index>  (1) 
38

>  <i_f3d_flags>  (1) 
0

>  <num_sample>  (1) 
100

>  <b_lp_Chiralities_Consistent>  (1) 
1

>  <r_epik_Charging_Adjusted_Penalty>  (1) 
0

>  <r_epik_Ionization_Penalty>  (1) 
0

>  <r_epik_Ionization_Penalty_Charging>  (1) 
0

>  <r_epik_Ionization_Penalty_Neutral>  (1) 
0

>  <r_epik_State_Penalty>  (1) 
-0

>  <r_glide_ring_energy>  (1) 
0

>  <r_i_docking_score>  (1) 
-6.037354199478087

>  <r_i_glide_ecoul>  (1) 
-0.70804006116257778

>  <r_i_glide_eff_state_penalty>  (1) 
-0

>  <r_i_glide_einternal>  (1) 
0

>  <r_i_glide_emodel>  (1) 
-27.922086301530413

>  <r_i_glide_emodel_strain>  (1) 
0

>  <r_i_glide_energy>  (1) 
-19.887033389771815

>  <r_i_glide_erotb>  (1) 
0

>  <r_i_glide_esite>  (1) 
0

>  <r_i_glide_evdw>  (1) 
-19.178993328609238

>  <r_i_glide_gscore>  (1) 
-6.037354199478087

>  <r_i_glide_gscore_strain>  (1) 
0

>  <r_i_glide_hbond>  (1) 
0

>  <r_i_glide_ligand_efficiency>  (1) 
-0.67081713327534298

>  <r_i_glide_ligand_efficiency_ln>  (1) 
-1.8883109564071139

>  <r_i_glide_ligand_efficiency_sa>  (1) 
-1.3953558671520945

>  <r_i_glide_lipo>  (1) 
-2.2055318572065721

>  <r_i_glide_metal>  (1) 
-0

>  <r_i_glide_rewards>  (1) 
-2.7666666666666666

>  <r_lp_Energy>  (1) 
4.5932930000000001

>  <r_lp_tautomer_probability>  (1) 
1

>  <s_epik_cmdline>  (1) 
J2VwaWtfcHl0aG9uJywgJy1waHQnLCAnMS4wJywgJy1waCcsICc3LjQnLCAnLXRuJywgJzgnLCAnLW1hJywgJzUwMCcsICctaW1hZScsICc8aW5maWxlLm1hZT4nLCAnLW9tYWUnLCAnPG91dGZpbGUubWFlPic=

>  <s_epik_input>  (1) 
bzFbY0hdW2NIXWMoYzEyKVtDSDJdW0NIXT1bQ0hdW0NIMl0y

>  <s_glide_docking_method>  (1) 
confgen

>  <s_i_glide_gridfile>  (1) 
gpcr_drd2_6luq_protein_autoprepared_prepared

>  <s_lp_Force_Field>  (1) 
S-OPLS

>  <s_lp_Variant>  (1) 
Pocket2Mol_37-1

>  <s_m_source_file>  (1) 
generated_generic_title2_ligand_Pocket2Mol_2026-06-23_prepared.sdf

>  <GenAI_Model>  (1) 
Pocket2Mol

>  <Protein>  (1) 
generic_title2

$$$$
Pocket2Mol_38
     RDKit          3D

  0  0  0  0  0  0  0  0  0  0999 V3000
M  V30 BEGIN CTAB
M  V30 COUNTS 15 16 0 0 1
M  V30 BEGIN ATOM
M  V30 1 C 11.142031 8.987125 -6.595188 0
M  V30 2 O 10.977572 7.689562 -6.155346 0
M  V30 3 C 11.375410 7.655467 -4.841302 0
M  V30 4 C 11.789234 8.935175 -4.445642 0
M  V30 5 C 12.233356 9.076686 -3.102984 0
M  V30 6 C 11.375448 6.545398 -3.997637 0
M  V30 7 C 11.636046 9.790975 -5.583901 0
M  V30 8 C 11.817151 6.695833 -2.674259 0
M  V30 9 C 12.247989 7.963200 -2.225240 0
M  V30 10 H 10.868466 9.174703 -7.623433 0
M  V30 11 H 12.563359 10.035322 -2.745787 0
M  V30 12 H 11.038415 5.590213 -4.358999 0
M  V30 13 H 11.860878 10.845112 -5.631828 0
M  V30 14 H 11.825707 5.847812 -2.003755 0
M  V30 15 H 12.589066 8.086803 -1.207508 0
M  V30 END ATOM
M  V30 BEGIN BOND
M  V30 1 1 2 1
M  V30 2 1 3 2
M  V30 3 1 4 3
M  V30 4 2 5 4
M  V30 5 2 6 3
M  V30 6 2 7 1
M  V30 7 1 7 4
M  V30 8 1 8 6
M  V30 9 1 9 5
M  V30 10 2 9 8
M  V30 11 1 10 1
M  V30 12 1 11 5
M  V30 13 1 12 6
M  V30 14 1 13 7
M  V30 15 1 14 8
M  V30 16 1 15 9
M  V30 END BOND
M  V30 END CTAB
M  END
>  <i_epik_Tot_Q>  (1) 
0

>  <i_epik_Tot_abs_Q>  (1) 
0

>  <i_i_glide_confnum>  (1) 
1

>  <i_i_glide_lignum>  (1) 
43

>  <i_i_glide_posenum>  (1) 
320

>  <i_i_glide_rotatable_bonds>  (1) 
0

>  <i_lp_mmshare_version>  (1) 
72125

>  <i_m_source_file_index>  (1) 
39

>  <i_f3d_flags>  (1) 
0

>  <num_sample>  (1) 
100

>  <b_lp_Chiralities_Consistent>  (1) 
1

>  <r_epik_Charging_Adjusted_Penalty>  (1) 
0

>  <r_epik_Ionization_Penalty>  (1) 
0

>  <r_epik_Ionization_Penalty_Charging>  (1) 
0

>  <r_epik_Ionization_Penalty_Neutral>  (1) 
0

>  <r_epik_State_Penalty>  (1) 
-0

>  <r_glide_ring_energy>  (1) 
0

>  <r_i_docking_score>  (1) 
-6.0230431170330796

>  <r_i_glide_ecoul>  (1) 
-0.92143729926359486

>  <r_i_glide_eff_state_penalty>  (1) 
-0

>  <r_i_glide_einternal>  (1) 
0

>  <r_i_glide_emodel>  (1) 
-27.16115222134064

>  <r_i_glide_emodel_strain>  (1) 
0

>  <r_i_glide_energy>  (1) 
-19.438894012603292

>  <r_i_glide_erotb>  (1) 
0

>  <r_i_glide_esite>  (1) 
0

>  <r_i_glide_evdw>  (1) 
-18.517456713339698

>  <r_i_glide_gscore>  (1) 
-6.0230431170330796

>  <r_i_glide_gscore_strain>  (1) 
0

>  <r_i_glide_hbond>  (1) 
0

>  <r_i_glide_ligand_efficiency>  (1) 
-0.66922701300367549

>  <r_i_glide_ligand_efficiency_ln>  (1) 
-1.8838348609377957

>  <r_i_glide_ligand_efficiency_sa>  (1) 
-1.3920482836982919

>  <r_i_glide_lipo>  (1) 
-2.3147212164802222

>  <r_i_glide_metal>  (1) 
-0

>  <r_i_glide_rewards>  (1) 
-2.6442334699963332

>  <r_lp_Energy>  (1) 
12.927653999999999

>  <r_lp_tautomer_probability>  (1) 
1

>  <s_epik_cmdline>  (1) 
J2VwaWtfcHl0aG9uJywgJy1waHQnLCAnMS4wJywgJy1waCcsICc3LjQnLCAnLXRuJywgJzgnLCAnLW1hJywgJzUwMCcsICctaW1hZScsICc8aW5maWxlLm1hZT4nLCAnLW9tYWUnLCAnPG91dGZpbGUubWFlPic=

>  <s_epik_input>  (1) 
bzFbY0hdW2NIXWMoYzEyKVtjSF1bY0hdW2NIXVtjSF0y

>  <s_glide_docking_method>  (1) 
confgen

>  <s_i_glide_gridfile>  (1) 
gpcr_drd2_6luq_protein_autoprepared_prepared

>  <s_lp_Force_Field>  (1) 
S-OPLS

>  <s_lp_Variant>  (1) 
Pocket2Mol_38-1

>  <s_m_source_file>  (1) 
generated_generic_title2_ligand_Pocket2Mol_2026-06-23_prepared.sdf

>  <GenAI_Model>  (1) 
Pocket2Mol

>  <Protein>  (1) 
generic_title2

$$$$
Pocket2Mol_52
     RDKit          3D

  0  0  0  0  0  0  0  0  0  0999 V3000
M  V30 BEGIN CTAB
M  V30 COUNTS 15 16 0 0 1
M  V30 BEGIN ATOM
M  V30 1 C 9.852138 7.531266 -7.630163 0
M  V30 2 O 10.367176 8.790229 -7.198492 0
M  V30 3 C 10.978657 8.520398 -5.984838 0
M  V30 4 C 10.834862 7.212078 -5.741265 0
M  V30 5 C 11.375447 6.675968 -4.550246 0
M  V30 6 C 11.633517 9.380004 -5.129271 0
M  V30 7 C 10.146926 6.525682 -6.724219 0
M  V30 8 N 12.052005 7.492444 -3.643006 0 CHG=1
M  V30 9 O 12.546935 7.006215 -2.561162 0 CHG=-1
M  V30 10 C 12.178558 8.851486 -3.937684 0
M  V30 11 H 9.322513 7.554557 -8.573090 0
M  V30 12 H 11.310211 5.637607 -4.262596 0
M  V30 13 H 11.725610 10.430141 -5.363576 0
M  V30 14 H 9.919220 5.475857 -6.728087 0
M  V30 15 H 12.710781 9.429860 -3.195268 0
M  V30 END ATOM
M  V30 BEGIN BOND
M  V30 1 1 2 1
M  V30 2 1 3 2
M  V30 3 1 4 3
M  V30 4 2 5 4
M  V30 5 2 6 3
M  V30 6 2 7 1
M  V30 7 1 7 4
M  V30 8 1 8 5
M  V30 9 1 9 8
M  V30 10 1 10 6
M  V30 11 2 10 8
M  V30 12 1 11 1
M  V30 13 1 12 5
M  V30 14 1 13 6
M  V30 15 1 14 7
M  V30 16 1 15 10
M  V30 END BOND
M  V30 END CTAB
M  END
>  <i_epik_Tot_Q>  (1) 
0

>  <i_epik_Tot_abs_Q>  (1) 
2

>  <i_i_glide_confnum>  (1) 
1

>  <i_i_glide_lignum>  (1) 
59

>  <i_i_glide_posenum>  (1) 
197

>  <i_i_glide_rotatable_bonds>  (1) 
0

>  <i_lp_mmshare_version>  (1) 
72125

>  <i_m_source_file_index>  (1) 
53

>  <i_f3d_flags>  (1) 
0

>  <num_sample>  (1) 
100

>  <b_lp_Chiralities_Consistent>  (1) 
1

>  <r_epik_Charging_Adjusted_Penalty>  (1) 
1.0992902245007022e-07

>  <r_epik_Ionization_Penalty>  (1) 
1.0992902245007022e-07

>  <r_epik_Ionization_Penalty_Charging>  (1) 
1.0992902245007022e-07

>  <r_epik_Ionization_Penalty_Neutral>  (1) 
0

>  <r_epik_State_Penalty>  (1) 
-0

>  <r_glide_ring_energy>  (1) 
0

>  <r_i_docking_score>  (1) 
-6.010591543846318

>  <r_i_glide_ecoul>  (1) 
-0.99991333140758543

>  <r_i_glide_eff_state_penalty>  (1) 
-0

>  <r_i_glide_einternal>  (1) 
0

>  <r_i_glide_emodel>  (1) 
-26.816578181030764

>  <r_i_glide_emodel_strain>  (1) 
0

>  <r_i_glide_energy>  (1) 
-18.358628725289471

>  <r_i_glide_erotb>  (1) 
0

>  <r_i_glide_esite>  (1) 
0

>  <r_i_glide_evdw>  (1) 
-17.358715393881884

>  <r_i_glide_gscore>  (1) 
-6.010591543846318

>  <r_i_glide_gscore_strain>  (1) 
0

>  <r_i_glide_hbond>  (1) 
0

>  <r_i_glide_ligand_efficiency>  (1) 
-0.60105915438463176

>  <r_i_glide_ligand_efficiency_ln>  (1) 
-1.8199656858492197

>  <r_i_glide_ligand_efficiency_sa>  (1) 
-1.2949426929674805

>  <r_i_glide_lipo>  (1) 
-1.7116375751361355

>  <r_i_glide_metal>  (1) 
-0

>  <r_i_glide_rewards>  (1) 
-3.2810311993049508

>  <r_lp_Energy>  (1) 
10.75684

>  <r_lp_tautomer_probability>  (1) 
1

>  <s_epik_cmdline>  (1) 
J2VwaWtfcHl0aG9uJywgJy1waHQnLCAnMS4wJywgJy1waCcsICc3LjQnLCAnLXRuJywgJzgnLCAnLW1hJywgJzUwMCcsICctaW1hZScsICc8aW5maWxlLm1hZT4nLCAnLW9tYWUnLCAnPG91dGZpbGUubWFlPic=

>  <s_epik_input>  (1) 
bzFbY0hdW2NIXWMoYzEyKVtjSF1bbitdKFtPLV0pW2NIXVtjSF0y

>  <s_glide_docking_method>  (1) 
confgen

>  <s_i_glide_gridfile>  (1) 
gpcr_drd2_6luq_protein_autoprepared_prepared

>  <s_lp_Force_Field>  (1) 
S-OPLS

>  <s_lp_Variant>  (1) 
Pocket2Mol_52-1

>  <s_m_source_file>  (1) 
generated_generic_title2_ligand_Pocket2Mol_2026-06-23_prepared.sdf

>  <GenAI_Model>  (1) 
Pocket2Mol

>  <Protein>  (1) 
generic_title2

$$$$
Pocket2Mol_32
     RDKit          3D

  0  0  0  0  0  0  0  0  0  0999 V3000
M  V30 BEGIN CTAB
M  V30 COUNTS 17 18 0 0 1
M  V30 BEGIN ATOM
M  V30 1 C 9.999637 8.031694 -7.358678 0
M  V30 2 O 10.784469 9.085260 -6.772854 0
M  V30 3 C 11.293773 8.624720 -5.591525 0
M  V30 4 C 10.975640 7.299184 -5.349430 0
M  V30 5 C 11.400320 6.628976 -4.189409 0
M  V30 6 C 10.168035 6.767718 -6.481880 0
M  V30 7 C 12.067047 9.356720 -4.673413 0
M  V30 8 C 12.507087 8.707928 -3.497444 0
M  V30 9 C 12.175411 7.352674 -3.256335 0
M  V30 10 H 8.955581 8.345495 -7.384539 0
M  V30 11 H 10.316606 7.849250 -8.385846 0
M  V30 12 H 11.144399 5.593865 -4.017319 0
M  V30 13 H 10.718200 5.982350 -7.000841 0
M  V30 14 H 9.212469 6.372208 -6.136584 0
M  V30 15 H 12.316729 10.390217 -4.862863 0
M  V30 16 H 13.101390 9.250716 -2.777253 0
M  V30 17 H 12.518730 6.868554 -2.353854 0
M  V30 END ATOM
M  V30 BEGIN BOND
M  V30 1 1 2 1
M  V30 2 1 3 2
M  V30 3 1 4 3
M  V30 4 2 5 4
M  V30 5 1 6 1
M  V30 6 1 6 4
M  V30 7 2 7 3
M  V30 8 1 8 7
M  V30 9 1 9 5
M  V30 10 2 9 8
M  V30 11 1 10 1
M  V30 12 1 11 1
M  V30 13 1 12 5
M  V30 14 1 13 6
M  V30 15 1 14 6
M  V30 16 1 15 7
M  V30 17 1 16 8
M  V30 18 1 17 9
M  V30 END BOND
M  V30 END CTAB
M  END
>  <i_epik_Tot_Q>  (1) 
0

>  <i_epik_Tot_abs_Q>  (1) 
0

>  <i_i_glide_confnum>  (1) 
1

>  <i_i_glide_lignum>  (1) 
36

>  <i_i_glide_posenum>  (1) 
331

>  <i_i_glide_rotatable_bonds>  (1) 
0

>  <i_lp_mmshare_version>  (1) 
72125

>  <i_m_source_file_index>  (1) 
33

>  <i_f3d_flags>  (1) 
0

>  <num_sample>  (1) 
100

>  <b_lp_Chiralities_Consistent>  (1) 
1

>  <r_epik_Charging_Adjusted_Penalty>  (1) 
0

>  <r_epik_Ionization_Penalty>  (1) 
0

>  <r_epik_Ionization_Penalty_Charging>  (1) 
0

>  <r_epik_Ionization_Penalty_Neutral>  (1) 
0

>  <r_epik_State_Penalty>  (1) 
-0

>  <r_glide_ring_energy>  (1) 
0

>  <r_i_docking_score>  (1) 
-6.0078843824591806

>  <r_i_glide_ecoul>  (1) 
-1.694455047502589

>  <r_i_glide_eff_state_penalty>  (1) 
-0

>  <r_i_glide_einternal>  (1) 
0

>  <r_i_glide_emodel>  (1) 
-28.373414491711976

>  <r_i_glide_emodel_strain>  (1) 
0

>  <r_i_glide_energy>  (1) 
-20.615141985680101

>  <r_i_glide_erotb>  (1) 
0

>  <r_i_glide_esite>  (1) 
0

>  <r_i_glide_evdw>  (1) 
-18.920686938177511

>  <r_i_glide_gscore>  (1) 
-6.0078843824591806

>  <r_i_glide_gscore_strain>  (1) 
0

>  <r_i_glide_hbond>  (1) 
0

>  <r_i_glide_ligand_efficiency>  (1) 
-0.66754270916213121

>  <r_i_glide_ligand_efficiency_ln>  (1) 
-1.8790936442333599

>  <r_i_glide_ligand_efficiency_sa>  (1) 
-1.3885447905243913

>  <r_i_glide_lipo>  (1) 
-2.1088672047343735

>  <r_i_glide_metal>  (1) 
-0

>  <r_i_glide_rewards>  (1) 
-2.6988145736905436

>  <r_lp_Energy>  (1) 
11.954839999999999

>  <r_lp_tautomer_probability>  (1) 
1

>  <s_epik_cmdline>  (1) 
J2VwaWtfcHl0aG9uJywgJy1waHQnLCAnMS4wJywgJy1waCcsICc3LjQnLCAnLXRuJywgJzgnLCAnLW1hJywgJzUwMCcsICctaW1hZScsICc8aW5maWxlLm1hZT4nLCAnLW9tYWUnLCAnPG91dGZpbGUubWFlPic=

>  <s_epik_input>  (1) 
TzFbQ0gyXVtDSDJdYyhjMTIpW2NIXVtjSF1bY0hdW2NIXTI=

>  <s_glide_docking_method>  (1) 
confgen

>  <s_i_glide_gridfile>  (1) 
gpcr_drd2_6luq_protein_autoprepared_prepared

>  <s_lp_Force_Field>  (1) 
S-OPLS

>  <s_lp_Variant>  (1) 
Pocket2Mol_32-1

>  <s_m_source_file>  (1) 
generated_generic_title2_ligand_Pocket2Mol_2026-06-23_prepared.sdf

>  <GenAI_Model>  (1) 
Pocket2Mol

>  <Protein>  (1) 
generic_title2

$$$$
Pocket2Mol_90
     RDKit          3D

  0  0  0  0  0  0  0  0  0  0999 V3000
M  V30 BEGIN CTAB
M  V30 COUNTS 23 24 0 0 1
M  V30 BEGIN ATOM
M  V30 1 C 5.738069 6.790203 -17.623851 0
M  V30 2 O 6.639224 5.629258 -17.465184 0
M  V30 3 C 6.888276 5.644484 -16.136263 0
M  V30 4 C 6.308350 6.646430 -15.442946 0
M  V30 5 C 6.485938 6.781248 -14.052247 0
M  V30 6 C 5.499822 7.569371 -16.252029 0
M  V30 7 C 7.697154 4.689101 -15.501263 0
M  V30 8 C 7.296327 5.843265 -13.364864 0
M  V30 9 N 7.472923 6.001588 -11.929790 0
M  V30 10 C 7.910842 4.779592 -14.106807 0
M  V30 11 C 8.201013 5.190137 -11.120254 0
M  V30 12 O 8.817876 4.199879 -11.487829 0
M  V30 13 N 8.175400 5.590227 -9.852555 0
M  V30 14 H 6.140446 7.459467 -18.384703 0
M  V30 15 H 4.783004 6.428347 -18.007964 0
M  V30 16 H 6.012382 7.590037 -13.516547 0
M  V30 17 H 4.445632 7.592455 -15.985040 0
M  V30 18 H 5.921565 8.575343 -16.256712 0
M  V30 19 H 8.153463 3.894009 -16.072513 0
M  V30 20 H 7.005681 6.789241 -11.499701 0
M  V30 21 H 8.531748 4.048454 -13.632860 0
M  V30 22 H 7.658359 6.450404 -9.587655 0
M  V30 23 H 8.674118 5.065604 -9.153670 0
M  V30 END ATOM
M  V30 BEGIN BOND
M  V30 1 1 2 1
M  V30 2 1 3 2
M  V30 3 2 4 3
M  V30 4 1 5 4
M  V30 5 1 6 1
M  V30 6 1 6 4
M  V30 7 1 7 3
M  V30 8 2 8 5
M  V30 9 1 9 8
M  V30 10 2 10 7
M  V30 11 1 10 8
M  V30 12 1 11 9
M  V30 13 2 12 11
M  V30 14 1 13 11
M  V30 15 1 14 1
M  V30 16 1 15 1
M  V30 17 1 16 5
M  V30 18 1 17 6
M  V30 19 1 18 6
M  V30 20 1 19 7
M  V30 21 1 20 9
M  V30 22 1 21 10
M  V30 23 1 22 13
M  V30 24 1 23 13
M  V30 END BOND
M  V30 END CTAB
M  END
>  <i_epik_Tot_Q>  (1) 
0

>  <i_epik_Tot_abs_Q>  (1) 
0

>  <i_i_glide_confnum>  (1) 
1

>  <i_i_glide_lignum>  (1) 
97

>  <i_i_glide_posenum>  (1) 
287

>  <i_i_glide_rotatable_bonds>  (1) 
2

>  <i_lp_mmshare_version>  (1) 
72125

>  <i_m_source_file_index>  (1) 
91

>  <i_f3d_flags>  (1) 
0

>  <num_sample>  (1) 
100

>  <b_lp_Chiralities_Consistent>  (1) 
1

>  <r_epik_Charging_Adjusted_Penalty>  (1) 
0

>  <r_epik_Ionization_Penalty>  (1) 
1.9038757045197726e-05

>  <r_epik_Ionization_Penalty_Charging>  (1) 
0

>  <r_epik_Ionization_Penalty_Neutral>  (1) 
1.9038757045197726e-05

>  <r_epik_State_Penalty>  (1) 
-0

>  <r_glide_ring_energy>  (1) 
0

>  <r_i_docking_score>  (1) 
-6.0024284827113785

>  <r_i_glide_ecoul>  (1) 
-5.3470573402624701

>  <r_i_glide_eff_state_penalty>  (1) 
-0

>  <r_i_glide_einternal>  (1) 
0.2350395634221405

>  <r_i_glide_emodel>  (1) 
-33.817829507906744

>  <r_i_glide_emodel_strain>  (1) 
1.7526588180771796e-08

>  <r_i_glide_energy>  (1) 
-23.368544103997184

>  <r_i_glide_erotb>  (1) 
0

>  <r_i_glide_esite>  (1) 
-0.19230792800580848

>  <r_i_glide_evdw>  (1) 
-18.021486763734714

>  <r_i_glide_gscore>  (1) 
-6.0024284827113785

>  <r_i_glide_gscore_strain>  (1) 
0

>  <r_i_glide_hbond>  (1) 
-0.19504117647332056

>  <r_i_glide_ligand_efficiency>  (1) 
-0.46172526790087526

>  <r_i_glide_ligand_efficiency_ln>  (1) 
-1.6837345725958579

>  <r_i_glide_ligand_efficiency_sa>  (1) 
-1.0856706386124879

>  <r_i_glide_lipo>  (1) 
-1.3629464011494281

>  <r_i_glide_metal>  (1) 
-0

>  <r_i_glide_rewards>  (1) 
-2.549000037856715

>  <r_lp_Energy>  (1) 
13.450968999999999

>  <r_lp_tautomer_probability>  (1) 
1

>  <s_epik_cmdline>  (1) 
J2VwaWtfcHl0aG9uJywgJy1waHQnLCAnMS4wJywgJy1waCcsICc3LjQnLCAnLXRuJywgJzgnLCAnLW1hJywgJzUwMCcsICctaW1hZScsICc8aW5maWxlLm1hZT4nLCAnLW9tYWUnLCAnPG91dGZpbGUubWFlPic=

>  <s_epik_input>  (1) 
TzFbQ0gyXVtDSDJdYyhjMTIpW2NIXWMoW2NIXVtjSF0yKVtOSF1DKD1PKVtOSDJd

>  <s_glide_docking_method>  (1) 
confgen

>  <s_i_glide_gridfile>  (1) 
gpcr_drd2_6luq_protein_autoprepared_prepared

>  <s_lp_Force_Field>  (1) 
S-OPLS

>  <s_lp_Variant>  (1) 
Pocket2Mol_90-1

>  <s_m_source_file>  (1) 
generated_generic_title2_ligand_Pocket2Mol_2026-06-23_prepared.sdf

>  <GenAI_Model>  (1) 
Pocket2Mol

>  <Protein>  (1) 
generic_title2

$$$$
Pocket2Mol_48
     RDKit          3D

  0  0  0  0  0  0  0  0  0  0999 V3000
M  V30 BEGIN CTAB
M  V30 COUNTS 19 20 0 0 1
M  V30 BEGIN ATOM
M  V30 1 C 11.808904 9.585405 -6.591762 0
M  V30 2 O 11.967390 9.921466 -5.249956 0
M  V30 3 C 11.948885 8.852710 -4.384866 0
M  V30 4 C 11.375409 7.622382 -4.785015 0
M  V30 5 C 11.375408 6.527657 -3.902778 0
M  V30 6 C 12.501813 8.982662 -3.097953 0
M  V30 7 C 12.494026 7.888732 -2.213139 0
M  V30 8 C 10.769306 7.488381 -6.170611 0
M  V30 9 C 11.933799 6.660488 -2.615437 0
M  V30 10 N 10.627304 8.790227 -6.805683 0
M  V30 11 H 11.775396 10.512681 -7.159757 0
M  V30 12 H 12.695458 9.043716 -6.925412 0
M  V30 13 H 10.943129 5.590194 -4.209700 0
M  V30 14 H 12.934765 9.920959 -2.789939 0
M  V30 15 H 12.920022 7.991249 -1.225662 0
M  V30 16 H 11.407809 6.848064 -6.780114 0
M  V30 17 H 9.793247 7.007008 -6.103931 0
M  V30 18 H 11.929733 5.819934 -1.936667 0
M  V30 19 H 10.441136 8.653944 -7.790368 0
M  V30 END ATOM
M  V30 BEGIN BOND
M  V30 1 1 2 1
M  V30 2 1 3 2
M  V30 3 1 4 3
M  V30 4 2 5 4
M  V30 5 2 6 3
M  V30 6 1 7 6
M  V30 7 1 8 4
M  V30 8 1 9 5
M  V30 9 2 9 7
M  V30 10 1 10 1
M  V30 11 1 10 8
M  V30 12 1 11 1
M  V30 13 1 12 1
M  V30 14 1 13 5
M  V30 15 1 14 6
M  V30 16 1 15 7
M  V30 17 1 16 8
M  V30 18 1 17 8
M  V30 19 1 18 9
M  V30 20 1 19 10
M  V30 END BOND
M  V30 END CTAB
M  END
>  <i_epik_Tot_Q>  (1) 
0

>  <i_epik_Tot_abs_Q>  (1) 
0

>  <i_i_glide_confnum>  (1) 
1

>  <i_i_glide_lignum>  (1) 
54

>  <i_i_glide_posenum>  (1) 
215

>  <i_i_glide_rotatable_bonds>  (1) 
0

>  <i_lp_mmshare_version>  (1) 
72125

>  <i_m_source_file_index>  (1) 
49

>  <i_f3d_flags>  (1) 
0

>  <num_sample>  (1) 
100

>  <b_lp_Chiralities_Consistent>  (1) 
1

>  <r_epik_Charging_Adjusted_Penalty>  (1) 
0.1493798173009977

>  <r_epik_Ionization_Penalty>  (1) 
0.14937981730099775

>  <r_epik_Ionization_Penalty_Charging>  (1) 
0

>  <r_epik_Ionization_Penalty_Neutral>  (1) 
0.14937981730099775

>  <r_epik_State_Penalty>  (1) 
0.1493798173009977

>  <r_glide_ring_energy>  (1) 
0

>  <r_i_docking_score>  (1) 
-6.0019578756484115

>  <r_i_glide_ecoul>  (1) 
-1.8915593661553676

>  <r_i_glide_eff_state_penalty>  (1) 
0.1493798173009977

>  <r_i_glide_einternal>  (1) 
0

>  <r_i_glide_emodel>  (1) 
-30.036009980286366

>  <r_i_glide_emodel_strain>  (1) 
5.3008104572427328e-09

>  <r_i_glide_energy>  (1) 
-21.38476556461962

>  <r_i_glide_erotb>  (1) 
0

>  <r_i_glide_esite>  (1) 
0

>  <r_i_glide_evdw>  (1) 
-19.493206198464254

>  <r_i_glide_gscore>  (1) 
-6.1513376929494097

>  <r_i_glide_gscore_strain>  (1) 
0

>  <r_i_glide_hbond>  (1) 
0

>  <r_i_glide_ligand_efficiency>  (1) 
-0.60019578756484115

>  <r_i_glide_ligand_efficiency_ln>  (1) 
-1.817351470634532

>  <r_i_glide_ligand_efficiency_sa>  (1) 
-1.2930826255407011

>  <r_i_glide_lipo>  (1) 
-1.9128321587747477

>  <r_i_glide_metal>  (1) 
-0

>  <r_i_glide_rewards>  (1) 
-2.9801113193281443

>  <r_lp_Energy>  (1) 
22.191175999999999

>  <r_lp_tautomer_probability>  (1) 
1

>  <s_epik_Chemistry_Notes>  (1) 
This compound contains an acetal/aminal-like group ( X-CH(R)-Y where X, Y are N, S, or O) that may be acid/base labile, releasing an aldehyde.

>  <s_epik_cmdline>  (1) 
J2VwaWtfcHl0aG9uJywgJy1waHQnLCAnMS4wJywgJy1waCcsICc3LjQnLCAnLXRuJywgJzgnLCAnLW1hJywgJzUwMCcsICctaW1hZScsICc8aW5maWxlLm1hZT4nLCAnLW9tYWUnLCAnPG91dGZpbGUubWFlPic=

>  <s_epik_input>  (1) 
TzFbQ0gyXVtOSF1bQ0gyXWMoYzEyKVtjSF1bY0hdW2NIXVtjSF0y

>  <s_glide_docking_method>  (1) 
confgen

>  <s_i_glide_gridfile>  (1) 
gpcr_drd2_6luq_protein_autoprepared_prepared

>  <s_lp_Force_Field>  (1) 
S-OPLS

>  <s_lp_Variant>  (1) 
Pocket2Mol_48-1

>  <s_m_source_file>  (1) 
generated_generic_title2_ligand_Pocket2Mol_2026-06-23_prepared.sdf

>  <GenAI_Model>  (1) 
Pocket2Mol

>  <Protein>  (1) 
generic_title2

$$$$
Pocket2Mol_46
     RDKit          3D

  0  0  0  0  0  0  0  0  0  0999 V3000
M  V30 BEGIN CTAB
M  V30 COUNTS 18 19 0 0 1
M  V30 BEGIN ATOM
M  V30 1 C 10.590037 8.386845 -6.847127 0
M  V30 2 O 10.809768 7.260330 -6.012994 0
M  V30 3 C 11.375410 7.525421 -4.785019 0
M  V30 4 C 11.375409 6.532584 -3.793774 0
M  V30 5 C 11.841671 9.264396 -6.800070 0
M  V30 6 C 11.963550 8.790141 -4.513844 0
M  V30 7 O 11.992038 9.766632 -5.480688 0
M  V30 8 C 11.946872 6.786894 -2.532238 0
M  V30 9 C 12.530376 9.038924 -3.250202 0
M  V30 10 C 12.522540 8.039981 -2.260959 0
M  V30 11 H 10.397464 8.044049 -7.863891 0
M  V30 12 H 9.707756 8.934498 -6.514876 0
M  V30 13 H 10.928875 5.582774 -3.998626 0
M  V30 14 H 12.725638 8.701861 -7.101214 0
M  V30 15 H 11.775410 10.096288 -7.493155 0
M  V30 16 H 11.940024 6.018490 -1.772298 0
M  V30 17 H 12.975438 9.990259 -3.041302 0
M  V30 18 H 12.960468 8.235940 -1.293105 0
M  V30 END ATOM
M  V30 BEGIN BOND
M  V30 1 1 2 1
M  V30 2 1 3 2
M  V30 3 2 4 3
M  V30 4 1 5 1
M  V30 5 1 6 3
M  V30 6 1 7 5
M  V30 7 1 7 6
M  V30 8 1 8 4
M  V30 9 2 9 6
M  V30 10 2 10 8
M  V30 11 1 10 9
M  V30 12 1 11 1
M  V30 13 1 12 1
M  V30 14 1 13 4
M  V30 15 1 14 5
M  V30 16 1 15 5
M  V30 17 1 16 8
M  V30 18 1 17 9
M  V30 19 1 18 10
M  V30 END BOND
M  V30 END CTAB
M  END
>  <i_epik_Tot_Q>  (1) 
0

>  <i_epik_Tot_abs_Q>  (1) 
0

>  <i_i_glide_confnum>  (1) 
2

>  <i_i_glide_lignum>  (1) 
52

>  <i_i_glide_posenum>  (1) 
5

>  <i_i_glide_rotatable_bonds>  (1) 
0

>  <i_lp_mmshare_version>  (1) 
72125

>  <i_m_source_file_index>  (1) 
47

>  <i_f3d_flags>  (1) 
0

>  <num_sample>  (1) 
100

>  <b_lp_Chiralities_Consistent>  (1) 
1

>  <r_epik_Charging_Adjusted_Penalty>  (1) 
0

>  <r_epik_Ionization_Penalty>  (1) 
0

>  <r_epik_Ionization_Penalty_Charging>  (1) 
0

>  <r_epik_Ionization_Penalty_Neutral>  (1) 
0

>  <r_epik_State_Penalty>  (1) 
-0

>  <r_glide_ring_energy>  (1) 
0.0030885007139812575

>  <r_i_docking_score>  (1) 
-5.996928982597165

>  <r_i_glide_ecoul>  (1) 
-0.69021757224008573

>  <r_i_glide_eff_state_penalty>  (1) 
-0

>  <r_i_glide_einternal>  (1) 
0

>  <r_i_glide_emodel>  (1) 
-28.01883749785619

>  <r_i_glide_emodel_strain>  (1) 
0

>  <r_i_glide_energy>  (1) 
-19.902919165892282

>  <r_i_glide_erotb>  (1) 
0

>  <r_i_glide_esite>  (1) 
0

>  <r_i_glide_evdw>  (1) 
-19.212701593652195

>  <r_i_glide_gscore>  (1) 
-5.996928982597165

>  <r_i_glide_gscore_strain>  (1) 
0

>  <r_i_glide_hbond>  (1) 
0

>  <r_i_glide_ligand_efficiency>  (1) 
-0.5996928982597165

>  <r_i_glide_ligand_efficiency_ln>  (1) 
-1.8158287564849662

>  <r_i_glide_ligand_efficiency_sa>  (1) 
-1.2919991833764943

>  <r_i_glide_lipo>  (1) 
-2.1222649990192637

>  <r_i_glide_metal>  (1) 
-0

>  <r_i_glide_rewards>  (1) 
-2.8104962680592789

>  <r_lp_Energy>  (1) 
16.729797999999999

>  <r_lp_tautomer_probability>  (1) 
1

>  <s_epik_cmdline>  (1) 
J2VwaWtfcHl0aG9uJywgJy1waHQnLCAnMS4wJywgJy1waCcsICc3LjQnLCAnLXRuJywgJzgnLCAnLW1hJywgJzUwMCcsICctaW1hZScsICc8aW5maWxlLm1hZT4nLCAnLW9tYWUnLCAnPG91dGZpbGUubWFlPic=

>  <s_epik_input>  (1) 
TzFbQ0gyXVtDSDJdT2MoYzEyKVtjSF1bY0hdW2NIXVtjSF0y

>  <s_glide_docking_method>  (1) 
confgen

>  <s_i_glide_gridfile>  (1) 
gpcr_drd2_6luq_protein_autoprepared_prepared

>  <s_lp_Force_Field>  (1) 
S-OPLS

>  <s_lp_Variant>  (1) 
Pocket2Mol_46-1

>  <s_m_source_file>  (1) 
generated_generic_title2_ligand_Pocket2Mol_2026-06-23_prepared.sdf

>  <GenAI_Model>  (1) 
Pocket2Mol

>  <Protein>  (1) 
generic_title2

$$$$
Pocket2Mol_92
     RDKit          3D

  0  0  0  0  0  0  0  0  0  0999 V3000
M  V30 BEGIN CTAB
M  V30 COUNTS 26 27 0 0 1
M  V30 BEGIN ATOM
M  V30 1 C 11.261748 7.696927 -9.640997 0
M  V30 2 O 10.444128 6.687000 -9.070497 0
M  V30 3 C 11.915332 8.647655 -8.626238 0
M  V30 4 O 12.072173 8.083789 -7.330148 0
M  V30 5 C 9.404382 7.142085 -8.223989 0
M  V30 6 C 10.937123 8.220088 -6.475503 0 CFG=2
M  V30 7 C 11.375410 8.213247 -5.014254 0
M  V30 8 C 9.889583 7.133494 -6.776739 0
M  V30 9 C 11.765396 7.008255 -4.384980 0
M  V30 10 N 11.376453 9.416289 -4.385014 0
M  V30 11 C 11.775630 9.432041 -3.088745 0
M  V30 12 C 12.181048 8.283360 -2.383383 0
M  V30 13 C 12.175410 7.048544 -3.044554 0
M  V30 14 H 10.690811 8.266858 -10.375210 0
M  V30 15 H 12.047181 7.190239 -10.200641 0
M  V30 16 H 11.375424 9.590171 -8.583911 0
M  V30 17 H 12.908124 8.906872 -8.994122 0
M  V30 18 H 9.026030 8.122262 -8.519505 0
M  V30 19 H 8.575411 6.439284 -8.320176 0
M  V30 20 H 10.277524 6.140062 -6.555749 0
M  V30 21 H 9.029936 7.280692 -6.122488 0
M  V30 22 H 11.753790 6.073351 -4.925625 0
M  V30 23 H 11.766469 10.390218 -2.597408 0
M  V30 24 H 12.489424 8.354012 -1.351045 0
M  V30 25 H 12.480351 6.146783 -2.533310 0
M  V30 26 H 10.467388 9.190296 -6.648297 0
M  V30 END ATOM
M  V30 BEGIN BOND
M  V30 1 1 2 1
M  V30 2 1 3 1
M  V30 3 1 4 3
M  V30 4 1 5 2
M  V30 5 1 6 4
M  V30 6 1 7 6
M  V30 7 1 8 5
M  V30 8 1 8 6
M  V30 9 1 9 7
M  V30 10 2 10 7
M  V30 11 1 11 10
M  V30 12 2 12 11
M  V30 13 2 13 9
M  V30 14 1 13 12
M  V30 15 1 14 1
M  V30 16 1 15 1
M  V30 17 1 16 3
M  V30 18 1 17 3
M  V30 19 1 18 5
M  V30 20 1 19 5
M  V30 21 1 20 8
M  V30 22 1 21 8
M  V30 23 1 22 9
M  V30 24 1 23 11
M  V30 25 1 24 12
M  V30 26 1 25 13
M  V30 27 1 6 26 CFG=3
M  V30 END BOND
M  V30 END CTAB
M  END
>  <i_epik_Tot_Q>  (1) 
0

>  <i_epik_Tot_abs_Q>  (1) 
0

>  <i_i_glide_confnum>  (1) 
3

>  <i_i_glide_lignum>  (1) 
101

>  <i_i_glide_posenum>  (1) 
299

>  <i_i_glide_rotatable_bonds>  (1) 
1

>  <i_lp_mmshare_version>  (1) 
72125

>  <i_m_source_file_index>  (1) 
93

>  <i_f3d_flags>  (1) 
0

>  <num_sample>  (1) 
100

>  <b_lp_Chiralities_Consistent>  (1) 
1

>  <r_epik_Charging_Adjusted_Penalty>  (1) 
0.0037896276157117258

>  <r_epik_Ionization_Penalty>  (1) 
0.0037896276174286705

>  <r_epik_Ionization_Penalty_Charging>  (1) 
0

>  <r_epik_Ionization_Penalty_Neutral>  (1) 
0.0037896276174286705

>  <r_epik_State_Penalty>  (1) 
0.0037896276157117258

>  <r_glide_ring_energy>  (1) 
0.0012564655157669368

>  <r_i_docking_score>  (1) 
-5.9965930128904485

>  <r_i_glide_ecoul>  (1) 
-1.9148885007126888

>  <r_i_glide_eff_state_penalty>  (1) 
0.0037896276157117258

>  <r_i_glide_einternal>  (1) 
3.6476110671423014

>  <r_i_glide_emodel>  (1) 
-32.233416233834035

>  <r_i_glide_emodel_strain>  (1) 
0.90876969689519171

>  <r_i_glide_energy>  (1) 
-25.452830757292727

>  <r_i_glide_erotb>  (1) 
0.4895878840251785

>  <r_i_glide_esite>  (1) 
0

>  <r_i_glide_evdw>  (1) 
-23.537942256580038

>  <r_i_glide_gscore>  (1) 
-6.0003826405061602

>  <r_i_glide_gscore_strain>  (1) 
0

>  <r_i_glide_hbond>  (1) 
0

>  <r_i_glide_ligand_efficiency>  (1) 
-0.46127638560695761

>  <r_i_glide_ligand_efficiency_ln>  (1) 
-1.6820976714127551

>  <r_i_glide_ligand_efficiency_sa>  (1) 
-1.0846151661040955

>  <r_i_glide_lipo>  (1) 
-2.0394315963662901

>  <r_i_glide_metal>  (1) 
-0

>  <r_i_glide_rewards>  (1) 
-2.986408540229144

>  <r_lp_Energy>  (1) 
20.663057999999999

>  <s_epik_cmdline>  (1) 
J2VwaWtfcHl0aG9uJywgJy1waHQnLCAnMS4wJywgJy1waCcsICc3LjQnLCAnLXRuJywgJzgnLCAnLW1hJywgJzUwMCcsICctaW1hZScsICc8aW5maWxlLm1hZT4nLCAnLW9tYWUnLCAnPG91dGZpbGUubWFlPic=

>  <s_epik_input>  (1) 
W0NIMl0xW0NIMl1PW0NIMl1bQ0gyXU8vQzE9QzJcW0NIXT1bQ0hdW0NIXT1bQ0hdW05IXTI=

>  <s_glide_docking_method>  (1) 
confgen

>  <s_i_glide_gridfile>  (1) 
gpcr_drd2_6luq_protein_autoprepared_prepared

>  <s_lp_Force_Field>  (1) 
S-OPLS

>  <s_lp_Variant>  (1) 
Pocket2Mol_92-2

>  <s_m_source_file>  (1) 
generated_generic_title2_ligand_Pocket2Mol_2026-06-23_prepared.sdf

>  <GenAI_Model>  (1) 
Pocket2Mol

>  <Protein>  (1) 
generic_title2

$$$$
Pocket2Mol_32
     RDKit          3D

  0  0  0  0  0  0  0  0  0  0999 V3000
M  V30 BEGIN CTAB
M  V30 COUNTS 17 18 0 0 1
M  V30 BEGIN ATOM
M  V30 1 C 11.017870 8.791760 -6.611777 0
M  V30 2 O 10.817262 7.448649 -6.038986 0
M  V30 3 C 11.375410 7.581217 -4.817631 0
M  V30 4 C 11.903527 8.790217 -4.538761 0
M  V30 5 C 12.520273 9.051659 -3.303429 0
M  V30 6 C 11.784868 9.779491 -5.612849 0
M  V30 7 C 11.409354 6.540546 -3.881428 0
M  V30 8 C 12.014563 6.763186 -2.623977 0
M  V30 9 C 12.575410 8.028277 -2.334337 0
M  V30 10 H 11.567935 8.699922 -7.548854 0
M  V30 11 H 10.035048 9.190227 -6.862572 0
M  V30 12 H 12.945319 10.012741 -3.097334 0
M  V30 13 H 11.184608 10.639117 -5.312802 0
M  V30 14 H 12.761257 10.090927 -5.985012 0
M  V30 15 H 10.975411 5.590226 -4.118058 0
M  V30 16 H 12.048033 5.971716 -1.889449 0
M  V30 17 H 13.041905 8.210985 -1.377579 0
M  V30 END ATOM
M  V30 BEGIN BOND
M  V30 1 1 2 1
M  V30 2 1 3 2
M  V30 3 1 4 3
M  V30 4 2 5 4
M  V30 5 1 6 1
M  V30 6 1 6 4
M  V30 7 2 7 3
M  V30 8 1 8 7
M  V30 9 1 9 5
M  V30 10 2 9 8
M  V30 11 1 10 1
M  V30 12 1 11 1
M  V30 13 1 12 5
M  V30 14 1 13 6
M  V30 15 1 14 6
M  V30 16 1 15 7
M  V30 17 1 16 8
M  V30 18 1 17 9
M  V30 END BOND
M  V30 END CTAB
M  END
>  <i_epik_Tot_Q>  (1) 
0

>  <i_epik_Tot_abs_Q>  (1) 
0

>  <i_i_glide_confnum>  (1) 
1

>  <i_i_glide_lignum>  (1) 
36

>  <i_i_glide_posenum>  (1) 
348

>  <i_i_glide_rotatable_bonds>  (1) 
0

>  <i_lp_mmshare_version>  (1) 
72125

>  <i_m_source_file_index>  (1) 
33

>  <i_f3d_flags>  (1) 
0

>  <num_sample>  (1) 
100

>  <b_lp_Chiralities_Consistent>  (1) 
1

>  <r_epik_Charging_Adjusted_Penalty>  (1) 
0

>  <r_epik_Ionization_Penalty>  (1) 
0

>  <r_epik_Ionization_Penalty_Charging>  (1) 
0

>  <r_epik_Ionization_Penalty_Neutral>  (1) 
0

>  <r_epik_State_Penalty>  (1) 
-0

>  <r_glide_ring_energy>  (1) 
0

>  <r_i_docking_score>  (1) 
-5.9944334138929314

>  <r_i_glide_ecoul>  (1) 
-0.27520770629446933

>  <r_i_glide_eff_state_penalty>  (1) 
-0

>  <r_i_glide_einternal>  (1) 
0

>  <r_i_glide_emodel>  (1) 
-27.149991174187182

>  <r_i_glide_emodel_strain>  (1) 
0

>  <r_i_glide_energy>  (1) 
-19.409088556282931

>  <r_i_glide_erotb>  (1) 
0

>  <r_i_glide_esite>  (1) 
0

>  <r_i_glide_evdw>  (1) 
-19.133880849988461

>  <r_i_glide_gscore>  (1) 
-5.9944334138929314

>  <r_i_glide_gscore_strain>  (1) 
0

>  <r_i_glide_hbond>  (1) 
0

>  <r_i_glide_ligand_efficiency>  (1) 
-0.66604815709921461

>  <r_i_glide_ligand_efficiency_ln>  (1) 
-1.8748865676765245

>  <r_i_glide_ligand_efficiency_sa>  (1) 
-1.3854359969556098

>  <r_i_glide_lipo>  (1) 
-2.259373250797982

>  <r_i_glide_metal>  (1) 
-0

>  <r_i_glide_rewards>  (1) 
-2.7370849646513551

>  <r_lp_Energy>  (1) 
11.954839999999999

>  <r_lp_tautomer_probability>  (1) 
1

>  <s_epik_cmdline>  (1) 
J2VwaWtfcHl0aG9uJywgJy1waHQnLCAnMS4wJywgJy1waCcsICc3LjQnLCAnLXRuJywgJzgnLCAnLW1hJywgJzUwMCcsICctaW1hZScsICc8aW5maWxlLm1hZT4nLCAnLW9tYWUnLCAnPG91dGZpbGUubWFlPic=

>  <s_epik_input>  (1) 
TzFbQ0gyXVtDSDJdYyhjMTIpW2NIXVtjSF1bY0hdW2NIXTI=

>  <s_glide_docking_method>  (1) 
confgen

>  <s_i_glide_gridfile>  (1) 
gpcr_drd2_6luq_protein_autoprepared_prepared

>  <s_lp_Force_Field>  (1) 
S-OPLS

>  <s_lp_Variant>  (1) 
Pocket2Mol_32-1

>  <s_m_source_file>  (1) 
generated_generic_title2_ligand_Pocket2Mol_2026-06-23_prepared.sdf

>  <GenAI_Model>  (1) 
Pocket2Mol

>  <Protein>  (1) 
generic_title2

$$$$
Pocket2Mol_71
     RDKit          3D

  0  0  0  0  0  0  0  0  0  0999 V3000
M  V30 BEGIN CTAB
M  V30 COUNTS 16 17 0 0 1
M  V30 BEGIN ATOM
M  V30 1 C 11.836882 6.954461 -2.509492 0
M  V30 2 O 11.378463 6.411114 -3.676693 0
M  V30 3 C 11.375366 7.275827 -4.779792 0
M  V30 4 C 11.775713 8.668548 -4.634610 0
M  V30 5 C 11.759942 9.480124 -5.791986 0
M  V30 6 C 10.985103 6.778881 -6.037311 0
M  V30 7 C 10.988739 7.613640 -7.161676 0
M  V30 8 N 12.167109 9.181831 -3.437756 0 CHG=-1
M  V30 9 C 12.189815 8.265992 -2.464231 0
M  V30 10 F 10.621419 7.123189 -8.369714 0
M  V30 11 C 11.375340 8.954697 -7.040615 0
M  V30 12 H 11.874120 6.253216 -1.689690 0
M  V30 13 H 12.052412 10.517118 -5.719744 0
M  V30 14 H 10.689352 5.746472 -6.138274 0
M  V30 15 H 12.552163 8.641047 -1.483427 0
M  V30 16 H 11.375791 9.590227 -7.911756 0
M  V30 END ATOM
M  V30 BEGIN BOND
M  V30 1 1 2 1
M  V30 2 1 3 2
M  V30 3 2 4 3
M  V30 4 1 5 4
M  V30 5 1 6 3
M  V30 6 2 7 6
M  V30 7 1 8 4
M  V30 8 2 9 1
M  V30 9 1 9 8
M  V30 10 1 10 7
M  V30 11 2 11 5
M  V30 12 1 11 7
M  V30 13 1 12 1
M  V30 14 1 13 5
M  V30 15 1 14 6
M  V30 16 1 15 9
M  V30 17 1 16 11
M  V30 END BOND
M  V30 END CTAB
M  END
>  <i_epik_Tot_Q>  (1) 
-1

>  <i_epik_Tot_abs_Q>  (1) 
1

>  <i_i_glide_confnum>  (1) 
1

>  <i_i_glide_lignum>  (1) 
78

>  <i_i_glide_posenum>  (1) 
73

>  <i_i_glide_rotatable_bonds>  (1) 
0

>  <i_lp_mmshare_version>  (1) 
72125

>  <i_m_source_file_index>  (1) 
72

>  <i_f3d_flags>  (1) 
0

>  <num_sample>  (1) 
100

>  <b_lp_Chiralities_Consistent>  (1) 
1

>  <r_epik_Charging_Adjusted_Penalty>  (1) 
0.017639978051431922

>  <r_epik_Ionization_Penalty>  (1) 
0.017639978051431908

>  <r_epik_Ionization_Penalty_Charging>  (1) 
0

>  <r_epik_Ionization_Penalty_Neutral>  (1) 
0.017639978051431908

>  <r_epik_State_Penalty>  (1) 
0.017639978051431922

>  <r_glide_ring_energy>  (1) 
0

>  <r_i_docking_score>  (1) 
-5.9925398192560468

>  <r_i_glide_ecoul>  (1) 
-0.25305300215645066

>  <r_i_glide_eff_state_penalty>  (1) 
0.017639978051431922

>  <r_i_glide_einternal>  (1) 
0

>  <r_i_glide_emodel>  (1) 
-28.725071861973756

>  <r_i_glide_emodel_strain>  (1) 
0

>  <r_i_glide_energy>  (1) 
-20.473052690929062

>  <r_i_glide_erotb>  (1) 
0

>  <r_i_glide_esite>  (1) 
-0.021400153690578488

>  <r_i_glide_evdw>  (1) 
-20.21999968877261

>  <r_i_glide_gscore>  (1) 
-6.0101797973074786

>  <r_i_glide_gscore_strain>  (1) 
0

>  <r_i_glide_hbond>  (1) 
0

>  <r_i_glide_ligand_efficiency>  (1) 
-0.54477634720509516

>  <r_i_glide_ligand_efficiency_ln>  (1) 
-1.763603448060608

>  <r_i_glide_ligand_efficiency_sa>  (1) 
-1.2115717499972085

>  <r_i_glide_lipo>  (1) 
-2.054713682264552

>  <r_i_glide_metal>  (1) 
-0

>  <r_i_glide_rewards>  (1) 
-2.8851080265902498

>  <r_lp_Energy>  (1) 
25.3598

>  <s_epik_Chemistry_Notes>  (1) 
This compound has an imine and may undergo hydrolysis.

>  <s_epik_cmdline>  (1) 
J2VwaWtfcHl0aG9uJywgJy1waHQnLCAnMS4wJywgJy1waCcsICc3LjQnLCAnLXRuJywgJzgnLCAnLW1hJywgJzUwMCcsICctaW1hZScsICc8aW5maWxlLm1hZT4nLCAnLW9tYWUnLCAnPG91dGZpbGUubWFlPic=

>  <s_epik_input>  (1) 
TzFbQ0gyXVtDSF09TmMoYzEyKVtjSF1bY0hdYyhGKVtjSF0y

>  <s_glide_docking_method>  (1) 
confgen

>  <s_i_glide_gridfile>  (1) 
gpcr_drd2_6luq_protein_autoprepared_prepared

>  <s_lp_Force_Field>  (1) 
S-OPLS

>  <s_lp_Variant>  (1) 
Pocket2Mol_71-1

>  <s_m_source_file>  (1) 
generated_generic_title2_ligand_Pocket2Mol_2026-06-23_prepared.sdf

>  <GenAI_Model>  (1) 
Pocket2Mol

>  <Protein>  (1) 
generic_title2

$$$$
Pocket2Mol_92
     RDKit          3D

  0  0  0  0  0  0  0  0  0  0999 V3000
M  V30 BEGIN CTAB
M  V30 COUNTS 26 27 0 0 1
M  V30 BEGIN ATOM
M  V30 1 C 11.458017 7.925494 -9.189396 0
M  V30 2 O 10.353720 8.790162 -9.003880 0
M  V30 3 C 12.630018 8.376211 -8.309832 0
M  V30 4 O 12.275705 8.794841 -6.997540 0
M  V30 5 C 9.468281 8.342997 -7.985004 0
M  V30 6 C 11.375186 7.958931 -6.280371 0 CFG=1
M  V30 7 C 11.685176 7.972217 -4.785001 0
M  V30 8 C 9.987999 8.529325 -6.556094 0
M  V30 9 C 11.775308 6.763010 -4.064799 0
M  V30 10 N 11.877631 9.190283 -4.221771 0
M  V30 11 C 12.175382 9.215481 -2.900703 0
M  V30 12 C 12.292623 8.062691 -2.106138 0
M  V30 13 C 12.085976 6.811272 -2.699366 0
M  V30 14 H 11.761857 7.971376 -10.234838 0
M  V30 15 H 11.194031 6.882997 -9.002369 0
M  V30 16 H 13.146182 9.190261 -8.802110 0
M  V30 17 H 13.374588 7.590222 -8.236606 0
M  V30 18 H 8.575410 8.954189 -8.077815 0
M  V30 19 H 9.155690 7.312272 -8.161443 0
M  V30 20 H 9.261866 8.080816 -5.879561 0
M  V30 21 H 10.030725 9.590162 -6.323075 0
M  V30 22 H 11.613823 5.815534 -4.556724 0
M  V30 23 H 12.319391 10.189337 -2.463078 0
M  V30 24 H 12.536297 8.144129 -1.059824 0
M  V30 25 H 12.164570 5.904264 -2.118129 0
M  V30 26 H 11.442012 6.924966 -6.623579 0
M  V30 END ATOM
M  V30 BEGIN BOND
M  V30 1 1 2 1
M  V30 2 1 3 1
M  V30 3 1 4 3
M  V30 4 1 5 2
M  V30 5 1 6 4
M  V30 6 1 7 6
M  V30 7 1 8 5
M  V30 8 1 8 6
M  V30 9 1 9 7
M  V30 10 2 10 7
M  V30 11 1 11 10
M  V30 12 2 12 11
M  V30 13 2 13 9
M  V30 14 1 13 12
M  V30 15 1 14 1
M  V30 16 1 15 1
M  V30 17 1 16 3
M  V30 18 1 17 3
M  V30 19 1 18 5
M  V30 20 1 19 5
M  V30 21 1 20 8
M  V30 22 1 21 8
M  V30 23 1 22 9
M  V30 24 1 23 11
M  V30 25 1 24 12
M  V30 26 1 25 13
M  V30 27 1 6 26 CFG=3
M  V30 END BOND
M  V30 END CTAB
M  END
>  <i_epik_Tot_Q>  (1) 
0

>  <i_epik_Tot_abs_Q>  (1) 
0

>  <i_i_glide_confnum>  (1) 
7

>  <i_i_glide_lignum>  (1) 
100

>  <i_i_glide_posenum>  (1) 
194

>  <i_i_glide_rotatable_bonds>  (1) 
1

>  <i_lp_mmshare_version>  (1) 
72125

>  <i_m_source_file_index>  (1) 
93

>  <i_f3d_flags>  (1) 
0

>  <num_sample>  (1) 
100

>  <b_lp_Chiralities_Consistent>  (1) 
1

>  <r_epik_Charging_Adjusted_Penalty>  (1) 
0.0037896276157117258

>  <r_epik_Ionization_Penalty>  (1) 
0.0037896276174286705

>  <r_epik_Ionization_Penalty_Charging>  (1) 
0

>  <r_epik_Ionization_Penalty_Neutral>  (1) 
0.0037896276174286705

>  <r_epik_State_Penalty>  (1) 
0.0037896276157117258

>  <r_glide_ring_energy>  (1) 
0.28676033120482208

>  <r_i_docking_score>  (1) 
-5.9875235161051439

>  <r_i_glide_ecoul>  (1) 
-2.1824165338664776

>  <r_i_glide_eff_state_penalty>  (1) 
0.0037896276157117258

>  <r_i_glide_einternal>  (1) 
0.30687223535737362

>  <r_i_glide_emodel>  (1) 
-34.744792955413068

>  <r_i_glide_emodel_strain>  (1) 
0

>  <r_i_glide_energy>  (1) 
-24.468259216924654

>  <r_i_glide_erotb>  (1) 
0.4895878840251785

>  <r_i_glide_esite>  (1) 
0

>  <r_i_glide_evdw>  (1) 
-22.285842683058178

>  <r_i_glide_gscore>  (1) 
-5.9913131437208555

>  <r_i_glide_gscore_strain>  (1) 
0

>  <r_i_glide_hbond>  (1) 
0

>  <r_i_glide_ligand_efficiency>  (1) 
-0.46057873200808797

>  <r_i_glide_ligand_efficiency_ln>  (1) 
-1.6795535969040045

>  <r_i_glide_ligand_efficiency_sa>  (1) 
-1.0829747489970603

>  <r_i_glide_lipo>  (1) 
-2.1561178574788458

>  <r_i_glide_metal>  (1) 
-0

>  <r_i_glide_rewards>  (1) 
-2.8831285560343076

>  <r_lp_Energy>  (1) 
20.645538999999999

>  <s_epik_cmdline>  (1) 
J2VwaWtfcHl0aG9uJywgJy1waHQnLCAnMS4wJywgJy1waCcsICc3LjQnLCAnLXRuJywgJzgnLCAnLW1hJywgJzUwMCcsICctaW1hZScsICc8aW5maWxlLm1hZT4nLCAnLW9tYWUnLCAnPG91dGZpbGUubWFlPic=

>  <s_epik_input>  (1) 
W0NIMl0xW0NIMl1PW0NIMl1bQ0gyXU8vQzE9QzJcW0NIXT1bQ0hdW0NIXT1bQ0hdW05IXTI=

>  <s_glide_docking_method>  (1) 
confgen

>  <s_i_glide_gridfile>  (1) 
gpcr_drd2_6luq_protein_autoprepared_prepared

>  <s_lp_Force_Field>  (1) 
S-OPLS

>  <s_lp_Variant>  (1) 
Pocket2Mol_92-1

>  <s_m_source_file>  (1) 
generated_generic_title2_ligand_Pocket2Mol_2026-06-23_prepared.sdf

>  <GenAI_Model>  (1) 
Pocket2Mol

>  <Protein>  (1) 
generic_title2

$$$$
Pocket2Mol_84
     RDKit          3D

  0  0  0  0  0  0  0  0  0  0999 V3000
M  V30 BEGIN CTAB
M  V30 COUNTS 23 24 0 0 1
M  V30 BEGIN ATOM
M  V30 1 C 11.749699 8.790498 -5.193360 0
M  V30 2 O 12.057883 9.393911 -6.508476 0
M  V30 3 C 11.410258 8.553512 -7.347807 0
M  V30 4 C 10.869671 7.458338 -6.775932 0
M  V30 5 C 10.152980 6.512467 -7.524815 0
M  V30 6 C 11.086046 7.343370 -5.333848 0
M  V30 7 C 9.990322 6.716111 -8.923509 0
M  V30 8 N 9.264045 5.789152 -9.713775 0
M  V30 9 C 11.291250 8.789677 -8.728053 0
M  V30 10 C 10.575688 7.866500 -9.525186 0
M  V30 11 O 8.575424 6.390232 -10.780898 0
M  V30 12 C 8.308045 4.971553 -8.976723 0
M  V30 13 H 11.034841 9.457200 -4.707406 0
M  V30 14 H 12.633421 8.777059 -4.556058 0
M  V30 15 H 9.731134 5.648650 -7.036529 0
M  V30 16 H 10.158754 7.208140 -4.785083 0
M  V30 17 H 11.775895 6.529866 -5.113708 0
M  V30 18 H 11.733739 9.668728 -9.173219 0
M  V30 19 H 10.471853 8.037423 -10.586384 0
M  V30 20 H 7.934562 6.971328 -10.351136 0
M  V30 21 H 8.826022 4.256307 -8.340541 0
M  V30 22 H 7.658807 5.590908 -8.355906 0
M  V30 23 H 7.674211 4.404441 -9.660005 0
M  V30 END ATOM
M  V30 BEGIN BOND
M  V30 1 1 2 1
M  V30 2 1 3 2
M  V30 3 2 4 3
M  V30 4 1 5 4
M  V30 5 1 6 1
M  V30 6 1 6 4
M  V30 7 2 7 5
M  V30 8 1 8 7
M  V30 9 1 9 3
M  V30 10 1 10 7
M  V30 11 2 10 9
M  V30 12 1 11 8
M  V30 13 1 12 8
M  V30 14 1 13 1
M  V30 15 1 14 1
M  V30 16 1 15 5
M  V30 17 1 16 6
M  V30 18 1 17 6
M  V30 19 1 18 9
M  V30 20 1 19 10
M  V30 21 1 20 11
M  V30 22 1 21 12
M  V30 23 1 22 12
M  V30 24 1 23 12
M  V30 END BOND
M  V30 END CTAB
M  END
>  <i_epik_Tot_Q>  (1) 
0

>  <i_epik_Tot_abs_Q>  (1) 
0

>  <i_i_glide_confnum>  (1) 
2

>  <i_i_glide_lignum>  (1) 
91

>  <i_i_glide_posenum>  (1) 
388

>  <i_i_glide_rotatable_bonds>  (1) 
2

>  <i_lp_mmshare_version>  (1) 
72125

>  <i_m_source_file_index>  (1) 
85

>  <i_f3d_flags>  (1) 
0

>  <num_sample>  (1) 
100

>  <b_lp_Chiralities_Consistent>  (1) 
1

>  <r_epik_Charging_Adjusted_Penalty>  (1) 
0

>  <r_epik_Ionization_Penalty>  (1) 
0.00097486698469066322

>  <r_epik_Ionization_Penalty_Charging>  (1) 
0

>  <r_epik_Ionization_Penalty_Neutral>  (1) 
0.00097486698469066322

>  <r_epik_State_Penalty>  (1) 
-0

>  <r_glide_ring_energy>  (1) 
0

>  <r_i_docking_score>  (1) 
-5.9795639431062089

>  <r_i_glide_ecoul>  (1) 
-5.3118070878714914

>  <r_i_glide_eff_state_penalty>  (1) 
-0

>  <r_i_glide_einternal>  (1) 
0.12750708985704229

>  <r_i_glide_emodel>  (1) 
-35.436960695009944

>  <r_i_glide_emodel_strain>  (1) 
0.002774244811469373

>  <r_i_glide_energy>  (1) 
-25.657121069092085

>  <r_i_glide_erotb>  (1) 
0

>  <r_i_glide_esite>  (1) 
-0.070050976827091507

>  <r_i_glide_evdw>  (1) 
-20.345313981220595

>  <r_i_glide_gscore>  (1) 
-5.9795639431062089

>  <r_i_glide_gscore_strain>  (1) 
0

>  <r_i_glide_hbond>  (1) 
-0.16

>  <r_i_glide_ligand_efficiency>  (1) 
-0.49829699525885074

>  <r_i_glide_ligand_efficiency_ln>  (1) 
-1.7158462317692118

>  <r_i_glide_ligand_efficiency_sa>  (1) 
-1.1408153349886732

>  <r_i_glide_lipo>  (1) 
-1.2520740003736994

>  <r_i_glide_metal>  (1) 
-0

>  <r_i_glide_rewards>  (1) 
-2.6834022036636651

>  <r_lp_Energy>  (1) 
21.474352

>  <r_lp_tautomer_probability>  (1) 
1

>  <s_epik_Chemistry_Notes>  (1) 
This compound has a N-S or N-O group and may undergo hydrolysis at high or low pH.

>  <s_epik_cmdline>  (1) 
J2VwaWtfcHl0aG9uJywgJy1waHQnLCAnMS4wJywgJy1waCcsICc3LjQnLCAnLXRuJywgJzgnLCAnLW1hJywgJzUwMCcsICctaW1hZScsICc8aW5maWxlLm1hZT4nLCAnLW9tYWUnLCAnPG91dGZpbGUubWFlPic=

>  <s_epik_input>  (1) 
TzFbQ0gyXVtDSDJdYyhjMTIpW2NIXWMoTihbT0hdKVtDSDNdKVtjSF1bY0hdMg==

>  <s_glide_docking_method>  (1) 
confgen

>  <s_i_glide_gridfile>  (1) 
gpcr_drd2_6luq_protein_autoprepared_prepared

>  <s_lp_Force_Field>  (1) 
S-OPLS

>  <s_lp_Variant>  (1) 
Pocket2Mol_84-1

>  <s_m_source_file>  (1) 
generated_generic_title2_ligand_Pocket2Mol_2026-06-23_prepared.sdf

>  <GenAI_Model>  (1) 
Pocket2Mol

>  <Protein>  (1) 
generic_title2

$$$$
Pocket2Mol_72
     RDKit          3D

  0  0  0  0  0  0  0  0  0  0999 V3000
M  V30 BEGIN CTAB
M  V30 COUNTS 18 19 0 0 1
M  V30 BEGIN ATOM
M  V30 1 C 9.460029 6.641960 -7.349488 0
M  V30 2 O 10.354118 6.156126 -6.361620 0
M  V30 3 C 10.975410 7.124309 -5.610839 0
M  V30 4 C 11.534184 6.790258 -4.360643 0
M  V30 5 C 10.185084 7.707875 -8.168562 0
M  V30 6 C 11.060547 8.455023 -6.089802 0
M  V30 7 O 10.526166 8.790226 -7.313722 0
M  V30 8 C 12.175410 7.779902 -3.585025 0
M  V30 9 C 11.695535 9.441726 -5.309977 0
M  V30 10 F 11.775409 10.713014 -5.765420 0
M  V30 11 C 12.251547 9.105204 -4.058157 0
M  V30 12 H 9.135289 5.816807 -7.983383 0
M  V30 13 H 8.575409 7.058338 -6.869670 0
M  V30 14 H 11.471678 5.775530 -3.996434 0
M  V30 15 H 11.083645 7.300095 -8.633835 0
M  V30 16 H 9.540498 8.077014 -8.966937 0
M  V30 17 H 12.603603 7.522369 -2.627272 0
M  V30 18 H 12.739619 9.862678 -3.463107 0
M  V30 END ATOM
M  V30 BEGIN BOND
M  V30 1 1 2 1
M  V30 2 1 3 2
M  V30 3 2 4 3
M  V30 4 1 5 1
M  V30 5 1 6 3
M  V30 6 1 7 5
M  V30 7 1 7 6
M  V30 8 1 8 4
M  V30 9 2 9 6
M  V30 10 1 10 9
M  V30 11 2 11 8
M  V30 12 1 11 9
M  V30 13 1 12 1
M  V30 14 1 13 1
M  V30 15 1 14 4
M  V30 16 1 15 5
M  V30 17 1 16 5
M  V30 18 1 17 8
M  V30 19 1 18 11
M  V30 END BOND
M  V30 END CTAB
M  END
>  <i_epik_Tot_Q>  (1) 
0

>  <i_epik_Tot_abs_Q>  (1) 
0

>  <i_i_glide_confnum>  (1) 
2

>  <i_i_glide_lignum>  (1) 
79

>  <i_i_glide_posenum>  (1) 
213

>  <i_i_glide_rotatable_bonds>  (1) 
0

>  <i_lp_mmshare_version>  (1) 
72125

>  <i_m_source_file_index>  (1) 
73

>  <i_f3d_flags>  (1) 
0

>  <num_sample>  (1) 
100

>  <b_lp_Chiralities_Consistent>  (1) 
1

>  <r_epik_Charging_Adjusted_Penalty>  (1) 
0

>  <r_epik_Ionization_Penalty>  (1) 
0

>  <r_epik_Ionization_Penalty_Charging>  (1) 
0

>  <r_epik_Ionization_Penalty_Neutral>  (1) 
0

>  <r_epik_State_Penalty>  (1) 
-0

>  <r_glide_ring_energy>  (1) 
0.0030882705297212471

>  <r_i_docking_score>  (1) 
-5.9776923387373033

>  <r_i_glide_ecoul>  (1) 
-1.0776122132550867

>  <r_i_glide_eff_state_penalty>  (1) 
-0

>  <r_i_glide_einternal>  (1) 
0

>  <r_i_glide_emodel>  (1) 
-28.848486995865738

>  <r_i_glide_emodel_strain>  (1) 
0

>  <r_i_glide_energy>  (1) 
-21.023408665690123

>  <r_i_glide_erotb>  (1) 
0

>  <r_i_glide_esite>  (1) 
0

>  <r_i_glide_evdw>  (1) 
-19.945796452435037

>  <r_i_glide_gscore>  (1) 
-5.9776923387373033

>  <r_i_glide_gscore_strain>  (1) 
0

>  <r_i_glide_hbond>  (1) 
0

>  <r_i_glide_ligand_efficiency>  (1) 
-0.54342657624884572

>  <r_i_glide_ligand_efficiency_ln>  (1) 
-1.7592338370730052

>  <r_i_glide_ligand_efficiency_sa>  (1) 
-1.2085698862636811

>  <r_i_glide_lipo>  (1) 
-1.7647184357738468

>  <r_i_glide_metal>  (1) 
-0

>  <r_i_glide_rewards>  (1) 
-3.0540422483534417

>  <r_lp_Energy>  (1) 
17.335863

>  <r_lp_tautomer_probability>  (1) 
1

>  <s_epik_cmdline>  (1) 
J2VwaWtfcHl0aG9uJywgJy1waHQnLCAnMS4wJywgJy1waCcsICc3LjQnLCAnLXRuJywgJzgnLCAnLW1hJywgJzUwMCcsICctaW1hZScsICc8aW5maWxlLm1hZT4nLCAnLW9tYWUnLCAnPG91dGZpbGUubWFlPic=

>  <s_epik_input>  (1) 
TzFbQ0gyXVtDSDJdT2MoYzEyKWMoRilbY0hdW2NIXVtjSF0y

>  <s_glide_docking_method>  (1) 
confgen

>  <s_i_glide_gridfile>  (1) 
gpcr_drd2_6luq_protein_autoprepared_prepared

>  <s_lp_Force_Field>  (1) 
S-OPLS

>  <s_lp_Variant>  (1) 
Pocket2Mol_72-1

>  <s_m_source_file>  (1) 
generated_generic_title2_ligand_Pocket2Mol_2026-06-23_prepared.sdf

>  <GenAI_Model>  (1) 
Pocket2Mol

>  <Protein>  (1) 
generic_title2

$$$$
Pocket2Mol_41
     RDKit          3D

  0  0  0  0  0  0  0  0  0  0999 V3000
M  V30 BEGIN CTAB
M  V30 COUNTS 15 16 0 0 1
M  V30 BEGIN ATOM
M  V30 1 C 11.163451 9.058855 -6.618790 0
M  V30 2 O 11.876588 9.693214 -5.518300 0
M  V30 3 C 11.922095 8.762854 -4.524853 0
M  V30 4 C 11.375410 7.531175 -4.785026 0
M  V30 5 C 11.375412 6.516942 -3.821472 0
M  V30 6 C 12.510580 9.031095 -3.276205 0
M  V30 7 C 12.527522 8.026038 -2.285796 0
M  V30 8 S 10.699321 7.293279 -6.335700 0
M  V30 9 C 11.955259 6.763150 -2.558479 0
M  V30 10 H 10.230041 9.590226 -6.785024 0
M  V30 11 H 11.753818 9.138727 -7.531784 0
M  V30 12 H 10.935574 5.567125 -4.042882 0
M  V30 13 H 12.946593 9.990230 -3.076702 0
M  V30 14 H 12.975412 8.222514 -1.322771 0
M  V30 15 H 11.961991 5.989172 -1.804755 0
M  V30 END ATOM
M  V30 BEGIN BOND
M  V30 1 1 2 1
M  V30 2 1 3 2
M  V30 3 1 4 3
M  V30 4 2 5 4
M  V30 5 2 6 3
M  V30 6 1 7 6
M  V30 7 1 8 1
M  V30 8 1 8 4
M  V30 9 1 9 5
M  V30 10 2 9 7
M  V30 11 1 10 1
M  V30 12 1 11 1
M  V30 13 1 12 5
M  V30 14 1 13 6
M  V30 15 1 14 7
M  V30 16 1 15 9
M  V30 END BOND
M  V30 END CTAB
M  END
>  <i_epik_Tot_Q>  (1) 
0

>  <i_epik_Tot_abs_Q>  (1) 
0

>  <i_i_glide_confnum>  (1) 
1

>  <i_i_glide_lignum>  (1) 
46

>  <i_i_glide_posenum>  (1) 
247

>  <i_i_glide_rotatable_bonds>  (1) 
0

>  <i_lp_mmshare_version>  (1) 
72125

>  <i_m_source_file_index>  (1) 
42

>  <i_f3d_flags>  (1) 
0

>  <num_sample>  (1) 
100

>  <b_lp_Chiralities_Consistent>  (1) 
1

>  <r_epik_Charging_Adjusted_Penalty>  (1) 
0

>  <r_epik_Ionization_Penalty>  (1) 
0

>  <r_epik_Ionization_Penalty_Charging>  (1) 
0

>  <r_epik_Ionization_Penalty_Neutral>  (1) 
0

>  <r_epik_State_Penalty>  (1) 
-0

>  <r_glide_ring_energy>  (1) 
0

>  <r_i_docking_score>  (1) 
-5.9760040179849243

>  <r_i_glide_ecoul>  (1) 
-0.34289326908993945

>  <r_i_glide_eff_state_penalty>  (1) 
-0

>  <r_i_glide_einternal>  (1) 
0

>  <r_i_glide_emodel>  (1) 
-28.48088685438546

>  <r_i_glide_emodel_strain>  (1) 
0

>  <r_i_glide_energy>  (1) 
-20.183262125729541

>  <r_i_glide_erotb>  (1) 
0

>  <r_i_glide_esite>  (1) 
0

>  <r_i_glide_evdw>  (1) 
-19.840368856639603

>  <r_i_glide_gscore>  (1) 
-5.9760040179849243

>  <r_i_glide_gscore_strain>  (1) 
0

>  <r_i_glide_hbond>  (1) 
0

>  <r_i_glide_ligand_efficiency>  (1) 
-0.66400044644276934

>  <r_i_glide_ligand_efficiency_ln>  (1) 
-1.869122382064214

>  <r_i_glide_ligand_efficiency_sa>  (1) 
-1.3811765871448469

>  <r_i_glide_lipo>  (1) 
-2.1884467782634953

>  <r_i_glide_metal>  (1) 
-0

>  <r_i_glide_rewards>  (1) 
-2.7441048065259581

>  <r_lp_Energy>  (1) 
5.8399909999999995

>  <r_lp_tautomer_probability>  (1) 
1

>  <s_epik_Chemistry_Notes>  (1) 
This compound contains an acetal/aminal-like group ( X-CH(R)-Y where X, Y are N, S, or O) that may be acid/base labile, releasing an aldehyde.

>  <s_epik_cmdline>  (1) 
J2VwaWtfcHl0aG9uJywgJy1waHQnLCAnMS4wJywgJy1waCcsICc3LjQnLCAnLXRuJywgJzgnLCAnLW1hJywgJzUwMCcsICctaW1hZScsICc8aW5maWxlLm1hZT4nLCAnLW9tYWUnLCAnPG91dGZpbGUubWFlPic=

>  <s_epik_input>  (1) 
TzFbQ0gyXVNjKGMxMilbY0hdW2NIXVtjSF1bY0hdMg==

>  <s_glide_docking_method>  (1) 
confgen

>  <s_i_glide_gridfile>  (1) 
gpcr_drd2_6luq_protein_autoprepared_prepared

>  <s_lp_Force_Field>  (1) 
S-OPLS

>  <s_lp_Variant>  (1) 
Pocket2Mol_41-1

>  <s_m_source_file>  (1) 
generated_generic_title2_ligand_Pocket2Mol_2026-06-23_prepared.sdf

>  <GenAI_Model>  (1) 
Pocket2Mol

>  <Protein>  (1) 
generic_title2

$$$$
Pocket2Mol_50
     RDKit          3D

  0  0  0  0  0  0  0  0  0  0999 V3000
M  V30 BEGIN CTAB
M  V30 COUNTS 16 17 0 0 1
M  V30 BEGIN ATOM
M  V30 1 C 9.860323 7.493785 -7.493081 0
M  V30 2 O 10.177946 6.443033 -6.530398 0
M  V30 3 C 10.847269 7.164233 -5.625906 0
M  V30 4 C 10.975411 8.453316 -5.940953 0
M  V30 5 C 11.648981 9.357241 -5.100933 0
M  V30 6 C 11.375410 6.637562 -4.436642 0
M  V30 7 C 12.061135 7.504258 -3.553257 0
M  V30 8 O 12.575410 7.025589 -2.385025 0
M  V30 9 C 12.200195 8.877182 -3.887986 0
M  V30 10 O 10.410694 8.790223 -7.103465 0
M  V30 11 H 10.256667 7.215124 -8.470095 0
M  V30 12 H 8.775090 7.578433 -7.574984 0
M  V30 13 H 11.741324 10.397924 -5.374276 0
M  V30 14 H 11.255849 5.590614 -4.200875 0
M  V30 15 H 12.359815 6.117468 -2.231180 0
M  V30 16 H 12.720214 9.550445 -3.221559 0
M  V30 END ATOM
M  V30 BEGIN BOND
M  V30 1 1 2 1
M  V30 2 1 3 2
M  V30 3 2 4 3
M  V30 4 1 5 4
M  V30 5 1 6 3
M  V30 6 2 7 6
M  V30 7 1 8 7
M  V30 8 2 9 5
M  V30 9 1 9 7
M  V30 10 1 10 1
M  V30 11 1 10 4
M  V30 12 1 11 1
M  V30 13 1 12 1
M  V30 14 1 13 5
M  V30 15 1 14 6
M  V30 16 1 15 8
M  V30 17 1 16 9
M  V30 END BOND
M  V30 END CTAB
M  END
>  <i_epik_Tot_Q>  (1) 
0

>  <i_epik_Tot_abs_Q>  (1) 
0

>  <i_i_glide_confnum>  (1) 
1

>  <i_i_glide_lignum>  (1) 
57

>  <i_i_glide_posenum>  (1) 
387

>  <i_i_glide_rotatable_bonds>  (1) 
1

>  <i_lp_mmshare_version>  (1) 
72125

>  <i_m_source_file_index>  (1) 
51

>  <i_f3d_flags>  (1) 
0

>  <num_sample>  (1) 
100

>  <b_lp_Chiralities_Consistent>  (1) 
1

>  <r_epik_Charging_Adjusted_Penalty>  (1) 
0

>  <r_epik_Ionization_Penalty>  (1) 
0.0018243540331301816

>  <r_epik_Ionization_Penalty_Charging>  (1) 
0

>  <r_epik_Ionization_Penalty_Neutral>  (1) 
0.0018243540331301816

>  <r_epik_State_Penalty>  (1) 
-0

>  <r_glide_ring_energy>  (1) 
0

>  <r_i_docking_score>  (1) 
-5.966537774759245

>  <r_i_glide_ecoul>  (1) 
-1.9982219684755183

>  <r_i_glide_eff_state_penalty>  (1) 
-0

>  <r_i_glide_einternal>  (1) 
0.020644977406551746

>  <r_i_glide_emodel>  (1) 
-32.481616776553452

>  <r_i_glide_emodel_strain>  (1) 
0

>  <r_i_glide_energy>  (1) 
-22.894831028097855

>  <r_i_glide_erotb>  (1) 
0

>  <r_i_glide_esite>  (1) 
-0.060495704409910582

>  <r_i_glide_evdw>  (1) 
-20.896609059622335

>  <r_i_glide_gscore>  (1) 
-5.966537774759245

>  <r_i_glide_gscore_strain>  (1) 
0

>  <r_i_glide_hbond>  (1) 
0

>  <r_i_glide_ligand_efficiency>  (1) 
-0.59665377747592452

>  <r_i_glide_ligand_efficiency_ln>  (1) 
-1.8066265082514867

>  <r_i_glide_ligand_efficiency_sa>  (1) 
-1.285451596132696

>  <r_i_glide_lipo>  (1) 
-1.8289767200879044

>  <r_i_glide_metal>  (1) 
-0

>  <r_i_glide_rewards>  (1) 
-2.732501602008985

>  <r_lp_Energy>  (1) 
16.555202999999999

>  <r_lp_tautomer_probability>  (1) 
1

>  <s_epik_Chemistry_Notes>  (1) 
This compound contains an acetal/aminal-like group ( X-CH(R)-Y where X, Y are N, S, or O) that may be acid/base labile, releasing an aldehyde.

>  <s_epik_cmdline>  (1) 
J2VwaWtfcHl0aG9uJywgJy1waHQnLCAnMS4wJywgJy1waCcsICc3LjQnLCAnLXRuJywgJzgnLCAnLW1hJywgJzUwMCcsICctaW1hZScsICc8aW5maWxlLm1hZT4nLCAnLW9tYWUnLCAnPG91dGZpbGUubWFlPic=

>  <s_epik_input>  (1) 
TzFbQ0gyXU9jKGMxMilbY0hdW2NIXWMoW2NIXTIpW09IXQ==

>  <s_glide_docking_method>  (1) 
confgen

>  <s_i_glide_gridfile>  (1) 
gpcr_drd2_6luq_protein_autoprepared_prepared

>  <s_lp_Force_Field>  (1) 
S-OPLS

>  <s_lp_Variant>  (1) 
Pocket2Mol_50-1

>  <s_m_source_file>  (1) 
generated_generic_title2_ligand_Pocket2Mol_2026-06-23_prepared.sdf

>  <GenAI_Model>  (1) 
Pocket2Mol

>  <Protein>  (1) 
generic_title2

$$$$
Pocket2Mol_71
     RDKit          3D

  0  0  0  0  0  0  0  0  0  0999 V3000
M  V30 BEGIN CTAB
M  V30 COUNTS 16 17 0 0 1
M  V30 BEGIN ATOM
M  V30 1 C 10.575413 6.658135 -7.186201 0
M  V30 2 O 10.987271 6.222790 -5.961802 0
M  V30 3 C 11.375397 7.221629 -5.066033 0
M  V30 4 C 11.370469 8.618631 -5.466139 0
M  V30 5 C 11.775289 9.576949 -4.514572 0
M  V30 6 C 11.775410 6.857616 -3.768011 0
M  V30 7 C 12.179837 7.838499 -2.851935 0
M  V30 8 N 10.989226 9.004479 -6.709716 0 CHG=-1
M  V30 9 C 10.598431 7.981649 -7.475448 0
M  V30 10 F 12.575350 7.480907 -1.609038 0
M  V30 11 C 12.177028 9.190227 -3.221356 0
M  V30 12 H 10.249709 5.865796 -7.842707 0
M  V30 13 H 11.775414 10.622387 -4.785025 0
M  V30 14 H 11.776626 5.818104 -3.478474 0
M  V30 15 H 10.248089 8.267706 -8.490251 0
M  V30 16 H 12.486026 9.940311 -2.509040 0
M  V30 END ATOM
M  V30 BEGIN BOND
M  V30 1 1 2 1
M  V30 2 1 3 2
M  V30 3 2 4 3
M  V30 4 1 5 4
M  V30 5 1 6 3
M  V30 6 2 7 6
M  V30 7 1 8 4
M  V30 8 2 9 1
M  V30 9 1 9 8
M  V30 10 1 10 7
M  V30 11 2 11 5
M  V30 12 1 11 7
M  V30 13 1 12 1
M  V30 14 1 13 5
M  V30 15 1 14 6
M  V30 16 1 15 9
M  V30 17 1 16 11
M  V30 END BOND
M  V30 END CTAB
M  END
>  <i_epik_Tot_Q>  (1) 
-1

>  <i_epik_Tot_abs_Q>  (1) 
1

>  <i_i_glide_confnum>  (1) 
1

>  <i_i_glide_lignum>  (1) 
78

>  <i_i_glide_posenum>  (1) 
135

>  <i_i_glide_rotatable_bonds>  (1) 
0

>  <i_lp_mmshare_version>  (1) 
72125

>  <i_m_source_file_index>  (1) 
72

>  <i_f3d_flags>  (1) 
0

>  <num_sample>  (1) 
100

>  <b_lp_Chiralities_Consistent>  (1) 
1

>  <r_epik_Charging_Adjusted_Penalty>  (1) 
0.017639978051431922

>  <r_epik_Ionization_Penalty>  (1) 
0.017639978051431908

>  <r_epik_Ionization_Penalty_Charging>  (1) 
0

>  <r_epik_Ionization_Penalty_Neutral>  (1) 
0.017639978051431908

>  <r_epik_State_Penalty>  (1) 
0.017639978051431922

>  <r_glide_ring_energy>  (1) 
0

>  <r_i_docking_score>  (1) 
-5.9559119714429594

>  <r_i_glide_ecoul>  (1) 
-0.74753343629856661

>  <r_i_glide_eff_state_penalty>  (1) 
0.017639978051431922

>  <r_i_glide_einternal>  (1) 
0

>  <r_i_glide_emodel>  (1) 
-27.705552191415649

>  <r_i_glide_emodel_strain>  (1) 
0

>  <r_i_glide_energy>  (1) 
-19.50382331326421

>  <r_i_glide_erotb>  (1) 
0

>  <r_i_glide_esite>  (1) 
0

>  <r_i_glide_evdw>  (1) 
-18.756289876965642

>  <r_i_glide_gscore>  (1) 
-5.9735519494943912

>  <r_i_glide_gscore_strain>  (1) 
0

>  <r_i_glide_hbond>  (1) 
0

>  <r_i_glide_ligand_efficiency>  (1) 
-0.54144654285845084

>  <r_i_glide_ligand_efficiency_ln>  (1) 
-1.7528238786882646

>  <r_i_glide_ligand_efficiency_sa>  (1) 
-1.2041663314247804

>  <r_i_glide_lipo>  (1) 
-2.0093037106826066

>  <r_i_glide_metal>  (1) 
-0

>  <r_i_glide_rewards>  (1) 
-2.9143037295187177

>  <r_lp_Energy>  (1) 
25.3598

>  <s_epik_Chemistry_Notes>  (1) 
This compound has an imine and may undergo hydrolysis.

>  <s_epik_cmdline>  (1) 
J2VwaWtfcHl0aG9uJywgJy1waHQnLCAnMS4wJywgJy1waCcsICc3LjQnLCAnLXRuJywgJzgnLCAnLW1hJywgJzUwMCcsICctaW1hZScsICc8aW5maWxlLm1hZT4nLCAnLW9tYWUnLCAnPG91dGZpbGUubWFlPic=

>  <s_epik_input>  (1) 
TzFbQ0gyXVtDSF09TmMoYzEyKVtjSF1bY0hdYyhGKVtjSF0y

>  <s_glide_docking_method>  (1) 
confgen

>  <s_i_glide_gridfile>  (1) 
gpcr_drd2_6luq_protein_autoprepared_prepared

>  <s_lp_Force_Field>  (1) 
S-OPLS

>  <s_lp_Variant>  (1) 
Pocket2Mol_71-1

>  <s_m_source_file>  (1) 
generated_generic_title2_ligand_Pocket2Mol_2026-06-23_prepared.sdf

>  <GenAI_Model>  (1) 
Pocket2Mol

>  <Protein>  (1) 
generic_title2

$$$$
Pocket2Mol_61
     RDKit          3D

  0  0  0  0  0  0  0  0  0  0999 V3000
M  V30 BEGIN CTAB
M  V30 COUNTS 18 19 0 0 1
M  V30 BEGIN ATOM
M  V30 1 C 12.575409 8.084688 -2.013571 0
M  V30 2 O 12.462849 9.190228 -2.830386 0
M  V30 3 C 11.972874 8.756977 -4.035791 0
M  V30 4 C 11.775419 7.368720 -3.985016 0
M  V30 5 C 11.262895 6.750660 -5.155282 0
M  V30 6 C 10.975414 7.518557 -6.315191 0
M  V30 7 C 12.170480 6.940646 -2.676872 0
M  V30 8 N 10.475742 6.882975 -7.460119 0
M  V30 9 C 11.194611 8.920781 -6.309931 0
M  V30 10 C 11.696056 9.539991 -5.158034 0
M  V30 11 O 10.796054 7.532415 -8.665179 0
M  V30 12 H 12.952543 8.271164 -1.018508 0
M  V30 13 H 11.092035 5.684993 -5.162119 0
M  V30 14 H 12.147144 5.929612 -2.295432 0
M  V30 15 H 10.592625 5.881923 -7.542510 0
M  V30 16 H 10.975410 9.510393 -7.185038 0
M  V30 17 H 11.863603 10.605284 -5.139428 0
M  V30 18 H 11.736860 7.491918 -8.743486 0
M  V30 END ATOM
M  V30 BEGIN BOND
M  V30 1 1 2 1
M  V30 2 1 3 2
M  V30 3 1 4 3
M  V30 4 2 5 4
M  V30 5 1 6 5
M  V30 6 2 7 1
M  V30 7 1 7 4
M  V30 8 1 8 6
M  V30 9 2 9 6
M  V30 10 2 10 3
M  V30 11 1 10 9
M  V30 12 1 11 8
M  V30 13 1 12 1
M  V30 14 1 13 5
M  V30 15 1 14 7
M  V30 16 1 15 8
M  V30 17 1 16 9
M  V30 18 1 17 10
M  V30 19 1 18 11
M  V30 END BOND
M  V30 END CTAB
M  END
>  <i_epik_Tot_Q>  (1) 
0

>  <i_epik_Tot_abs_Q>  (1) 
0

>  <i_i_glide_confnum>  (1) 
1

>  <i_i_glide_lignum>  (1) 
68

>  <i_i_glide_posenum>  (1) 
155

>  <i_i_glide_rotatable_bonds>  (1) 
2

>  <i_lp_mmshare_version>  (1) 
72125

>  <i_m_source_file_index>  (1) 
62

>  <i_f3d_flags>  (1) 
0

>  <num_sample>  (1) 
100

>  <b_lp_Chiralities_Consistent>  (1) 
1

>  <r_epik_Charging_Adjusted_Penalty>  (1) 
0

>  <r_epik_Ionization_Penalty>  (1) 
0.00016546089717554426

>  <r_epik_Ionization_Penalty_Charging>  (1) 
0

>  <r_epik_Ionization_Penalty_Neutral>  (1) 
0.00016546089717554426

>  <r_epik_State_Penalty>  (1) 
-0

>  <r_glide_ring_energy>  (1) 
0

>  <r_i_docking_score>  (1) 
-5.9540927964590917

>  <r_i_glide_ecoul>  (1) 
0.69421877552487898

>  <r_i_glide_eff_state_penalty>  (1) 
-0

>  <r_i_glide_einternal>  (1) 
0.74550728548009326

>  <r_i_glide_emodel>  (1) 
-32.786036905475846

>  <r_i_glide_emodel_strain>  (1) 
0

>  <r_i_glide_energy>  (1) 
-23.44628766736454

>  <r_i_glide_erotb>  (1) 
0

>  <r_i_glide_esite>  (1) 
0

>  <r_i_glide_evdw>  (1) 
-24.140506442889418

>  <r_i_glide_gscore>  (1) 
-5.9540927964590917

>  <r_i_glide_gscore_strain>  (1) 
0

>  <r_i_glide_hbond>  (1) 
0

>  <r_i_glide_ligand_efficiency>  (1) 
-0.54128116331446285

>  <r_i_glide_ligand_efficiency_ln>  (1) 
-1.7522884958003837

>  <r_i_glide_ligand_efficiency_sa>  (1) 
-1.2037985306115637

>  <r_i_glide_lipo>  (1) 
-2.3314078834503196

>  <r_i_glide_metal>  (1) 
-0

>  <r_i_glide_rewards>  (1) 
-2.5197924071930333

>  <r_lp_Energy>  (1) 
13.798807999999999

>  <r_lp_tautomer_probability>  (1) 
1

>  <s_epik_Chemistry_Notes>  (1) 
This compound has a N-S or N-O group and may undergo hydrolysis at high or low pH.

>  <s_epik_cmdline>  (1) 
J2VwaWtfcHl0aG9uJywgJy1waHQnLCAnMS4wJywgJy1waCcsICc3LjQnLCAnLXRuJywgJzgnLCAnLW1hJywgJzUwMCcsICctaW1hZScsICc8aW5maWxlLm1hZT4nLCAnLW9tYWUnLCAnPG91dGZpbGUubWFlPic=

>  <s_epik_input>  (1) 
bzFbY0hdW2NIXWMoYzEyKVtjSF1jKFtOSF1bT0hdKVtjSF1bY0hdMg==

>  <s_glide_docking_method>  (1) 
confgen

>  <s_i_glide_gridfile>  (1) 
gpcr_drd2_6luq_protein_autoprepared_prepared

>  <s_lp_Force_Field>  (1) 
S-OPLS

>  <s_lp_Variant>  (1) 
Pocket2Mol_61-1

>  <s_m_source_file>  (1) 
generated_generic_title2_ligand_Pocket2Mol_2026-06-23_prepared.sdf

>  <GenAI_Model>  (1) 
Pocket2Mol

>  <Protein>  (1) 
generic_title2

$$$$
Pocket2Mol_56
     RDKit          3D

  0  0  0  0  0  0  0  0  0  0999 V3000
M  V30 BEGIN CTAB
M  V30 COUNTS 19 20 0 0 1
M  V30 BEGIN ATOM
M  V30 1 C 11.851740 9.314854 -6.789829 0
M  V30 2 O 11.976146 9.780678 -5.458579 0
M  V30 3 C 11.958882 8.790227 -4.505147 0
M  V30 4 C 11.375411 7.521644 -4.785025 0
M  V30 5 C 11.375411 6.525907 -3.796281 0
M  V30 6 C 12.527577 9.033784 -3.241679 0
M  V30 7 C 12.525239 8.029246 -2.258784 0
M  V30 8 N 10.800744 7.254323 -6.037029 0
M  V30 9 C 10.627191 8.405695 -6.900381 0
M  V30 10 C 11.950238 6.776246 -2.534658 0
M  V30 11 H 11.775410 10.169033 -7.453815 0
M  V30 12 H 12.761069 8.790233 -7.085035 0
M  V30 13 H 10.930213 5.575466 -4.003210 0
M  V30 14 H 12.970477 9.990227 -3.028328 0
M  V30 15 H 12.965004 8.221250 -1.291362 0
M  V30 16 H 10.207905 6.444134 -6.158328 0
M  V30 17 H 9.716215 8.937965 -6.624744 0
M  V30 18 H 10.501262 8.061849 -7.927366 0
M  V30 19 H 11.947101 6.004665 -1.778005 0
M  V30 END ATOM
M  V30 BEGIN BOND
M  V30 1 1 2 1
M  V30 2 1 3 2
M  V30 3 1 4 3
M  V30 4 2 5 4
M  V30 5 2 6 3
M  V30 6 1 7 6
M  V30 7 1 8 4
M  V30 8 1 9 1
M  V30 9 1 9 8
M  V30 10 1 10 5
M  V30 11 2 10 7
M  V30 12 1 11 1
M  V30 13 1 12 1
M  V30 14 1 13 5
M  V30 15 1 14 6
M  V30 16 1 15 7
M  V30 17 1 16 8
M  V30 18 1 17 9
M  V30 19 1 18 9
M  V30 20 1 19 10
M  V30 END BOND
M  V30 END CTAB
M  END
>  <i_epik_Tot_Q>  (1) 
0

>  <i_epik_Tot_abs_Q>  (1) 
0

>  <i_i_glide_confnum>  (1) 
1

>  <i_i_glide_lignum>  (1) 
63

>  <i_i_glide_posenum>  (1) 
122

>  <i_i_glide_rotatable_bonds>  (1) 
0

>  <i_lp_mmshare_version>  (1) 
72125

>  <i_m_source_file_index>  (1) 
57

>  <i_f3d_flags>  (1) 
0

>  <num_sample>  (1) 
100

>  <b_lp_Chiralities_Consistent>  (1) 
1

>  <r_epik_Charging_Adjusted_Penalty>  (1) 
0

>  <r_epik_Ionization_Penalty>  (1) 
0.00026422915675488977

>  <r_epik_Ionization_Penalty_Charging>  (1) 
0

>  <r_epik_Ionization_Penalty_Neutral>  (1) 
0.00026422915675488977

>  <r_epik_State_Penalty>  (1) 
-0

>  <r_glide_ring_energy>  (1) 
0

>  <r_i_docking_score>  (1) 
-5.9409721748153181

>  <r_i_glide_ecoul>  (1) 
-1.4038011236374337

>  <r_i_glide_eff_state_penalty>  (1) 
-0

>  <r_i_glide_einternal>  (1) 
0

>  <r_i_glide_emodel>  (1) 
-29.24760130207742

>  <r_i_glide_emodel_strain>  (1) 
0

>  <r_i_glide_energy>  (1) 
-21.014112988130719

>  <r_i_glide_erotb>  (1) 
0

>  <r_i_glide_esite>  (1) 
0

>  <r_i_glide_evdw>  (1) 
-19.610311864493287

>  <r_i_glide_gscore>  (1) 
-5.9409721748153181

>  <r_i_glide_gscore_strain>  (1) 
0

>  <r_i_glide_hbond>  (1) 
0

>  <r_i_glide_ligand_efficiency>  (1) 
-0.59409721748153177

>  <r_i_glide_ligand_efficiency_ln>  (1) 
-1.7988854208232898

>  <r_i_glide_ligand_efficiency_sa>  (1) 
-1.2799436545936287

>  <r_i_glide_lipo>  (1) 
-2.1248864130450391

>  <r_i_glide_metal>  (1) 
-0

>  <r_i_glide_rewards>  (1) 
-2.625

>  <r_lp_Energy>  (1) 
15.245389999999999

>  <r_lp_tautomer_probability>  (1) 
1

>  <s_epik_cmdline>  (1) 
J2VwaWtfcHl0aG9uJywgJy1waHQnLCAnMS4wJywgJy1waCcsICc3LjQnLCAnLXRuJywgJzgnLCAnLW1hJywgJzUwMCcsICctaW1hZScsICc8aW5maWxlLm1hZT4nLCAnLW9tYWUnLCAnPG91dGZpbGUubWFlPic=

>  <s_epik_input>  (1) 
TzFbQ0gyXVtDSDJdW05IXWMoYzEyKVtjSF1bY0hdW2NIXVtjSF0y

>  <s_glide_docking_method>  (1) 
confgen

>  <s_i_glide_gridfile>  (1) 
gpcr_drd2_6luq_protein_autoprepared_prepared

>  <s_lp_Force_Field>  (1) 
S-OPLS

>  <s_lp_Variant>  (1) 
Pocket2Mol_56-1

>  <s_m_source_file>  (1) 
generated_generic_title2_ligand_Pocket2Mol_2026-06-23_prepared.sdf

>  <GenAI_Model>  (1) 
Pocket2Mol

>  <Protein>  (1) 
generic_title2

$$$$
Pocket2Mol_54
     RDKit          3D

  0  0  0  0  0  0  0  0  0  0999 V3000
M  V30 BEGIN CTAB
M  V30 COUNTS 18 19 0 0 1
M  V30 BEGIN ATOM
M  V30 1 C 12.573627 8.675014 -2.218929 0
M  V30 2 O 12.542481 9.590227 -3.379029 0
M  V30 3 C 12.030801 8.801253 -4.345218 0
M  V30 4 C 11.775411 7.525559 -3.985025 0
M  V30 5 C 11.236204 6.601649 -4.891880 0
M  V30 6 C 11.775410 9.255645 -5.651686 0
M  V30 7 C 11.240522 8.350696 -6.598700 0
M  V30 8 O 10.994267 8.757274 -7.875910 0
M  V30 9 C 10.965413 7.016276 -6.214229 0
M  V30 10 C 12.108405 7.194132 -2.594303 0
M  V30 11 H 13.576787 8.671609 -1.793663 0
M  V30 12 H 11.915010 9.083617 -1.451316 0
M  V30 13 H 11.034232 5.590223 -4.584439 0
M  V30 14 H 11.988754 10.277928 -5.927014 0
M  V30 15 H 11.237024 9.652555 -8.047622 0
M  V30 16 H 10.553513 6.318267 -6.929021 0
M  V30 17 H 11.242360 6.853323 -2.025805 0
M  V30 18 H 12.918506 6.466450 -2.539744 0
M  V30 END ATOM
M  V30 BEGIN BOND
M  V30 1 1 2 1
M  V30 2 1 3 2
M  V30 3 2 4 3
M  V30 4 1 5 4
M  V30 5 1 6 3
M  V30 6 2 7 6
M  V30 7 1 8 7
M  V30 8 2 9 5
M  V30 9 1 9 7
M  V30 10 1 10 1
M  V30 11 1 10 4
M  V30 12 1 11 1
M  V30 13 1 12 1
M  V30 14 1 13 5
M  V30 15 1 14 6
M  V30 16 1 15 8
M  V30 17 1 16 9
M  V30 18 1 17 10
M  V30 19 1 18 10
M  V30 END BOND
M  V30 END CTAB
M  END
>  <i_epik_Tot_Q>  (1) 
0

>  <i_epik_Tot_abs_Q>  (1) 
0

>  <i_i_glide_confnum>  (1) 
1

>  <i_i_glide_lignum>  (1) 
61

>  <i_i_glide_posenum>  (1) 
60

>  <i_i_glide_rotatable_bonds>  (1) 
1

>  <i_lp_mmshare_version>  (1) 
72125

>  <i_m_source_file_index>  (1) 
55

>  <i_f3d_flags>  (1) 
0

>  <num_sample>  (1) 
100

>  <b_lp_Chiralities_Consistent>  (1) 
1

>  <r_epik_Charging_Adjusted_Penalty>  (1) 
0

>  <r_epik_Ionization_Penalty>  (1) 
0.0019697177408658601

>  <r_epik_Ionization_Penalty_Charging>  (1) 
0

>  <r_epik_Ionization_Penalty_Neutral>  (1) 
0.0019697177408658601

>  <r_epik_State_Penalty>  (1) 
-0

>  <r_glide_ring_energy>  (1) 
0

>  <r_i_docking_score>  (1) 
-5.9388749460361643

>  <r_i_glide_ecoul>  (1) 
-0.0672363523704681

>  <r_i_glide_eff_state_penalty>  (1) 
-0

>  <r_i_glide_einternal>  (1) 
0.0021171791434221598

>  <r_i_glide_emodel>  (1) 
-28.87899197893158

>  <r_i_glide_emodel_strain>  (1) 
0

>  <r_i_glide_energy>  (1) 
-20.418862907684542

>  <r_i_glide_erotb>  (1) 
0

>  <r_i_glide_esite>  (1) 
0

>  <r_i_glide_evdw>  (1) 
-20.351626555314073

>  <r_i_glide_gscore>  (1) 
-5.9388749460361643

>  <r_i_glide_gscore_strain>  (1) 
0

>  <r_i_glide_hbond>  (1) 
0

>  <r_i_glide_ligand_efficiency>  (1) 
-0.59388749460361645

>  <r_i_glide_ligand_efficiency_ln>  (1) 
-1.7982503944060741

>  <r_i_glide_ligand_efficiency_sa>  (1) 
-1.2794918203501544

>  <r_i_glide_lipo>  (1) 
-2.3004883948896611

>  <r_i_glide_metal>  (1) 
-0

>  <r_i_glide_rewards>  (1) 
-2.6107197705252299

>  <r_lp_Energy>  (1) 
8.5284040000000001

>  <r_lp_tautomer_probability>  (1) 
1

>  <s_epik_cmdline>  (1) 
J2VwaWtfcHl0aG9uJywgJy1waHQnLCAnMS4wJywgJy1waCcsICc3LjQnLCAnLXRuJywgJzgnLCAnLW1hJywgJzUwMCcsICctaW1hZScsICc8aW5maWxlLm1hZT4nLCAnLW9tYWUnLCAnPG91dGZpbGUubWFlPic=

>  <s_epik_input>  (1) 
TzFbQ0gyXVtDSDJdYyhjMTIpW2NIXVtjSF1jKFtjSF0yKVtPSF0=

>  <s_glide_docking_method>  (1) 
confgen

>  <s_i_glide_gridfile>  (1) 
gpcr_drd2_6luq_protein_autoprepared_prepared

>  <s_lp_Force_Field>  (1) 
S-OPLS

>  <s_lp_Variant>  (1) 
Pocket2Mol_54-1

>  <s_m_source_file>  (1) 
generated_generic_title2_ligand_Pocket2Mol_2026-06-23_prepared.sdf

>  <GenAI_Model>  (1) 
Pocket2Mol

>  <Protein>  (1) 
generic_title2

$$$$
Pocket2Mol_73
     RDKit          3D

  0  0  0  0  0  0  0  0  0  0999 V3000
M  V30 BEGIN CTAB
M  V30 COUNTS 20 21 0 0 1
M  V30 BEGIN ATOM
M  V30 1 C 12.119633 9.348917 -5.372243 0
M  V30 2 O 12.520783 9.519796 -6.783559 0
M  V30 3 C 11.759016 8.593295 -7.407360 0
M  V30 4 C 11.014440 7.814268 -6.600348 0
M  V30 5 C 10.172085 6.813956 -7.106670 0
M  V30 6 C 11.147867 8.099928 -5.183738 0
M  V30 7 C 11.724791 8.439210 -8.802407 0
M  V30 8 C 10.093119 6.627080 -8.501669 0
M  V30 9 N 9.244953 5.638578 -9.022414 0
M  V30 10 C 10.880405 7.450433 -9.361343 0
M  V30 11 O 8.657541 5.988233 -10.249326 0
M  V30 12 H 11.606268 10.257578 -5.058942 0
M  V30 13 H 12.999815 9.264287 -4.734566 0
M  V30 14 H 9.584611 6.202709 -6.436242 0
M  V30 15 H 10.177679 8.370051 -4.785025 0
M  V30 16 H 11.591232 7.268072 -4.636757 0
M  V30 17 H 12.329577 9.070338 -9.438724 0
M  V30 18 H 8.548000 5.257472 -8.394384 0
M  V30 19 H 10.838596 7.321354 -10.431875 0
M  V30 20 H 8.018348 6.674203 -10.031261 0
M  V30 END ATOM
M  V30 BEGIN BOND
M  V30 1 1 2 1
M  V30 2 1 3 2
M  V30 3 2 4 3
M  V30 4 1 5 4
M  V30 5 1 6 1
M  V30 6 1 6 4
M  V30 7 1 7 3
M  V30 8 2 8 5
M  V30 9 1 9 8
M  V30 10 2 10 7
M  V30 11 1 10 8
M  V30 12 1 11 9
M  V30 13 1 12 1
M  V30 14 1 13 1
M  V30 15 1 14 5
M  V30 16 1 15 6
M  V30 17 1 16 6
M  V30 18 1 17 7
M  V30 19 1 18 9
M  V30 20 1 19 10
M  V30 21 1 20 11
M  V30 END BOND
M  V30 END CTAB
M  END
>  <i_epik_Tot_Q>  (1) 
0

>  <i_epik_Tot_abs_Q>  (1) 
0

>  <i_i_glide_confnum>  (1) 
1

>  <i_i_glide_lignum>  (1) 
80

>  <i_i_glide_posenum>  (1) 
274

>  <i_i_glide_rotatable_bonds>  (1) 
2

>  <i_lp_mmshare_version>  (1) 
72125

>  <i_m_source_file_index>  (1) 
74

>  <i_f3d_flags>  (1) 
0

>  <num_sample>  (1) 
100

>  <b_lp_Chiralities_Consistent>  (1) 
1

>  <r_epik_Charging_Adjusted_Penalty>  (1) 
0

>  <r_epik_Ionization_Penalty>  (1) 
0.00049506315318442675

>  <r_epik_Ionization_Penalty_Charging>  (1) 
0

>  <r_epik_Ionization_Penalty_Neutral>  (1) 
0.00049506315318442675

>  <r_epik_State_Penalty>  (1) 
-0

>  <r_glide_ring_energy>  (1) 
0

>  <r_i_docking_score>  (1) 
-5.9325220504076013

>  <r_i_glide_ecoul>  (1) 
-4.6465625264026178

>  <r_i_glide_eff_state_penalty>  (1) 
-0

>  <r_i_glide_einternal>  (1) 
0.0098891646285910184

>  <r_i_glide_emodel>  (1) 
-31.238002218473838

>  <r_i_glide_emodel_strain>  (1) 
0

>  <r_i_glide_energy>  (1) 
-21.49443922965839

>  <r_i_glide_erotb>  (1) 
0

>  <r_i_glide_esite>  (1) 
-0.063929300384028429

>  <r_i_glide_evdw>  (1) 
-16.847876703255771

>  <r_i_glide_gscore>  (1) 
-5.9325220504076013

>  <r_i_glide_gscore_strain>  (1) 
0

>  <r_i_glide_hbond>  (1) 
-0.16

>  <r_i_glide_ligand_efficiency>  (1) 
-0.53932018640069102

>  <r_i_glide_ligand_efficiency_ln>  (1) 
-1.745940228911709

>  <r_i_glide_ligand_efficiency_sa>  (1) 
-1.1994373569972692

>  <r_i_glide_lipo>  (1) 
-1.5469609996243014

>  <r_i_glide_metal>  (1) 
-0

>  <r_i_glide_rewards>  (1) 
-2.6222535362760899

>  <r_lp_Energy>  (1) 
14.863064999999999

>  <r_lp_tautomer_probability>  (1) 
1

>  <s_epik_Chemistry_Notes>  (1) 
This compound has a N-S or N-O group and may undergo hydrolysis at high or low pH.

>  <s_epik_cmdline>  (1) 
J2VwaWtfcHl0aG9uJywgJy1waHQnLCAnMS4wJywgJy1waCcsICc3LjQnLCAnLXRuJywgJzgnLCAnLW1hJywgJzUwMCcsICctaW1hZScsICc8aW5maWxlLm1hZT4nLCAnLW9tYWUnLCAnPG91dGZpbGUubWFlPic=

>  <s_epik_input>  (1) 
TzFbQ0gyXVtDSDJdYyhjMTIpW2NIXWMoW05IXVtPSF0pW2NIXVtjSF0y

>  <s_glide_docking_method>  (1) 
confgen

>  <s_i_glide_gridfile>  (1) 
gpcr_drd2_6luq_protein_autoprepared_prepared

>  <s_lp_Force_Field>  (1) 
S-OPLS

>  <s_lp_Variant>  (1) 
Pocket2Mol_73-1

>  <s_m_source_file>  (1) 
generated_generic_title2_ligand_Pocket2Mol_2026-06-23_prepared.sdf

>  <GenAI_Model>  (1) 
Pocket2Mol

>  <Protein>  (1) 
generic_title2

$$$$
Pocket2Mol_47
     RDKit          3D

  0  0  0  0  0  0  0  0  0  0999 V3000
M  V30 BEGIN CTAB
M  V30 COUNTS 16 17 0 0 1
M  V30 BEGIN ATOM
M  V30 1 C 11.944217 6.869325 -2.425907 0
M  V30 2 O 11.386280 6.390222 -3.583046 0
M  V30 3 C 11.375410 7.231657 -4.672710 0
M  V30 4 C 11.775411 8.585936 -4.532183 0
M  V30 5 C 11.772786 9.436386 -5.653656 0
M  V30 6 C 10.973335 6.746629 -5.930407 0
M  V30 7 C 10.973564 7.599643 -7.048306 0
M  V30 8 O 12.175410 9.067047 -3.305534 0
M  V30 9 C 11.375313 8.941134 -6.911184 0
M  V30 10 C 12.322132 8.154740 -2.292525 0
M  V30 11 H 12.035912 6.111155 -1.661669 0
M  V30 12 H 12.079353 10.466120 -5.551419 0
M  V30 13 H 10.668042 5.718102 -6.038907 0
M  V30 14 H 10.666174 7.224006 -8.013796 0
M  V30 15 H 11.377168 9.590266 -7.771958 0
M  V30 16 H 12.763531 8.584281 -1.404791 0
M  V30 END ATOM
M  V30 BEGIN BOND
M  V30 1 1 2 1
M  V30 2 1 3 2
M  V30 3 1 4 3
M  V30 4 2 5 4
M  V30 5 2 6 3
M  V30 6 1 7 6
M  V30 7 1 8 4
M  V30 8 1 9 5
M  V30 9 2 9 7
M  V30 10 2 10 1
M  V30 11 1 10 8
M  V30 12 1 11 1
M  V30 13 1 12 5
M  V30 14 1 13 6
M  V30 15 1 14 7
M  V30 16 1 15 9
M  V30 17 1 16 10
M  V30 END BOND
M  V30 END CTAB
M  END
>  <i_epik_Tot_Q>  (1) 
0

>  <i_epik_Tot_abs_Q>  (1) 
0

>  <i_i_glide_confnum>  (1) 
1

>  <i_i_glide_lignum>  (1) 
53

>  <i_i_glide_posenum>  (1) 
21

>  <i_i_glide_rotatable_bonds>  (1) 
0

>  <i_lp_mmshare_version>  (1) 
72125

>  <i_m_source_file_index>  (1) 
48

>  <i_f3d_flags>  (1) 
0

>  <num_sample>  (1) 
100

>  <b_lp_Chiralities_Consistent>  (1) 
1

>  <r_epik_Charging_Adjusted_Penalty>  (1) 
0

>  <r_epik_Ionization_Penalty>  (1) 
0

>  <r_epik_Ionization_Penalty_Charging>  (1) 
0

>  <r_epik_Ionization_Penalty_Neutral>  (1) 
0

>  <r_epik_State_Penalty>  (1) 
-0

>  <r_glide_ring_energy>  (1) 
0

>  <r_i_docking_score>  (1) 
-5.9308862608055071

>  <r_i_glide_ecoul>  (1) 
-0.39205669609942362

>  <r_i_glide_eff_state_penalty>  (1) 
-0

>  <r_i_glide_einternal>  (1) 
0

>  <r_i_glide_emodel>  (1) 
-29.348837187346714

>  <r_i_glide_emodel_strain>  (1) 
4.8534438690239767e-09

>  <r_i_glide_energy>  (1) 
-21.633870787791455

>  <r_i_glide_erotb>  (1) 
0

>  <r_i_glide_esite>  (1) 
0

>  <r_i_glide_evdw>  (1) 
-21.241814091692031

>  <r_i_glide_gscore>  (1) 
-5.9308862608055071

>  <r_i_glide_gscore_strain>  (1) 
0

>  <r_i_glide_hbond>  (1) 
0

>  <r_i_glide_ligand_efficiency>  (1) 
-0.59308862608055068

>  <r_i_glide_ligand_efficiency_ln>  (1) 
-1.7958314755877207

>  <r_i_glide_ligand_efficiency_sa>  (1) 
-1.2777707102912872

>  <r_i_glide_lipo>  (1) 
-2.0636684794006936

>  <r_i_glide_metal>  (1) 
-0

>  <r_i_glide_rewards>  (1) 
-2.7463185724052988

>  <r_lp_Energy>  (1) 
24.726983000000001

>  <r_lp_tautomer_probability>  (1) 
1

>  <s_epik_cmdline>  (1) 
J2VwaWtfcHl0aG9uJywgJy1waHQnLCAnMS4wJywgJy1waCcsICc3LjQnLCAnLXRuJywgJzgnLCAnLW1hJywgJzUwMCcsICctaW1hZScsICc8aW5maWxlLm1hZT4nLCAnLW9tYWUnLCAnPG91dGZpbGUubWFlPic=

>  <s_epik_input>  (1) 
TzFbQ0hdPVtDSF1PYyhjMTIpW2NIXVtjSF1bY0hdW2NIXTI=

>  <s_glide_docking_method>  (1) 
confgen

>  <s_i_glide_gridfile>  (1) 
gpcr_drd2_6luq_protein_autoprepared_prepared

>  <s_lp_Force_Field>  (1) 
S-OPLS

>  <s_lp_Variant>  (1) 
Pocket2Mol_47-1

>  <s_m_source_file>  (1) 
generated_generic_title2_ligand_Pocket2Mol_2026-06-23_prepared.sdf

>  <GenAI_Model>  (1) 
Pocket2Mol

>  <Protein>  (1) 
generic_title2

$$$$
Pocket2Mol_86
     RDKit          3D

  0  0  0  0  0  0  0  0  0  0999 V3000
M  V30 BEGIN CTAB
M  V30 COUNTS 25 26 0 0 1
M  V30 BEGIN ATOM
M  V30 1 C 9.516180 6.365838 -10.705731 0
M  V30 2 O 10.311171 7.612580 -10.659135 0
M  V30 3 C 10.604333 7.707715 -9.342034 0
M  V30 4 C 10.130052 6.714671 -8.562362 0
M  V30 5 C 10.367491 6.685707 -7.178407 0
M  V30 6 C 9.355448 5.689314 -9.267823 0
M  V30 7 C 11.351755 8.765397 -8.800061 0
M  V30 8 C 11.116727 7.736550 -6.581054 0
M  V30 9 N 11.375409 7.734271 -5.183946 0
M  V30 10 C 11.607472 8.788405 -7.409131 0
M  V30 11 C 10.975368 6.567911 -4.400098 0
M  V30 12 C 11.987566 8.913327 -4.571627 0
M  V30 13 H 8.534575 6.592776 -11.123157 0
M  V30 14 H 9.995408 5.670458 -11.396519 0
M  V30 15 H 9.975648 5.876474 -6.582773 0
M  V30 16 H 9.806843 4.700104 -9.196408 0
M  V30 17 H 8.319553 5.668356 -8.926622 0
M  V30 18 H 11.724051 9.552461 -9.437809 0
M  V30 19 H 12.179901 9.595996 -6.985644 0
M  V30 20 H 11.465624 5.672087 -4.783673 0
M  V30 21 H 11.269706 6.673316 -3.356520 0
M  V30 22 H 9.897537 6.405225 -4.428762 0
M  V30 23 H 12.965139 9.153548 -4.992616 0
M  V30 24 H 11.338231 9.783103 -4.686274 0
M  V30 25 H 12.127136 8.753718 -3.502225 0
M  V30 END ATOM
M  V30 BEGIN BOND
M  V30 1 1 2 1
M  V30 2 1 3 2
M  V30 3 2 4 3
M  V30 4 1 5 4
M  V30 5 1 6 1
M  V30 6 1 6 4
M  V30 7 1 7 3
M  V30 8 2 8 5
M  V30 9 1 9 8
M  V30 10 2 10 7
M  V30 11 1 10 8
M  V30 12 1 11 9
M  V30 13 1 12 9
M  V30 14 1 13 1
M  V30 15 1 14 1
M  V30 16 1 15 5
M  V30 17 1 16 6
M  V30 18 1 17 6
M  V30 19 1 18 7
M  V30 20 1 19 10
M  V30 21 1 20 11
M  V30 22 1 21 11
M  V30 23 1 22 11
M  V30 24 1 23 12
M  V30 25 1 24 12
M  V30 26 1 25 12
M  V30 END BOND
M  V30 END CTAB
M  END
>  <i_epik_Tot_Q>  (1) 
0

>  <i_epik_Tot_abs_Q>  (1) 
0

>  <i_i_glide_confnum>  (1) 
1

>  <i_i_glide_lignum>  (1) 
93

>  <i_i_glide_posenum>  (1) 
172

>  <i_i_glide_rotatable_bonds>  (1) 
1

>  <i_lp_mmshare_version>  (1) 
72125

>  <i_m_source_file_index>  (1) 
87

>  <i_f3d_flags>  (1) 
0

>  <num_sample>  (1) 
100

>  <b_lp_Chiralities_Consistent>  (1) 
1

>  <r_epik_Charging_Adjusted_Penalty>  (1) 
0.017477600144237933

>  <r_epik_Ionization_Penalty>  (1) 
0.017477600144237951

>  <r_epik_Ionization_Penalty_Charging>  (1) 
0

>  <r_epik_Ionization_Penalty_Neutral>  (1) 
0.017477600144237951

>  <r_epik_State_Penalty>  (1) 
0.017477600144237933

>  <r_glide_ring_energy>  (1) 
0

>  <r_i_docking_score>  (1) 
-5.9289229118210134

>  <r_i_glide_ecoul>  (1) 
-1.7065450690322337

>  <r_i_glide_eff_state_penalty>  (1) 
0.017477600144237933

>  <r_i_glide_einternal>  (1) 
0.75171554718771494

>  <r_i_glide_emodel>  (1) 
-32.164871491004334

>  <r_i_glide_emodel_strain>  (1) 
0.46473113062805993

>  <r_i_glide_energy>  (1) 
-23.670722061040625

>  <r_i_glide_erotb>  (1) 
0

>  <r_i_glide_esite>  (1) 
0

>  <r_i_glide_evdw>  (1) 
-21.96417699200839

>  <r_i_glide_gscore>  (1) 
-5.9464005119652512

>  <r_i_glide_gscore_strain>  (1) 
0

>  <r_i_glide_hbond>  (1) 
0

>  <r_i_glide_ligand_efficiency>  (1) 
-0.4940769093184178

>  <r_i_glide_ligand_efficiency_ln>  (1) 
-1.701314700117345

>  <r_i_glide_ligand_efficiency_sa>  (1) 
-1.1311537500270479

>  <r_i_glide_lipo>  (1) 
-1.5010757531731969

>  <r_i_glide_metal>  (1) 
-0

>  <r_i_glide_rewards>  (1) 
-3.0911341488367992

>  <r_lp_Energy>  (1) 
28.069341999999999

>  <r_lp_tautomer_probability>  (1) 
1

>  <s_epik_cmdline>  (1) 
J2VwaWtfcHl0aG9uJywgJy1waHQnLCAnMS4wJywgJy1waCcsICc3LjQnLCAnLXRuJywgJzgnLCAnLW1hJywgJzUwMCcsICctaW1hZScsICc8aW5maWxlLm1hZT4nLCAnLW9tYWUnLCAnPG91dGZpbGUubWFlPic=

>  <s_epik_input>  (1) 
TzFbQ0gyXVtDSDJdYyhjMTIpW2NIXWMoTihbQ0gzXSlbQ0gzXSlbY0hdW2NIXTI=

>  <s_glide_docking_method>  (1) 
confgen

>  <s_i_glide_gridfile>  (1) 
gpcr_drd2_6luq_protein_autoprepared_prepared

>  <s_lp_Force_Field>  (1) 
S-OPLS

>  <s_lp_Variant>  (1) 
Pocket2Mol_86-1

>  <s_m_source_file>  (1) 
generated_generic_title2_ligand_Pocket2Mol_2026-06-23_prepared.sdf

>  <GenAI_Model>  (1) 
Pocket2Mol

>  <Protein>  (1) 
generic_title2

$$$$
Pocket2Mol_38
     RDKit          3D

  0  0  0  0  0  0  0  0  0  0999 V3000
M  V30 BEGIN CTAB
M  V30 COUNTS 15 16 0 0 1
M  V30 BEGIN ATOM
M  V30 1 C 11.258601 9.023895 -6.495240 0
M  V30 2 O 11.882864 9.684200 -5.454311 0
M  V30 3 C 11.960154 8.798474 -4.407645 0
M  V30 4 C 11.375410 7.578862 -4.785025 0
M  V30 5 C 11.375443 6.543873 -3.817363 0
M  V30 6 C 12.526998 9.031970 -3.154150 0
M  V30 7 C 10.920737 7.734282 -6.129968 0
M  V30 8 C 12.521983 8.002010 -2.204471 0
M  V30 9 C 11.945550 6.754874 -2.533460 0
M  V30 10 H 11.132492 9.590227 -7.403322 0
M  V30 11 H 10.937779 5.590227 -4.059221 0
M  V30 12 H 12.963703 9.990226 -2.920651 0
M  V30 13 H 10.423311 6.987662 -6.732085 0
M  V30 14 H 12.956343 8.161169 -1.227991 0
M  V30 15 H 11.938171 5.956395 -1.805000 0
M  V30 END ATOM
M  V30 BEGIN BOND
M  V30 1 1 2 1
M  V30 2 1 3 2
M  V30 3 1 4 3
M  V30 4 2 5 4
M  V30 5 2 6 3
M  V30 6 2 7 1
M  V30 7 1 7 4
M  V30 8 1 8 6
M  V30 9 1 9 5
M  V30 10 2 9 8
M  V30 11 1 10 1
M  V30 12 1 11 5
M  V30 13 1 12 6
M  V30 14 1 13 7
M  V30 15 1 14 8
M  V30 16 1 15 9
M  V30 END BOND
M  V30 END CTAB
M  END
>  <i_epik_Tot_Q>  (1) 
0

>  <i_epik_Tot_abs_Q>  (1) 
0

>  <i_i_glide_confnum>  (1) 
1

>  <i_i_glide_lignum>  (1) 
43

>  <i_i_glide_posenum>  (1) 
96

>  <i_i_glide_rotatable_bonds>  (1) 
0

>  <i_lp_mmshare_version>  (1) 
72125

>  <i_m_source_file_index>  (1) 
39

>  <i_f3d_flags>  (1) 
0

>  <num_sample>  (1) 
100

>  <b_lp_Chiralities_Consistent>  (1) 
1

>  <r_epik_Charging_Adjusted_Penalty>  (1) 
0

>  <r_epik_Ionization_Penalty>  (1) 
0

>  <r_epik_Ionization_Penalty_Charging>  (1) 
0

>  <r_epik_Ionization_Penalty_Neutral>  (1) 
0

>  <r_epik_State_Penalty>  (1) 
-0

>  <r_glide_ring_energy>  (1) 
0

>  <r_i_docking_score>  (1) 
-5.926253407310317

>  <r_i_glide_ecoul>  (1) 
-1.3112780280444627

>  <r_i_glide_eff_state_penalty>  (1) 
-0

>  <r_i_glide_einternal>  (1) 
0

>  <r_i_glide_emodel>  (1) 
-26.594130475596188

>  <r_i_glide_emodel_strain>  (1) 
0

>  <r_i_glide_energy>  (1) 
-18.995968195761321

>  <r_i_glide_erotb>  (1) 
0

>  <r_i_glide_esite>  (1) 
0

>  <r_i_glide_evdw>  (1) 
-17.684690167716859

>  <r_i_glide_gscore>  (1) 
-5.926253407310317

>  <r_i_glide_gscore_strain>  (1) 
0

>  <r_i_glide_hbond>  (1) 
0

>  <r_i_glide_ligand_efficiency>  (1) 
-0.65847260081225745

>  <r_i_glide_ligand_efficiency_ln>  (1) 
-1.8535618202484228

>  <r_i_glide_ligand_efficiency_sa>  (1) 
-1.3696782048724909

>  <r_i_glide_lipo>  (1) 
-2.1989738835397743

>  <r_i_glide_metal>  (1) 
-0

>  <r_i_glide_rewards>  (1) 
-2.6463533111780304

>  <r_lp_Energy>  (1) 
12.927653999999999

>  <r_lp_tautomer_probability>  (1) 
1

>  <s_epik_cmdline>  (1) 
J2VwaWtfcHl0aG9uJywgJy1waHQnLCAnMS4wJywgJy1waCcsICc3LjQnLCAnLXRuJywgJzgnLCAnLW1hJywgJzUwMCcsICctaW1hZScsICc8aW5maWxlLm1hZT4nLCAnLW9tYWUnLCAnPG91dGZpbGUubWFlPic=

>  <s_epik_input>  (1) 
bzFbY0hdW2NIXWMoYzEyKVtjSF1bY0hdW2NIXVtjSF0y

>  <s_glide_docking_method>  (1) 
confgen

>  <s_i_glide_gridfile>  (1) 
gpcr_drd2_6luq_protein_autoprepared_prepared

>  <s_lp_Force_Field>  (1) 
S-OPLS

>  <s_lp_Variant>  (1) 
Pocket2Mol_38-1

>  <s_m_source_file>  (1) 
generated_generic_title2_ligand_Pocket2Mol_2026-06-23_prepared.sdf

>  <GenAI_Model>  (1) 
Pocket2Mol

>  <Protein>  (1) 
generic_title2

$$$$
Pocket2Mol_37
     RDKit          3D

  0  0  0  0  0  0  0  0  0  0999 V3000
M  V30 BEGIN CTAB
M  V30 COUNTS 17 18 0 0 1
M  V30 BEGIN ATOM
M  V30 1 C 11.180452 9.018767 -6.470590 0
M  V30 2 O 11.691806 9.717296 -5.414672 0
M  V30 3 C 11.798804 8.801830 -4.407681 0
M  V30 4 C 11.375427 7.583783 -4.785020 0
M  V30 5 C 11.375410 6.390209 -3.909275 0
M  V30 6 C 12.341289 9.254732 -3.121719 0
M  V30 7 C 10.964514 7.715318 -6.133674 0
M  V30 8 C 12.381641 8.030933 -2.186575 0
M  V30 9 C 11.959827 6.776254 -2.529673 0
M  V30 10 H 11.034361 9.590222 -7.371495 0
M  V30 11 H 11.976483 5.603468 -4.361168 0
M  V30 12 H 10.361903 6.004707 -3.793053 0
M  V30 13 H 11.717373 10.032935 -2.682713 0
M  V30 14 H 13.350652 9.642961 -3.249452 0
M  V30 15 H 10.564283 6.948706 -6.782399 0
M  V30 16 H 12.775389 8.202487 -1.195222 0
M  V30 17 H 12.028060 5.980199 -1.802473 0
M  V30 END ATOM
M  V30 BEGIN BOND
M  V30 1 1 2 1
M  V30 2 1 3 2
M  V30 3 2 4 3
M  V30 4 1 5 4
M  V30 5 1 6 3
M  V30 6 2 7 1
M  V30 7 1 7 4
M  V30 8 1 8 6
M  V30 9 1 9 5
M  V30 10 2 9 8
M  V30 11 1 10 1
M  V30 12 1 11 5
M  V30 13 1 12 5
M  V30 14 1 13 6
M  V30 15 1 14 6
M  V30 16 1 15 7
M  V30 17 1 16 8
M  V30 18 1 17 9
M  V30 END BOND
M  V30 END CTAB
M  END
>  <i_epik_Tot_Q>  (1) 
0

>  <i_epik_Tot_abs_Q>  (1) 
0

>  <i_i_glide_confnum>  (1) 
1

>  <i_i_glide_lignum>  (1) 
42

>  <i_i_glide_posenum>  (1) 
75

>  <i_i_glide_rotatable_bonds>  (1) 
0

>  <i_lp_mmshare_version>  (1) 
72125

>  <i_m_source_file_index>  (1) 
38

>  <i_f3d_flags>  (1) 
0

>  <num_sample>  (1) 
100

>  <b_lp_Chiralities_Consistent>  (1) 
1

>  <r_epik_Charging_Adjusted_Penalty>  (1) 
0

>  <r_epik_Ionization_Penalty>  (1) 
0

>  <r_epik_Ionization_Penalty_Charging>  (1) 
0

>  <r_epik_Ionization_Penalty_Neutral>  (1) 
0

>  <r_epik_State_Penalty>  (1) 
-0

>  <r_glide_ring_energy>  (1) 
0

>  <r_i_docking_score>  (1) 
-5.9242498526978489

>  <r_i_glide_ecoul>  (1) 
-1.172589599750556

>  <r_i_glide_eff_state_penalty>  (1) 
-0

>  <r_i_glide_einternal>  (1) 
0

>  <r_i_glide_emodel>  (1) 
-28.212320268779841

>  <r_i_glide_emodel_strain>  (1) 
0

>  <r_i_glide_energy>  (1) 
-20.32779677452795

>  <r_i_glide_erotb>  (1) 
0

>  <r_i_glide_esite>  (1) 
0

>  <r_i_glide_evdw>  (1) 
-19.155207174777395

>  <r_i_glide_gscore>  (1) 
-5.9242498526978489

>  <r_i_glide_gscore_strain>  (1) 
0

>  <r_i_glide_hbond>  (1) 
0

>  <r_i_glide_ligand_efficiency>  (1) 
-0.65824998363309428

>  <r_i_glide_ligand_efficiency_ln>  (1) 
-1.852935165922458

>  <r_i_glide_ligand_efficiency_sa>  (1) 
-1.3692151424793804

>  <r_i_glide_lipo>  (1) 
-2.1440181196867565

>  <r_i_glide_metal>  (1) 
-0

>  <r_i_glide_rewards>  (1) 
-2.6465829343096394

>  <r_lp_Energy>  (1) 
4.5932930000000001

>  <r_lp_tautomer_probability>  (1) 
1

>  <s_epik_cmdline>  (1) 
J2VwaWtfcHl0aG9uJywgJy1waHQnLCAnMS4wJywgJy1waCcsICc3LjQnLCAnLXRuJywgJzgnLCAnLW1hJywgJzUwMCcsICctaW1hZScsICc8aW5maWxlLm1hZT4nLCAnLW9tYWUnLCAnPG91dGZpbGUubWFlPic=

>  <s_epik_input>  (1) 
bzFbY0hdW2NIXWMoYzEyKVtDSDJdW0NIXT1bQ0hdW0NIMl0y

>  <s_glide_docking_method>  (1) 
confgen

>  <s_i_glide_gridfile>  (1) 
gpcr_drd2_6luq_protein_autoprepared_prepared

>  <s_lp_Force_Field>  (1) 
S-OPLS

>  <s_lp_Variant>  (1) 
Pocket2Mol_37-1

>  <s_m_source_file>  (1) 
generated_generic_title2_ligand_Pocket2Mol_2026-06-23_prepared.sdf

>  <GenAI_Model>  (1) 
Pocket2Mol

>  <Protein>  (1) 
generic_title2

$$$$
Pocket2Mol_82
     RDKit          3D

  0  0  0  0  0  0  0  0  0  0999 V3000
M  V30 BEGIN CTAB
M  V30 COUNTS 22 23 0 0 1
M  V30 BEGIN ATOM
M  V30 1 C 10.924102 8.714165 -5.191443 0
M  V30 2 O 12.107604 9.124287 -5.959982 0
M  V30 3 C 11.793057 8.681082 -7.195828 0
M  V30 4 C 10.566401 8.140283 -7.336960 0
M  V30 5 C 10.115332 7.649749 -8.577046 0
M  V30 6 C 9.766949 8.103543 -6.115626 0
M  V30 7 C 10.982768 7.730367 -9.701416 0
M  V30 8 O 10.598255 7.265152 -10.944520 0
M  V30 9 C 12.270693 8.296363 -9.536714 0
M  V30 10 O 13.118843 8.390227 -10.593962 0
M  V30 11 C 12.675372 8.767038 -8.274749 0
M  V30 12 C 9.252829 6.873862 -11.167303 0
M  V30 13 H 10.575442 9.573297 -4.620860 0
M  V30 14 H 11.259765 7.966274 -4.471200 0
M  V30 15 H 9.127310 7.221733 -8.665523 0
M  V30 16 H 8.888836 8.744638 -6.198838 0
M  V30 17 H 9.491662 7.082046 -5.848370 0
M  V30 18 H 13.777322 9.058497 -10.441033 0
M  V30 19 H 13.657604 9.190245 -8.141882 0
M  V30 20 H 9.148771 6.573515 -12.210535 0
M  V30 21 H 8.962714 6.023512 -10.549353 0
M  V30 22 H 8.575974 7.708717 -10.993234 0
M  V30 END ATOM
M  V30 BEGIN BOND
M  V30 1 1 2 1
M  V30 2 1 3 2
M  V30 3 1 4 3
M  V30 4 2 5 4
M  V30 5 1 6 1
M  V30 6 1 6 4
M  V30 7 1 7 5
M  V30 8 1 8 7
M  V30 9 2 9 7
M  V30 10 1 10 9
M  V30 11 2 11 3
M  V30 12 1 11 9
M  V30 13 1 12 8
M  V30 14 1 13 1
M  V30 15 1 14 1
M  V30 16 1 15 5
M  V30 17 1 16 6
M  V30 18 1 17 6
M  V30 19 1 18 10
M  V30 20 1 19 11
M  V30 21 1 20 12
M  V30 22 1 21 12
M  V30 23 1 22 12
M  V30 END BOND
M  V30 END CTAB
M  END
>  <i_epik_Tot_Q>  (1) 
0

>  <i_epik_Tot_abs_Q>  (1) 
0

>  <i_i_glide_confnum>  (1) 
1

>  <i_i_glide_lignum>  (1) 
89

>  <i_i_glide_posenum>  (1) 
103

>  <i_i_glide_rotatable_bonds>  (1) 
2

>  <i_lp_mmshare_version>  (1) 
72125

>  <i_m_source_file_index>  (1) 
83

>  <i_f3d_flags>  (1) 
0

>  <num_sample>  (1) 
100

>  <b_lp_Chiralities_Consistent>  (1) 
1

>  <r_epik_Charging_Adjusted_Penalty>  (1) 
0

>  <r_epik_Ionization_Penalty>  (1) 
0.0019697177408658601

>  <r_epik_Ionization_Penalty_Charging>  (1) 
0

>  <r_epik_Ionization_Penalty_Neutral>  (1) 
0.0019697177408658601

>  <r_epik_State_Penalty>  (1) 
-0

>  <r_glide_ring_energy>  (1) 
0

>  <r_i_docking_score>  (1) 
-5.9194217805663838

>  <r_i_glide_ecoul>  (1) 
-5.462809918863722

>  <r_i_glide_eff_state_penalty>  (1) 
-0

>  <r_i_glide_einternal>  (1) 
0.57544629619441512

>  <r_i_glide_emodel>  (1) 
-29.839013295070032

>  <r_i_glide_emodel_strain>  (1) 
0.046603424392259285

>  <r_i_glide_energy>  (1) 
-21.865983296398674

>  <r_i_glide_erotb>  (1) 
0

>  <r_i_glide_esite>  (1) 
0

>  <r_i_glide_evdw>  (1) 
-16.403173377534952

>  <r_i_glide_gscore>  (1) 
-5.9194217805663838

>  <r_i_glide_gscore_strain>  (1) 
0

>  <r_i_glide_hbond>  (1) 
-0.31653020011399036

>  <r_i_glide_ligand_efficiency>  (1) 
-0.493285148380532

>  <r_i_glide_ligand_efficiency_ln>  (1) 
-1.6985883340451842

>  <r_i_glide_ligand_efficiency_sa>  (1) 
-1.1293410699824573

>  <r_i_glide_lipo>  (1) 
-1.229978090412754

>  <r_i_glide_metal>  (1) 
-0

>  <r_i_glide_rewards>  (1) 
-2.7333333333333334

>  <r_lp_Energy>  (1) 
16.449425999999999

>  <r_lp_tautomer_probability>  (1) 
1

>  <s_epik_cmdline>  (1) 
J2VwaWtfcHl0aG9uJywgJy1waHQnLCAnMS4wJywgJy1waCcsICc3LjQnLCAnLXRuJywgJzgnLCAnLW1hJywgJzUwMCcsICctaW1hZScsICc8aW5maWxlLm1hZT4nLCAnLW9tYWUnLCAnPG91dGZpbGUubWFlPic=

>  <s_epik_input>  (1) 
TzFbQ0gyXVtDSDJdYyhjMTIpW2NIXWMoT1tDSDNdKWMoW09IXSlbY0hdMg==

>  <s_glide_docking_method>  (1) 
confgen

>  <s_i_glide_gridfile>  (1) 
gpcr_drd2_6luq_protein_autoprepared_prepared

>  <s_lp_Force_Field>  (1) 
S-OPLS

>  <s_lp_Variant>  (1) 
Pocket2Mol_82-1

>  <s_m_source_file>  (1) 
generated_generic_title2_ligand_Pocket2Mol_2026-06-23_prepared.sdf

>  <GenAI_Model>  (1) 
Pocket2Mol

>  <Protein>  (1) 
generic_title2

$$$$
Pocket2Mol_60
     RDKit          3D

  0  0  0  0  0  0  0  0  0  0999 V3000
M  V30 BEGIN CTAB
M  V30 COUNTS 19 20 0 0 1
M  V30 BEGIN ATOM
M  V30 1 C 12.609326 7.307112 -2.773840 0
M  V30 2 O 11.676173 6.669798 -3.622486 0
M  V30 3 C 11.375410 7.341227 -4.785025 0
M  V30 4 C 12.268293 8.787527 -2.637568 0
M  V30 5 O 12.326409 9.404588 -3.916846 0
M  V30 6 C 11.702586 8.717092 -4.934603 0
M  V30 7 C 10.729659 6.658583 -5.831402 0
M  V30 8 C 10.409927 7.327714 -7.024291 0
M  V30 9 C 11.387807 9.380440 -6.136233 0
M  V30 10 O 9.775410 6.659020 -8.031530 0
M  V30 11 C 10.742217 8.683758 -7.180009 0
M  V30 12 H 12.595158 6.817623 -1.799835 0
M  V30 13 H 13.612143 7.190227 -3.185025 0
M  V30 14 H 11.291929 8.932327 -2.184685 0
M  V30 15 H 12.983851 9.257960 -1.971076 0
M  V30 16 H 10.477177 5.617899 -5.716695 0
M  V30 17 H 11.637731 10.424080 -6.257711 0
M  V30 18 H 9.166669 7.190030 -8.531561 0
M  V30 19 H 10.500416 9.190227 -8.100674 0
M  V30 END ATOM
M  V30 BEGIN BOND
M  V30 1 1 2 1
M  V30 2 1 3 2
M  V30 3 1 4 1
M  V30 4 1 5 4
M  V30 5 2 6 3
M  V30 6 1 6 5
M  V30 7 1 7 3
M  V30 8 2 8 7
M  V30 9 1 9 6
M  V30 10 1 10 8
M  V30 11 1 11 8
M  V30 12 2 11 9
M  V30 13 1 12 1
M  V30 14 1 13 1
M  V30 15 1 14 4
M  V30 16 1 15 4
M  V30 17 1 16 7
M  V30 18 1 17 9
M  V30 19 1 18 10
M  V30 20 1 19 11
M  V30 END BOND
M  V30 END CTAB
M  END
>  <i_epik_Tot_Q>  (1) 
0

>  <i_epik_Tot_abs_Q>  (1) 
0

>  <i_i_glide_confnum>  (1) 
2

>  <i_i_glide_lignum>  (1) 
67

>  <i_i_glide_posenum>  (1) 
27

>  <i_i_glide_rotatable_bonds>  (1) 
1

>  <i_lp_mmshare_version>  (1) 
72125

>  <i_m_source_file_index>  (1) 
61

>  <i_f3d_flags>  (1) 
0

>  <num_sample>  (1) 
100

>  <b_lp_Chiralities_Consistent>  (1) 
1

>  <r_epik_Charging_Adjusted_Penalty>  (1) 
0

>  <r_epik_Ionization_Penalty>  (1) 
0.0014130578134093086

>  <r_epik_Ionization_Penalty_Charging>  (1) 
0

>  <r_epik_Ionization_Penalty_Neutral>  (1) 
0.0014130578134093086

>  <r_epik_State_Penalty>  (1) 
-0

>  <r_glide_ring_energy>  (1) 
0.0030884842251178704

>  <r_i_docking_score>  (1) 
-5.9178848522496814

>  <r_i_glide_ecoul>  (1) 
-1.3357468825565435

>  <r_i_glide_eff_state_penalty>  (1) 
-0

>  <r_i_glide_einternal>  (1) 
0.66598089395305138

>  <r_i_glide_emodel>  (1) 
-31.092952278921388

>  <r_i_glide_emodel_strain>  (1) 
0.3619217865345874

>  <r_i_glide_energy>  (1) 
-22.642142122332267

>  <r_i_glide_erotb>  (1) 
0

>  <r_i_glide_esite>  (1) 
0

>  <r_i_glide_evdw>  (1) 
-21.306395239775725

>  <r_i_glide_gscore>  (1) 
-5.9178848522496814

>  <r_i_glide_gscore_strain>  (1) 
0

>  <r_i_glide_hbond>  (1) 
0

>  <r_i_glide_ligand_efficiency>  (1) 
-0.53798953202269828

>  <r_i_glide_ligand_efficiency_ln>  (1) 
-1.7416325039870779

>  <r_i_glide_ligand_efficiency_sa>  (1) 
-1.1964780081531845

>  <r_i_glide_lipo>  (1) 
-1.9666160562499797

>  <r_i_glide_metal>  (1) 
-0

>  <r_i_glide_rewards>  (1) 
-2.6855870016274341

>  <r_lp_Energy>  (1) 
13.915925999999999

>  <r_lp_tautomer_probability>  (1) 
1

>  <s_epik_cmdline>  (1) 
J2VwaWtfcHl0aG9uJywgJy1waHQnLCAnMS4wJywgJy1waCcsICc3LjQnLCAnLXRuJywgJzgnLCAnLW1hJywgJzUwMCcsICctaW1hZScsICc8aW5maWxlLm1hZT4nLCAnLW9tYWUnLCAnPG91dGZpbGUubWFlPic=

>  <s_epik_input>  (1) 
TzFbQ0gyXVtDSDJdT2MoYzEyKVtjSF1bY0hdYyhbY0hdMilbT0hd

>  <s_glide_docking_method>  (1) 
confgen

>  <s_i_glide_gridfile>  (1) 
gpcr_drd2_6luq_protein_autoprepared_prepared

>  <s_lp_Force_Field>  (1) 
S-OPLS

>  <s_lp_Variant>  (1) 
Pocket2Mol_60-1

>  <s_m_source_file>  (1) 
generated_generic_title2_ligand_Pocket2Mol_2026-06-23_prepared.sdf

>  <GenAI_Model>  (1) 
Pocket2Mol

>  <Protein>  (1) 
generic_title2

$$$$
Pocket2Mol_48
     RDKit          3D

  0  0  0  0  0  0  0  0  0  0999 V3000
M  V30 BEGIN CTAB
M  V30 COUNTS 19 20 0 0 1
M  V30 BEGIN ATOM
M  V30 1 C 10.368539 8.390227 -7.759169 0
M  V30 2 O 10.984447 9.190227 -6.785023 0
M  V30 3 C 11.375410 8.567080 -5.618115 0
M  V30 4 C 10.967228 7.243430 -5.350797 0
M  V30 5 C 11.375410 6.604262 -4.163077 0
M  V30 6 C 12.175410 9.255325 -4.687693 0
M  V30 7 C 12.575062 8.621402 -3.493234 0
M  V30 8 C 10.072861 6.524998 -6.340959 0
M  V30 9 C 12.176254 7.294467 -3.232004 0
M  V30 10 N 9.405904 7.496751 -7.185112 0
M  V30 11 H 9.865367 9.048239 -8.468135 0
M  V30 12 H 11.131255 7.833791 -8.306484 0
M  V30 13 H 11.063518 5.590228 -3.960841 0
M  V30 14 H 12.482104 10.268762 -4.889969 0
M  V30 15 H 13.188304 9.152178 -2.779081 0
M  V30 16 H 10.646139 5.812337 -6.935038 0
M  V30 17 H 9.302037 5.990227 -5.791187 0
M  V30 18 H 12.483435 6.807502 -2.318040 0
M  V30 19 H 8.782377 7.078103 -7.868116 0
M  V30 END ATOM
M  V30 BEGIN BOND
M  V30 1 1 2 1
M  V30 2 1 3 2
M  V30 3 1 4 3
M  V30 4 2 5 4
M  V30 5 2 6 3
M  V30 6 1 7 6
M  V30 7 1 8 4
M  V30 8 1 9 5
M  V30 9 2 9 7
M  V30 10 1 10 1
M  V30 11 1 10 8
M  V30 12 1 11 1
M  V30 13 1 12 1
M  V30 14 1 13 5
M  V30 15 1 14 6
M  V30 16 1 15 7
M  V30 17 1 16 8
M  V30 18 1 17 8
M  V30 19 1 18 9
M  V30 20 1 19 10
M  V30 END BOND
M  V30 END CTAB
M  END
>  <i_epik_Tot_Q>  (1) 
0

>  <i_epik_Tot_abs_Q>  (1) 
0

>  <i_i_glide_confnum>  (1) 
1

>  <i_i_glide_lignum>  (1) 
54

>  <i_i_glide_posenum>  (1) 
3

>  <i_i_glide_rotatable_bonds>  (1) 
0

>  <i_lp_mmshare_version>  (1) 
72125

>  <i_m_source_file_index>  (1) 
49

>  <i_f3d_flags>  (1) 
0

>  <num_sample>  (1) 
100

>  <b_lp_Chiralities_Consistent>  (1) 
1

>  <r_epik_Charging_Adjusted_Penalty>  (1) 
0.1493798173009977

>  <r_epik_Ionization_Penalty>  (1) 
0.14937981730099775

>  <r_epik_Ionization_Penalty_Charging>  (1) 
0

>  <r_epik_Ionization_Penalty_Neutral>  (1) 
0.14937981730099775

>  <r_epik_State_Penalty>  (1) 
0.1493798173009977

>  <r_glide_ring_energy>  (1) 
0

>  <r_i_docking_score>  (1) 
-5.9152322784927751

>  <r_i_glide_ecoul>  (1) 
-2.6142800250032971

>  <r_i_glide_eff_state_penalty>  (1) 
0.1493798173009977

>  <r_i_glide_einternal>  (1) 
0

>  <r_i_glide_emodel>  (1) 
-30.491922020362146

>  <r_i_glide_emodel_strain>  (1) 
0

>  <r_i_glide_energy>  (1) 
-21.962648522793536

>  <r_i_glide_erotb>  (1) 
0

>  <r_i_glide_esite>  (1) 
0

>  <r_i_glide_evdw>  (1) 
-19.34836849779024

>  <r_i_glide_gscore>  (1) 
-6.0646120957937732

>  <r_i_glide_gscore_strain>  (1) 
0

>  <r_i_glide_hbond>  (1) 
0

>  <r_i_glide_ligand_efficiency>  (1) 
-0.59152322784927747

>  <r_i_glide_ligand_efficiency_ln>  (1) 
-1.7910915576531488

>  <r_i_glide_ligand_efficiency_sa>  (1) 
-1.2743981620381177

>  <r_i_glide_lipo>  (1) 
-2.0561512109553846

>  <r_i_glide_metal>  (1) 
-0

>  <r_i_glide_rewards>  (1) 
-2.6489004561983815

>  <r_lp_Energy>  (1) 
22.191175999999999

>  <r_lp_tautomer_probability>  (1) 
1

>  <s_epik_Chemistry_Notes>  (1) 
This compound contains an acetal/aminal-like group ( X-CH(R)-Y where X, Y are N, S, or O) that may be acid/base labile, releasing an aldehyde.

>  <s_epik_cmdline>  (1) 
J2VwaWtfcHl0aG9uJywgJy1waHQnLCAnMS4wJywgJy1waCcsICc3LjQnLCAnLXRuJywgJzgnLCAnLW1hJywgJzUwMCcsICctaW1hZScsICc8aW5maWxlLm1hZT4nLCAnLW9tYWUnLCAnPG91dGZpbGUubWFlPic=

>  <s_epik_input>  (1) 
TzFbQ0gyXVtOSF1bQ0gyXWMoYzEyKVtjSF1bY0hdW2NIXVtjSF0y

>  <s_glide_docking_method>  (1) 
confgen

>  <s_i_glide_gridfile>  (1) 
gpcr_drd2_6luq_protein_autoprepared_prepared

>  <s_lp_Force_Field>  (1) 
S-OPLS

>  <s_lp_Variant>  (1) 
Pocket2Mol_48-1

>  <s_m_source_file>  (1) 
generated_generic_title2_ligand_Pocket2Mol_2026-06-23_prepared.sdf

>  <GenAI_Model>  (1) 
Pocket2Mol

>  <Protein>  (1) 
generic_title2

$$$$
Pocket2Mol_67
     RDKit          3D

  0  0  0  0  0  0  0  0  0  0999 V3000
M  V30 BEGIN CTAB
M  V30 COUNTS 21 22 0 0 1
M  V30 BEGIN ATOM
M  V30 1 C 12.345521 6.721208 -2.416593 0
M  V30 2 O 11.389437 6.390250 -3.409627 0
M  V30 3 C 11.375369 7.235026 -4.492818 0
M  V30 4 C 12.182916 8.197709 -2.045415 0
M  V30 5 O 12.417334 9.008782 -3.191696 0
M  V30 6 C 11.895576 8.553542 -4.384953 0
M  V30 7 C 11.890956 9.398572 -5.510440 0
M  V30 8 C 10.842149 6.790502 -5.716785 0
M  V30 9 C 10.838150 7.642099 -6.838272 0
M  V30 10 C 10.265516 7.159321 -8.156126 0
M  V30 11 C 11.369173 8.942163 -6.735824 0
M  V30 12 H 13.352705 6.529409 -2.785149 0
M  V30 13 H 12.189157 6.073521 -1.556176 0
M  V30 14 H 12.902260 8.473568 -1.273858 0
M  V30 15 H 11.192858 8.389964 -1.634839 0
M  V30 16 H 12.293131 10.393639 -5.435839 0
M  V30 17 H 10.440864 5.793688 -5.796473 0
M  V30 18 H 9.758295 6.200373 -8.043203 0
M  V30 19 H 9.537695 7.875873 -8.539945 0
M  V30 20 H 11.058297 7.041922 -8.894995 0
M  V30 21 H 11.375410 9.590300 -7.598122 0
M  V30 END ATOM
M  V30 BEGIN BOND
M  V30 1 1 2 1
M  V30 2 1 3 2
M  V30 3 1 4 1
M  V30 4 1 5 4
M  V30 5 2 6 3
M  V30 6 1 6 5
M  V30 7 1 7 6
M  V30 8 1 8 3
M  V30 9 2 9 8
M  V30 10 1 10 9
M  V30 11 2 11 7
M  V30 12 1 11 9
M  V30 13 1 12 1
M  V30 14 1 13 1
M  V30 15 1 14 4
M  V30 16 1 15 4
M  V30 17 1 16 7
M  V30 18 1 17 8
M  V30 19 1 18 10
M  V30 20 1 19 10
M  V30 21 1 20 10
M  V30 22 1 21 11
M  V30 END BOND
M  V30 END CTAB
M  END
>  <i_epik_Tot_Q>  (1) 
0

>  <i_epik_Tot_abs_Q>  (1) 
0

>  <i_i_glide_confnum>  (1) 
2

>  <i_i_glide_lignum>  (1) 
74

>  <i_i_glide_posenum>  (1) 
102

>  <i_i_glide_rotatable_bonds>  (1) 
0

>  <i_lp_mmshare_version>  (1) 
72125

>  <i_m_source_file_index>  (1) 
68

>  <i_f3d_flags>  (1) 
0

>  <num_sample>  (1) 
100

>  <b_lp_Chiralities_Consistent>  (1) 
1

>  <r_epik_Charging_Adjusted_Penalty>  (1) 
0

>  <r_epik_Ionization_Penalty>  (1) 
0

>  <r_epik_Ionization_Penalty_Charging>  (1) 
0

>  <r_epik_Ionization_Penalty_Neutral>  (1) 
0

>  <r_epik_State_Penalty>  (1) 
-0

>  <r_glide_ring_energy>  (1) 
0.0030884536109969021

>  <r_i_docking_score>  (1) 
-5.9149482982793113

>  <r_i_glide_ecoul>  (1) 
-0.069987755330287782

>  <r_i_glide_eff_state_penalty>  (1) 
-0

>  <r_i_glide_einternal>  (1) 
0

>  <r_i_glide_emodel>  (1) 
-29.19989472058694

>  <r_i_glide_emodel_strain>  (1) 
0.0027234115031387063

>  <r_i_glide_energy>  (1) 
-21.388382103605181

>  <r_i_glide_erotb>  (1) 
0

>  <r_i_glide_esite>  (1) 
0

>  <r_i_glide_evdw>  (1) 
-21.318394348274893

>  <r_i_glide_gscore>  (1) 
-5.9149482982793113

>  <r_i_glide_gscore_strain>  (1) 
0

>  <r_i_glide_hbond>  (1) 
0

>  <r_i_glide_ligand_efficiency>  (1) 
-0.53772257257084644

>  <r_i_glide_ligand_efficiency_ln>  (1) 
-1.7407682766537995

>  <r_i_glide_ligand_efficiency_sa>  (1) 
-1.1958842956472766

>  <r_i_glide_lipo>  (1) 
-2.0958985172083295

>  <r_i_glide_metal>  (1) 
-0

>  <r_i_glide_rewards>  (1) 
-2.7426319003576936

>  <r_lp_Energy>  (1) 
14.201067

>  <r_lp_tautomer_probability>  (1) 
1

>  <s_epik_cmdline>  (1) 
J2VwaWtfcHl0aG9uJywgJy1waHQnLCAnMS4wJywgJy1waCcsICc3LjQnLCAnLXRuJywgJzgnLCAnLW1hJywgJzUwMCcsICctaW1hZScsICc8aW5maWxlLm1hZT4nLCAnLW9tYWUnLCAnPG91dGZpbGUubWFlPic=

>  <s_epik_input>  (1) 
TzFbQ0gyXVtDSDJdT2MoYzEyKVtjSF1bY0hdYyhbY0hdMilbQ0gzXQ==

>  <s_glide_docking_method>  (1) 
confgen

>  <s_i_glide_gridfile>  (1) 
gpcr_drd2_6luq_protein_autoprepared_prepared

>  <s_lp_Force_Field>  (1) 
S-OPLS

>  <s_lp_Variant>  (1) 
Pocket2Mol_67-1

>  <s_m_source_file>  (1) 
generated_generic_title2_ligand_Pocket2Mol_2026-06-23_prepared.sdf

>  <GenAI_Model>  (1) 
Pocket2Mol

>  <Protein>  (1) 
generic_title2

$$$$
Pocket2Mol_41
     RDKit          3D

  0  0  0  0  0  0  0  0  0  0999 V3000
M  V30 BEGIN CTAB
M  V30 COUNTS 15 16 0 0 1
M  V30 BEGIN ATOM
M  V30 1 C 10.546399 6.968800 -6.871850 0
M  V30 2 O 10.975443 6.235906 -5.691691 0
M  V30 3 C 11.375378 7.166405 -4.785614 0
M  V30 4 C 11.375346 8.476428 -5.188398 0
M  V30 5 C 11.772083 9.505759 -4.326718 0
M  V30 6 C 11.775611 6.816614 -3.482998 0
M  V30 7 C 12.178932 7.834082 -2.588372 0
M  V30 8 S 10.874208 8.790224 -6.787974 0
M  V30 9 C 12.175742 9.185583 -3.012899 0
M  V30 10 H 11.042402 6.554968 -7.750194 0
M  V30 11 H 9.475096 6.813797 -7.007158 0
M  V30 12 H 11.764742 10.528807 -4.665626 0
M  V30 13 H 11.773177 5.783133 -3.169974 0
M  V30 14 H 12.487846 7.582072 -1.585025 0
M  V30 15 H 12.481835 9.967571 -2.334957 0
M  V30 END ATOM
M  V30 BEGIN BOND
M  V30 1 1 2 1
M  V30 2 1 3 2
M  V30 3 1 4 3
M  V30 4 2 5 4
M  V30 5 2 6 3
M  V30 6 1 7 6
M  V30 7 1 8 1
M  V30 8 1 8 4
M  V30 9 1 9 5
M  V30 10 2 9 7
M  V30 11 1 10 1
M  V30 12 1 11 1
M  V30 13 1 12 5
M  V30 14 1 13 6
M  V30 15 1 14 7
M  V30 16 1 15 9
M  V30 END BOND
M  V30 END CTAB
M  END
>  <i_epik_Tot_Q>  (1) 
0

>  <i_epik_Tot_abs_Q>  (1) 
0

>  <i_i_glide_confnum>  (1) 
1

>  <i_i_glide_lignum>  (1) 
46

>  <i_i_glide_posenum>  (1) 
173

>  <i_i_glide_rotatable_bonds>  (1) 
0

>  <i_lp_mmshare_version>  (1) 
72125

>  <i_m_source_file_index>  (1) 
42

>  <i_f3d_flags>  (1) 
0

>  <num_sample>  (1) 
100

>  <b_lp_Chiralities_Consistent>  (1) 
1

>  <r_epik_Charging_Adjusted_Penalty>  (1) 
0

>  <r_epik_Ionization_Penalty>  (1) 
0

>  <r_epik_Ionization_Penalty_Charging>  (1) 
0

>  <r_epik_Ionization_Penalty_Neutral>  (1) 
0

>  <r_epik_State_Penalty>  (1) 
-0

>  <r_glide_ring_energy>  (1) 
0

>  <r_i_docking_score>  (1) 
-5.9074892810947359

>  <r_i_glide_ecoul>  (1) 
-0.5273740786457376

>  <r_i_glide_eff_state_penalty>  (1) 
-0

>  <r_i_glide_einternal>  (1) 
0

>  <r_i_glide_emodel>  (1) 
-28.702905397672772

>  <r_i_glide_emodel_strain>  (1) 
0

>  <r_i_glide_energy>  (1) 
-20.500412729401422

>  <r_i_glide_erotb>  (1) 
0

>  <r_i_glide_esite>  (1) 
0

>  <r_i_glide_evdw>  (1) 
-19.973038650755683

>  <r_i_glide_gscore>  (1) 
-5.9074892810947359

>  <r_i_glide_gscore_strain>  (1) 
0

>  <r_i_glide_hbond>  (1) 
0

>  <r_i_glide_ligand_efficiency>  (1) 
-0.65638769789941509

>  <r_i_glide_ligand_efficiency_ln>  (1) 
-1.8476929406118179

>  <r_i_glide_ligand_efficiency_sa>  (1) 
-1.3653414320508539

>  <r_i_glide_lipo>  (1) 
-2.1484070872311647

>  <r_i_glide_metal>  (1) 
-0

>  <r_i_glide_rewards>  (1) 
-2.6813241495289275

>  <r_lp_Energy>  (1) 
5.8399909999999995

>  <r_lp_tautomer_probability>  (1) 
1

>  <s_epik_Chemistry_Notes>  (1) 
This compound contains an acetal/aminal-like group ( X-CH(R)-Y where X, Y are N, S, or O) that may be acid/base labile, releasing an aldehyde.

>  <s_epik_cmdline>  (1) 
J2VwaWtfcHl0aG9uJywgJy1waHQnLCAnMS4wJywgJy1waCcsICc3LjQnLCAnLXRuJywgJzgnLCAnLW1hJywgJzUwMCcsICctaW1hZScsICc8aW5maWxlLm1hZT4nLCAnLW9tYWUnLCAnPG91dGZpbGUubWFlPic=

>  <s_epik_input>  (1) 
TzFbQ0gyXVNjKGMxMilbY0hdW2NIXVtjSF1bY0hdMg==

>  <s_glide_docking_method>  (1) 
confgen

>  <s_i_glide_gridfile>  (1) 
gpcr_drd2_6luq_protein_autoprepared_prepared

>  <s_lp_Force_Field>  (1) 
S-OPLS

>  <s_lp_Variant>  (1) 
Pocket2Mol_41-1

>  <s_m_source_file>  (1) 
generated_generic_title2_ligand_Pocket2Mol_2026-06-23_prepared.sdf

>  <GenAI_Model>  (1) 
Pocket2Mol

>  <Protein>  (1) 
generic_title2

$$$$
Pocket2Mol_38
     RDKit          3D

  0  0  0  0  0  0  0  0  0  0999 V3000
M  V30 BEGIN CTAB
M  V30 COUNTS 15 16 0 0 1
M  V30 BEGIN ATOM
M  V30 1 C 9.775410 7.610485 -7.538091 0
M  V30 2 O 10.374265 8.790227 -7.152075 0
M  V30 3 C 11.011179 8.552718 -5.959042 0
M  V30 4 C 10.826353 7.212720 -5.594897 0
M  V30 5 C 11.425273 6.790225 -4.379107 0
M  V30 6 C 11.738621 9.473337 -5.196350 0
M  V30 7 C 10.029343 6.611214 -6.619724 0
M  V30 8 C 12.327631 9.046000 -3.994752 0
M  V30 9 C 12.175410 7.702020 -3.585025 0
M  V30 10 H 9.216349 7.642001 -8.464552 0
M  V30 11 H 11.310222 5.766588 -4.055039 0
M  V30 12 H 11.845025 10.495223 -5.528142 0
M  V30 13 H 9.693018 5.590227 -6.655698 0
M  V30 14 H 12.894973 9.737767 -3.389022 0
M  V30 15 H 12.626743 7.366483 -2.662436 0
M  V30 END ATOM
M  V30 BEGIN BOND
M  V30 1 1 2 1
M  V30 2 1 3 2
M  V30 3 1 4 3
M  V30 4 2 5 4
M  V30 5 2 6 3
M  V30 6 2 7 1
M  V30 7 1 7 4
M  V30 8 1 8 6
M  V30 9 1 9 5
M  V30 10 2 9 8
M  V30 11 1 10 1
M  V30 12 1 11 5
M  V30 13 1 12 6
M  V30 14 1 13 7
M  V30 15 1 14 8
M  V30 16 1 15 9
M  V30 END BOND
M  V30 END CTAB
M  END
>  <i_epik_Tot_Q>  (1) 
0

>  <i_epik_Tot_abs_Q>  (1) 
0

>  <i_i_glide_confnum>  (1) 
1

>  <i_i_glide_lignum>  (1) 
43

>  <i_i_glide_posenum>  (1) 
197

>  <i_i_glide_rotatable_bonds>  (1) 
0

>  <i_lp_mmshare_version>  (1) 
72125

>  <i_m_source_file_index>  (1) 
39

>  <i_f3d_flags>  (1) 
0

>  <num_sample>  (1) 
100

>  <b_lp_Chiralities_Consistent>  (1) 
1

>  <r_epik_Charging_Adjusted_Penalty>  (1) 
0

>  <r_epik_Ionization_Penalty>  (1) 
0

>  <r_epik_Ionization_Penalty_Charging>  (1) 
0

>  <r_epik_Ionization_Penalty_Neutral>  (1) 
0

>  <r_epik_State_Penalty>  (1) 
-0

>  <r_glide_ring_energy>  (1) 
0

>  <r_i_docking_score>  (1) 
-5.9072433462358003

>  <r_i_glide_ecoul>  (1) 
-1.679225761712122

>  <r_i_glide_eff_state_penalty>  (1) 
-0

>  <r_i_glide_einternal>  (1) 
0

>  <r_i_glide_emodel>  (1) 
-28.141626456268291

>  <r_i_glide_emodel_strain>  (1) 
0

>  <r_i_glide_energy>  (1) 
-20.567837337529703

>  <r_i_glide_erotb>  (1) 
0

>  <r_i_glide_esite>  (1) 
0

>  <r_i_glide_evdw>  (1) 
-18.888611575817581

>  <r_i_glide_gscore>  (1) 
-5.9072433462358003

>  <r_i_glide_gscore_strain>  (1) 
0

>  <r_i_glide_hbond>  (1) 
0

>  <r_i_glide_ligand_efficiency>  (1) 
-0.65636037180397777

>  <r_i_glide_ligand_efficiency_ln>  (1) 
-1.8476160192529996

>  <r_i_glide_ligand_efficiency_sa>  (1) 
-1.3652845914817875

>  <r_i_glide_lipo>  (1) 
-1.9503051557330549

>  <r_i_glide_metal>  (1) 
-0

>  <r_i_glide_rewards>  (1) 
-2.7606237474550479

>  <r_lp_Energy>  (1) 
12.927653999999999

>  <r_lp_tautomer_probability>  (1) 
1

>  <s_epik_cmdline>  (1) 
J2VwaWtfcHl0aG9uJywgJy1waHQnLCAnMS4wJywgJy1waCcsICc3LjQnLCAnLXRuJywgJzgnLCAnLW1hJywgJzUwMCcsICctaW1hZScsICc8aW5maWxlLm1hZT4nLCAnLW9tYWUnLCAnPG91dGZpbGUubWFlPic=

>  <s_epik_input>  (1) 
bzFbY0hdW2NIXWMoYzEyKVtjSF1bY0hdW2NIXVtjSF0y

>  <s_glide_docking_method>  (1) 
confgen

>  <s_i_glide_gridfile>  (1) 
gpcr_drd2_6luq_protein_autoprepared_prepared

>  <s_lp_Force_Field>  (1) 
S-OPLS

>  <s_lp_Variant>  (1) 
Pocket2Mol_38-1

>  <s_m_source_file>  (1) 
generated_generic_title2_ligand_Pocket2Mol_2026-06-23_prepared.sdf

>  <GenAI_Model>  (1) 
Pocket2Mol

>  <Protein>  (1) 
generic_title2

$$$$
Pocket2Mol_53
     RDKit          3D

  0  0  0  0  0  0  0  0  0  0999 V3000
M  V30 BEGIN CTAB
M  V30 COUNTS 16 17 0 0 1
M  V30 BEGIN ATOM
M  V30 1 C 12.186467 7.190188 -2.502664 0
M  V30 2 O 11.589517 6.511222 -3.522017 0
M  V30 3 C 11.375487 7.248972 -4.692345 0
M  V30 4 C 11.771391 8.645838 -4.775143 0
M  V30 5 C 11.520510 9.327509 -5.990020 0
M  V30 6 C 10.769299 6.620803 -5.788983 0
M  V30 7 C 10.539391 7.323541 -6.974549 0
M  V30 8 N 12.364440 9.282529 -3.733260 0 CHG=-1
M  V30 9 C 10.914320 8.665136 -7.078281 0
M  V30 10 C 12.529025 8.493942 -2.666780 0
M  V30 11 H 12.338042 6.594273 -1.614587 0
M  V30 12 H 11.798632 10.366937 -6.089155 0
M  V30 13 H 10.481100 5.590227 -5.717635 0
M  V30 14 H 10.071539 6.828626 -7.813156 0
M  V30 15 H 10.737982 9.190235 -7.999666 0
M  V30 16 H 13.011767 8.986021 -1.797174 0
M  V30 END ATOM
M  V30 BEGIN BOND
M  V30 1 1 2 1
M  V30 2 1 3 2
M  V30 3 1 4 3
M  V30 4 2 5 4
M  V30 5 2 6 3
M  V30 6 1 7 6
M  V30 7 1 8 4
M  V30 8 1 9 5
M  V30 9 2 9 7
M  V30 10 2 10 1
M  V30 11 1 10 8
M  V30 12 1 11 1
M  V30 13 1 12 5
M  V30 14 1 13 6
M  V30 15 1 14 7
M  V30 16 1 15 9
M  V30 17 1 16 10
M  V30 END BOND
M  V30 END CTAB
M  END
>  <i_epik_Tot_Q>  (1) 
-1

>  <i_epik_Tot_abs_Q>  (1) 
1

>  <i_i_glide_confnum>  (1) 
1

>  <i_i_glide_lignum>  (1) 
60

>  <i_i_glide_posenum>  (1) 
68

>  <i_i_glide_rotatable_bonds>  (1) 
0

>  <i_lp_mmshare_version>  (1) 
72125

>  <i_m_source_file_index>  (1) 
54

>  <i_f3d_flags>  (1) 
0

>  <num_sample>  (1) 
100

>  <b_lp_Chiralities_Consistent>  (1) 
1

>  <r_epik_Charging_Adjusted_Penalty>  (1) 
0.016215214782958735

>  <r_epik_Ionization_Penalty>  (1) 
0.016215214782958842

>  <r_epik_Ionization_Penalty_Charging>  (1) 
0

>  <r_epik_Ionization_Penalty_Neutral>  (1) 
0.016215214782958842

>  <r_epik_State_Penalty>  (1) 
0.016215214782958735

>  <r_glide_ring_energy>  (1) 
0

>  <r_i_docking_score>  (1) 
-5.9060300691533945

>  <r_i_glide_ecoul>  (1) 
-1.2761640140674448

>  <r_i_glide_eff_state_penalty>  (1) 
0.016215214782958735

>  <r_i_glide_einternal>  (1) 
0

>  <r_i_glide_emodel>  (1) 
-28.054792700059558

>  <r_i_glide_emodel_strain>  (1) 
0

>  <r_i_glide_energy>  (1) 
-19.904495562504152

>  <r_i_glide_erotb>  (1) 
0

>  <r_i_glide_esite>  (1) 
0

>  <r_i_glide_evdw>  (1) 
-18.628331548436709

>  <r_i_glide_gscore>  (1) 
-5.9222452839363529

>  <r_i_glide_gscore_strain>  (1) 
0

>  <r_i_glide_hbond>  (1) 
0

>  <r_i_glide_ligand_efficiency>  (1) 
-0.5906030069153394

>  <r_i_glide_ligand_efficiency_ln>  (1) 
-1.7883051921000246

>  <r_i_glide_ligand_efficiency_sa>  (1) 
-1.272415606135548

>  <r_i_glide_lipo>  (1) 
-2.0286639391839159

>  <r_i_glide_metal>  (1) 
-0

>  <r_i_glide_rewards>  (1) 
-2.7707401652204844

>  <r_lp_Energy>  (1) 
26.292493999999998

>  <s_epik_Chemistry_Notes>  (1) 
This compound has an imine and may undergo hydrolysis.

>  <s_epik_cmdline>  (1) 
J2VwaWtfcHl0aG9uJywgJy1waHQnLCAnMS4wJywgJy1waCcsICc3LjQnLCAnLXRuJywgJzgnLCAnLW1hJywgJzUwMCcsICctaW1hZScsICc8aW5maWxlLm1hZT4nLCAnLW9tYWUnLCAnPG91dGZpbGUubWFlPic=

>  <s_epik_input>  (1) 
TzFbQ0gyXVtDSF09TmMoYzEyKVtjSF1bY0hdW2NIXVtjSF0y

>  <s_glide_docking_method>  (1) 
confgen

>  <s_i_glide_gridfile>  (1) 
gpcr_drd2_6luq_protein_autoprepared_prepared

>  <s_lp_Force_Field>  (1) 
S-OPLS

>  <s_lp_Variant>  (1) 
Pocket2Mol_53-1

>  <s_m_source_file>  (1) 
generated_generic_title2_ligand_Pocket2Mol_2026-06-23_prepared.sdf

>  <GenAI_Model>  (1) 
Pocket2Mol

>  <Protein>  (1) 
generic_title2

$$$$
Pocket2Mol_92
     RDKit          3D

  0  0  0  0  0  0  0  0  0  0999 V3000
M  V30 BEGIN CTAB
M  V30 COUNTS 26 27 0 0 1
M  V30 BEGIN ATOM
M  V30 1 C 11.258395 7.947419 -9.188365 0
M  V30 2 O 10.452071 6.890556 -8.682522 0
M  V30 3 C 12.331515 8.378348 -8.180533 0
M  V30 4 O 11.781998 8.808135 -6.939452 0
M  V30 5 C 9.389098 7.353287 -7.855804 0
M  V30 6 C 11.285701 7.727695 -6.147130 0 CFG=1
M  V30 7 C 11.625805 7.882107 -4.666927 0
M  V30 8 C 9.782346 7.550642 -6.385033 0
M  V30 9 C 11.775409 6.740572 -3.852038 0
M  V30 10 N 11.775423 9.150707 -4.208463 0
M  V30 11 C 12.093631 9.295384 -2.898087 0
M  V30 12 C 12.269872 8.215448 -2.014408 0
M  V30 13 C 12.107071 6.912520 -2.501357 0
M  V30 14 H 10.660782 8.799181 -9.516208 0
M  V30 15 H 11.757931 7.575559 -10.083076 0
M  V30 16 H 12.901378 9.190225 -8.618638 0
M  V30 17 H 13.064211 7.590241 -8.020281 0
M  V30 18 H 8.975413 8.281017 -8.251898 0
M  V30 19 H 8.578162 6.625716 -7.909469 0
M  V30 20 H 9.447199 6.679763 -5.820816 0
M  V30 21 H 9.229512 8.400212 -5.985064 0
M  V30 22 H 11.642916 5.749719 -4.262661 0
M  V30 23 H 12.199430 10.307544 -2.541590 0
M  V30 24 H 12.522503 8.390250 -0.980075 0
M  V30 25 H 12.232677 6.059111 -1.850509 0
M  V30 26 H 11.773877 6.795731 -6.442242 0
M  V30 END ATOM
M  V30 BEGIN BOND
M  V30 1 1 2 1
M  V30 2 1 3 1
M  V30 3 1 4 3
M  V30 4 1 5 2
M  V30 5 1 6 4
M  V30 6 1 7 6
M  V30 7 1 8 5
M  V30 8 1 8 6
M  V30 9 1 9 7
M  V30 10 2 10 7
M  V30 11 1 11 10
M  V30 12 2 12 11
M  V30 13 2 13 9
M  V30 14 1 13 12
M  V30 15 1 14 1
M  V30 16 1 15 1
M  V30 17 1 16 3
M  V30 18 1 17 3
M  V30 19 1 18 5
M  V30 20 1 19 5
M  V30 21 1 20 8
M  V30 22 1 21 8
M  V30 23 1 22 9
M  V30 24 1 23 11
M  V30 25 1 24 12
M  V30 26 1 25 13
M  V30 27 1 6 26 CFG=3
M  V30 END BOND
M  V30 END CTAB
M  END
>  <i_epik_Tot_Q>  (1) 
0

>  <i_epik_Tot_abs_Q>  (1) 
0

>  <i_i_glide_confnum>  (1) 
11

>  <i_i_glide_lignum>  (1) 
100

>  <i_i_glide_posenum>  (1) 
34

>  <i_i_glide_rotatable_bonds>  (1) 
1

>  <i_lp_mmshare_version>  (1) 
72125

>  <i_m_source_file_index>  (1) 
93

>  <i_f3d_flags>  (1) 
0

>  <num_sample>  (1) 
100

>  <b_lp_Chiralities_Consistent>  (1) 
1

>  <r_epik_Charging_Adjusted_Penalty>  (1) 
0.0037896276157117258

>  <r_epik_Ionization_Penalty>  (1) 
0.0037896276174286705

>  <r_epik_Ionization_Penalty_Charging>  (1) 
0

>  <r_epik_Ionization_Penalty_Neutral>  (1) 
0.0037896276174286705

>  <r_epik_State_Penalty>  (1) 
0.0037896276157117258

>  <r_glide_ring_energy>  (1) 
0.42089539863182696

>  <r_i_docking_score>  (1) 
-5.9039573528518972

>  <r_i_glide_ecoul>  (1) 
-1.7968986868593877

>  <r_i_glide_eff_state_penalty>  (1) 
0.0037896276157117258

>  <r_i_glide_einternal>  (1) 
0.49743230814903627

>  <r_i_glide_emodel>  (1) 
-36.804754540000459

>  <r_i_glide_emodel_strain>  (1) 
0.0057882310458943209

>  <r_i_glide_energy>  (1) 
-26.774765117829688

>  <r_i_glide_erotb>  (1) 
0.4895878840251785

>  <r_i_glide_esite>  (1) 
0

>  <r_i_glide_evdw>  (1) 
-24.977866430970302

>  <r_i_glide_gscore>  (1) 
-5.9077469804676088

>  <r_i_glide_gscore_strain>  (1) 
0

>  <r_i_glide_hbond>  (1) 
0

>  <r_i_glide_ligand_efficiency>  (1) 
-0.45415056560399208

>  <r_i_glide_ligand_efficiency_ln>  (1) 
-1.6561125449074761

>  <r_i_glide_ligand_efficiency_sa>  (1) 
-1.0678599783526683

>  <r_i_glide_lipo>  (1) 
-2.0679109806552778

>  <r_i_glide_metal>  (1) 
-0

>  <r_i_glide_rewards>  (1) 
-2.8109957592600869

>  <r_lp_Energy>  (1) 
20.645538999999999

>  <s_epik_cmdline>  (1) 
J2VwaWtfcHl0aG9uJywgJy1waHQnLCAnMS4wJywgJy1waCcsICc3LjQnLCAnLXRuJywgJzgnLCAnLW1hJywgJzUwMCcsICctaW1hZScsICc8aW5maWxlLm1hZT4nLCAnLW9tYWUnLCAnPG91dGZpbGUubWFlPic=

>  <s_epik_input>  (1) 
W0NIMl0xW0NIMl1PW0NIMl1bQ0gyXU8vQzE9QzJcW0NIXT1bQ0hdW0NIXT1bQ0hdW05IXTI=

>  <s_glide_docking_method>  (1) 
confgen

>  <s_i_glide_gridfile>  (1) 
gpcr_drd2_6luq_protein_autoprepared_prepared

>  <s_lp_Force_Field>  (1) 
S-OPLS

>  <s_lp_Variant>  (1) 
Pocket2Mol_92-1

>  <s_m_source_file>  (1) 
generated_generic_title2_ligand_Pocket2Mol_2026-06-23_prepared.sdf

>  <GenAI_Model>  (1) 
Pocket2Mol

>  <Protein>  (1) 
generic_title2

$$$$
Pocket2Mol_50
     RDKit          3D

  0  0  0  0  0  0  0  0  0  0999 V3000
M  V30 BEGIN CTAB
M  V30 COUNTS 16 17 0 0 1
M  V30 BEGIN ATOM
M  V30 1 C 12.425572 8.494983 -2.171542 0
M  V30 2 O 12.176162 7.185604 -2.768879 0
M  V30 3 C 11.775410 7.571524 -3.985023 0
M  V30 4 C 11.776826 8.893326 -4.167381 0
M  V30 5 C 11.382421 9.473529 -5.383981 0
M  V30 6 C 11.375409 6.687246 -4.997707 0
M  V30 7 C 10.968836 7.220139 -6.243563 0
M  V30 8 O 10.575411 6.390229 -7.250328 0
M  V30 9 C 10.973049 8.625352 -6.438861 0
M  V30 10 O 12.175332 9.590227 -3.101827 0
M  V30 11 H 11.775409 8.619345 -1.304010 0
M  V30 12 H 13.460664 8.552101 -1.836617 0
M  V30 13 H 11.389850 10.546040 -5.510732 0
M  V30 14 H 11.378690 5.620928 -4.827852 0
M  V30 15 H 10.483410 5.489354 -6.981777 0
M  V30 16 H 10.663559 9.043453 -7.385222 0
M  V30 END ATOM
M  V30 BEGIN BOND
M  V30 1 1 2 1
M  V30 2 1 3 2
M  V30 3 2 4 3
M  V30 4 1 5 4
M  V30 5 1 6 3
M  V30 6 2 7 6
M  V30 7 1 8 7
M  V30 8 2 9 5
M  V30 9 1 9 7
M  V30 10 1 10 1
M  V30 11 1 10 4
M  V30 12 1 11 1
M  V30 13 1 12 1
M  V30 14 1 13 5
M  V30 15 1 14 6
M  V30 16 1 15 8
M  V30 17 1 16 9
M  V30 END BOND
M  V30 END CTAB
M  END
>  <i_epik_Tot_Q>  (1) 
0

>  <i_epik_Tot_abs_Q>  (1) 
0

>  <i_i_glide_confnum>  (1) 
1

>  <i_i_glide_lignum>  (1) 
57

>  <i_i_glide_posenum>  (1) 
97

>  <i_i_glide_rotatable_bonds>  (1) 
1

>  <i_lp_mmshare_version>  (1) 
72125

>  <i_m_source_file_index>  (1) 
51

>  <i_f3d_flags>  (1) 
0

>  <num_sample>  (1) 
100

>  <b_lp_Chiralities_Consistent>  (1) 
1

>  <r_epik_Charging_Adjusted_Penalty>  (1) 
0

>  <r_epik_Ionization_Penalty>  (1) 
0.0018243540331301816

>  <r_epik_Ionization_Penalty_Charging>  (1) 
0

>  <r_epik_Ionization_Penalty_Neutral>  (1) 
0.0018243540331301816

>  <r_epik_State_Penalty>  (1) 
-0

>  <r_glide_ring_energy>  (1) 
0

>  <r_i_docking_score>  (1) 
-5.8904708745675016

>  <r_i_glide_ecoul>  (1) 
-0.7053930302073379

>  <r_i_glide_eff_state_penalty>  (1) 
-0

>  <r_i_glide_einternal>  (1) 
0.073835941437686042

>  <r_i_glide_emodel>  (1) 
-31.598555171344753

>  <r_i_glide_emodel_strain>  (1) 
0

>  <r_i_glide_energy>  (1) 
-22.16071764982383

>  <r_i_glide_erotb>  (1) 
0

>  <r_i_glide_esite>  (1) 
0

>  <r_i_glide_evdw>  (1) 
-21.455324619616494

>  <r_i_glide_gscore>  (1) 
-5.8904708745675016

>  <r_i_glide_gscore_strain>  (1) 
0

>  <r_i_glide_hbond>  (1) 
0

>  <r_i_glide_ligand_efficiency>  (1) 
-0.58904708745675016

>  <r_i_glide_ligand_efficiency_ln>  (1) 
-1.7835939752357264

>  <r_i_glide_ligand_efficiency_sa>  (1) 
-1.2690634792790676

>  <r_i_glide_lipo>  (1) 
-1.6118432940755838

>  <r_i_glide_metal>  (1) 
-0

>  <r_i_glide_rewards>  (1) 
-3.1000523949799921

>  <r_lp_Energy>  (1) 
16.555202999999999

>  <r_lp_tautomer_probability>  (1) 
1

>  <s_epik_Chemistry_Notes>  (1) 
This compound contains an acetal/aminal-like group ( X-CH(R)-Y where X, Y are N, S, or O) that may be acid/base labile, releasing an aldehyde.

>  <s_epik_cmdline>  (1) 
J2VwaWtfcHl0aG9uJywgJy1waHQnLCAnMS4wJywgJy1waCcsICc3LjQnLCAnLXRuJywgJzgnLCAnLW1hJywgJzUwMCcsICctaW1hZScsICc8aW5maWxlLm1hZT4nLCAnLW9tYWUnLCAnPG91dGZpbGUubWFlPic=

>  <s_epik_input>  (1) 
TzFbQ0gyXU9jKGMxMilbY0hdW2NIXWMoW2NIXTIpW09IXQ==

>  <s_glide_docking_method>  (1) 
confgen

>  <s_i_glide_gridfile>  (1) 
gpcr_drd2_6luq_protein_autoprepared_prepared

>  <s_lp_Force_Field>  (1) 
S-OPLS

>  <s_lp_Variant>  (1) 
Pocket2Mol_50-1

>  <s_m_source_file>  (1) 
generated_generic_title2_ligand_Pocket2Mol_2026-06-23_prepared.sdf

>  <GenAI_Model>  (1) 
Pocket2Mol

>  <Protein>  (1) 
generic_title2

$$$$
Pocket2Mol_71
     RDKit          3D

  0  0  0  0  0  0  0  0  0  0999 V3000
M  V30 BEGIN CTAB
M  V30 COUNTS 16 17 0 0 1
M  V30 BEGIN ATOM
M  V30 1 C 10.174008 6.346979 -8.147987 0
M  V30 2 O 10.547482 6.030527 -6.876238 0
M  V30 3 C 11.058340 7.091069 -6.120510 0
M  V30 4 C 11.263580 8.400050 -6.719998 0
M  V30 5 C 11.776078 9.430064 -5.895575 0
M  V30 6 C 11.375380 6.874531 -4.767847 0
M  V30 7 C 11.887059 7.918284 -3.982995 0
M  V30 8 N 10.975412 8.639849 -8.026319 0 CHG=-1
M  V30 9 C 10.400769 7.593793 -8.629533 0
M  V30 10 F 12.190217 7.698581 -2.680407 0
M  V30 11 C 12.083903 9.190227 -4.542119 0
M  V30 12 H 9.703595 5.533120 -8.677902 0
M  V30 13 H 11.936328 10.414761 -6.310284 0
M  V30 14 H 11.222406 5.899443 -4.331435 0
M  V30 15 H 10.068446 7.783612 -9.672476 0
M  V30 16 H 12.475682 9.988757 -3.931270 0
M  V30 END ATOM
M  V30 BEGIN BOND
M  V30 1 1 2 1
M  V30 2 1 3 2
M  V30 3 2 4 3
M  V30 4 1 5 4
M  V30 5 1 6 3
M  V30 6 2 7 6
M  V30 7 1 8 4
M  V30 8 2 9 1
M  V30 9 1 9 8
M  V30 10 1 10 7
M  V30 11 2 11 5
M  V30 12 1 11 7
M  V30 13 1 12 1
M  V30 14 1 13 5
M  V30 15 1 14 6
M  V30 16 1 15 9
M  V30 17 1 16 11
M  V30 END BOND
M  V30 END CTAB
M  END
>  <i_epik_Tot_Q>  (1) 
-1

>  <i_epik_Tot_abs_Q>  (1) 
1

>  <i_i_glide_confnum>  (1) 
1

>  <i_i_glide_lignum>  (1) 
78

>  <i_i_glide_posenum>  (1) 
159

>  <i_i_glide_rotatable_bonds>  (1) 
0

>  <i_lp_mmshare_version>  (1) 
72125

>  <i_m_source_file_index>  (1) 
72

>  <i_f3d_flags>  (1) 
0

>  <num_sample>  (1) 
100

>  <b_lp_Chiralities_Consistent>  (1) 
1

>  <r_epik_Charging_Adjusted_Penalty>  (1) 
0.017639978051431922

>  <r_epik_Ionization_Penalty>  (1) 
0.017639978051431908

>  <r_epik_Ionization_Penalty_Charging>  (1) 
0

>  <r_epik_Ionization_Penalty_Neutral>  (1) 
0.017639978051431908

>  <r_epik_State_Penalty>  (1) 
0.017639978051431922

>  <r_glide_ring_energy>  (1) 
0

>  <r_i_docking_score>  (1) 
-5.8875856694132329

>  <r_i_glide_ecoul>  (1) 
0.13681138478952798

>  <r_i_glide_eff_state_penalty>  (1) 
0.017639978051431922

>  <r_i_glide_einternal>  (1) 
0

>  <r_i_glide_emodel>  (1) 
-26.327653824009488

>  <r_i_glide_emodel_strain>  (1) 
0

>  <r_i_glide_energy>  (1) 
-18.219737439535606

>  <r_i_glide_erotb>  (1) 
0

>  <r_i_glide_esite>  (1) 
0

>  <r_i_glide_evdw>  (1) 
-18.356548824325134

>  <r_i_glide_gscore>  (1) 
-5.9052256474646647

>  <r_i_glide_gscore_strain>  (1) 
0

>  <r_i_glide_hbond>  (1) 
0

>  <r_i_glide_ligand_efficiency>  (1) 
-0.53523506085574846

>  <r_i_glide_ligand_efficiency_ln>  (1) 
-1.7327154596393586

>  <r_i_glide_ligand_efficiency_sa>  (1) 
-1.1903521191178408

>  <r_i_glide_lipo>  (1) 
-1.6385466723602908

>  <r_i_glide_metal>  (1) 
-0

>  <r_i_glide_rewards>  (1) 
-3.3693732416065458

>  <r_lp_Energy>  (1) 
25.3598

>  <s_epik_Chemistry_Notes>  (1) 
This compound has an imine and may undergo hydrolysis.

>  <s_epik_cmdline>  (1) 
J2VwaWtfcHl0aG9uJywgJy1waHQnLCAnMS4wJywgJy1waCcsICc3LjQnLCAnLXRuJywgJzgnLCAnLW1hJywgJzUwMCcsICctaW1hZScsICc8aW5maWxlLm1hZT4nLCAnLW9tYWUnLCAnPG91dGZpbGUubWFlPic=

>  <s_epik_input>  (1) 
TzFbQ0gyXVtDSF09TmMoYzEyKVtjSF1bY0hdYyhGKVtjSF0y

>  <s_glide_docking_method>  (1) 
confgen

>  <s_i_glide_gridfile>  (1) 
gpcr_drd2_6luq_protein_autoprepared_prepared

>  <s_lp_Force_Field>  (1) 
S-OPLS

>  <s_lp_Variant>  (1) 
Pocket2Mol_71-1

>  <s_m_source_file>  (1) 
generated_generic_title2_ligand_Pocket2Mol_2026-06-23_prepared.sdf

>  <GenAI_Model>  (1) 
Pocket2Mol

>  <Protein>  (1) 
generic_title2

$$$$
Pocket2Mol_50
     RDKit          3D

  0  0  0  0  0  0  0  0  0  0999 V3000
M  V30 BEGIN CTAB
M  V30 COUNTS 16 17 0 0 1
M  V30 BEGIN ATOM
M  V30 1 C 12.445252 8.478030 -2.162188 0
M  V30 2 O 12.187485 7.180100 -2.780319 0
M  V30 3 C 11.775417 7.588774 -3.985023 0
M  V30 4 C 11.777787 8.913490 -4.143624 0
M  V30 5 C 11.375162 9.516291 -5.346192 0
M  V30 6 C 11.364714 6.723458 -5.010579 0
M  V30 7 C 10.942570 7.278962 -6.241245 0
M  V30 8 O 10.530148 6.464766 -7.255562 0
M  V30 9 C 10.949429 8.688490 -6.411736 0
M  V30 10 O 12.185252 9.590233 -3.069244 0
M  V30 11 H 11.804541 8.586634 -1.285870 0
M  V30 12 H 13.484342 8.530017 -1.838598 0
M  V30 13 H 11.384447 10.591162 -5.453371 0
M  V30 14 H 11.367111 5.653901 -4.861516 0
M  V30 15 H 10.026027 6.909043 -7.922122 0
M  V30 16 H 10.630782 9.126036 -7.346130 0
M  V30 END ATOM
M  V30 BEGIN BOND
M  V30 1 1 2 1
M  V30 2 1 3 2
M  V30 3 2 4 3
M  V30 4 1 5 4
M  V30 5 1 6 3
M  V30 6 2 7 6
M  V30 7 1 8 7
M  V30 8 2 9 5
M  V30 9 1 9 7
M  V30 10 1 10 1
M  V30 11 1 10 4
M  V30 12 1 11 1
M  V30 13 1 12 1
M  V30 14 1 13 5
M  V30 15 1 14 6
M  V30 16 1 15 8
M  V30 17 1 16 9
M  V30 END BOND
M  V30 END CTAB
M  END
>  <i_epik_Tot_Q>  (1) 
0

>  <i_epik_Tot_abs_Q>  (1) 
0

>  <i_i_glide_confnum>  (1) 
1

>  <i_i_glide_lignum>  (1) 
57

>  <i_i_glide_posenum>  (1) 
323

>  <i_i_glide_rotatable_bonds>  (1) 
1

>  <i_lp_mmshare_version>  (1) 
72125

>  <i_m_source_file_index>  (1) 
51

>  <i_f3d_flags>  (1) 
0

>  <num_sample>  (1) 
100

>  <b_lp_Chiralities_Consistent>  (1) 
1

>  <r_epik_Charging_Adjusted_Penalty>  (1) 
0

>  <r_epik_Ionization_Penalty>  (1) 
0.0018243540331301816

>  <r_epik_Ionization_Penalty_Charging>  (1) 
0

>  <r_epik_Ionization_Penalty_Neutral>  (1) 
0.0018243540331301816

>  <r_epik_State_Penalty>  (1) 
-0

>  <r_glide_ring_energy>  (1) 
0

>  <r_i_docking_score>  (1) 
-5.8871635933588529

>  <r_i_glide_ecoul>  (1) 
-0.65357395961259568

>  <r_i_glide_eff_state_penalty>  (1) 
-0

>  <r_i_glide_einternal>  (1) 
0.35068550148297534

>  <r_i_glide_emodel>  (1) 
-31.420377120242957

>  <r_i_glide_emodel_strain>  (1) 
0.0085284970196468635

>  <r_i_glide_energy>  (1) 
-22.134812600021231

>  <r_i_glide_erotb>  (1) 
0

>  <r_i_glide_esite>  (1) 
0

>  <r_i_glide_evdw>  (1) 
-21.481238640408634

>  <r_i_glide_gscore>  (1) 
-5.8871635933588529

>  <r_i_glide_gscore_strain>  (1) 
0

>  <r_i_glide_hbond>  (1) 
0

>  <r_i_glide_ligand_efficiency>  (1) 
-0.58871635933588529

>  <r_i_glide_ligand_efficiency_ln>  (1) 
-1.7825925532842786

>  <r_i_glide_ligand_efficiency_sa>  (1) 
-1.2683509471425072

>  <r_i_glide_lipo>  (1) 
-1.6067322340631982

>  <r_i_glide_metal>  (1) 
-0

>  <r_i_glide_rewards>  (1) 
-3.1083333333333334

>  <r_lp_Energy>  (1) 
16.555202999999999

>  <r_lp_tautomer_probability>  (1) 
1

>  <s_epik_Chemistry_Notes>  (1) 
This compound contains an acetal/aminal-like group ( X-CH(R)-Y where X, Y are N, S, or O) that may be acid/base labile, releasing an aldehyde.

>  <s_epik_cmdline>  (1) 
J2VwaWtfcHl0aG9uJywgJy1waHQnLCAnMS4wJywgJy1waCcsICc3LjQnLCAnLXRuJywgJzgnLCAnLW1hJywgJzUwMCcsICctaW1hZScsICc8aW5maWxlLm1hZT4nLCAnLW9tYWUnLCAnPG91dGZpbGUubWFlPic=

>  <s_epik_input>  (1) 
TzFbQ0gyXU9jKGMxMilbY0hdW2NIXWMoW2NIXTIpW09IXQ==

>  <s_glide_docking_method>  (1) 
confgen

>  <s_i_glide_gridfile>  (1) 
gpcr_drd2_6luq_protein_autoprepared_prepared

>  <s_lp_Force_Field>  (1) 
S-OPLS

>  <s_lp_Variant>  (1) 
Pocket2Mol_50-1

>  <s_m_source_file>  (1) 
generated_generic_title2_ligand_Pocket2Mol_2026-06-23_prepared.sdf

>  <GenAI_Model>  (1) 
Pocket2Mol

>  <Protein>  (1) 
generic_title2

$$$$
Pocket2Mol_68
     RDKit          3D

  0  0  0  0  0  0  0  0  0  0999 V3000
M  V30 BEGIN CTAB
M  V30 COUNTS 19 20 0 0 1
M  V30 BEGIN ATOM
M  V30 1 C 12.575410 7.180993 -2.545794 0
M  V30 2 O 11.643790 6.571440 -3.420517 0
M  V30 3 C 11.375410 7.270099 -4.575858 0
M  V30 4 C 12.241881 8.661796 -2.383548 0
M  V30 5 O 12.344355 9.296894 -3.647519 0
M  V30 6 C 11.729415 8.640699 -4.691817 0
M  V30 7 C 10.742019 6.621198 -5.646342 0
M  V30 8 C 10.465037 7.314758 -6.834246 0
M  V30 9 C 11.446545 9.333312 -5.884163 0
M  V30 10 O 11.775410 10.648085 -5.998467 0
M  V30 11 C 10.818491 8.666628 -6.956388 0
M  V30 12 H 13.578559 7.069392 -2.954597 0
M  V30 13 H 12.552956 6.666720 -1.585032 0
M  V30 14 H 12.939045 9.134292 -1.692065 0
M  V30 15 H 11.243231 8.793559 -1.975398 0
M  V30 16 H 10.469455 5.590227 -5.555645 0
M  V30 17 H 9.978021 6.807438 -7.654831 0
M  V30 18 H 11.440146 11.047758 -6.785108 0
M  V30 19 H 10.603801 9.190227 -7.872160 0
M  V30 END ATOM
M  V30 BEGIN BOND
M  V30 1 1 2 1
M  V30 2 1 3 2
M  V30 3 1 4 1
M  V30 4 1 5 4
M  V30 5 1 6 3
M  V30 6 1 6 5
M  V30 7 2 7 3
M  V30 8 1 8 7
M  V30 9 2 9 6
M  V30 10 1 10 9
M  V30 11 2 11 8
M  V30 12 1 11 9
M  V30 13 1 12 1
M  V30 14 1 13 1
M  V30 15 1 14 4
M  V30 16 1 15 4
M  V30 17 1 16 7
M  V30 18 1 17 8
M  V30 19 1 18 10
M  V30 20 1 19 11
M  V30 END BOND
M  V30 END CTAB
M  END
>  <i_epik_Tot_Q>  (1) 
0

>  <i_epik_Tot_abs_Q>  (1) 
0

>  <i_i_glide_confnum>  (1) 
2

>  <i_i_glide_lignum>  (1) 
75

>  <i_i_glide_posenum>  (1) 
390

>  <i_i_glide_rotatable_bonds>  (1) 
1

>  <i_lp_mmshare_version>  (1) 
72125

>  <i_m_source_file_index>  (1) 
69

>  <i_f3d_flags>  (1) 
0

>  <num_sample>  (1) 
100

>  <b_lp_Chiralities_Consistent>  (1) 
1

>  <r_epik_Charging_Adjusted_Penalty>  (1) 
0.0030607566555237334

>  <r_epik_Ionization_Penalty>  (1) 
0.0030607566555237659

>  <r_epik_Ionization_Penalty_Charging>  (1) 
0

>  <r_epik_Ionization_Penalty_Neutral>  (1) 
0.0030607566555237659

>  <r_epik_State_Penalty>  (1) 
0.0030607566555237334

>  <r_glide_ring_energy>  (1) 
0.0030878583902879796

>  <r_i_docking_score>  (1) 
-5.8847824391190322

>  <r_i_glide_ecoul>  (1) 
-0.38243308677624877

>  <r_i_glide_eff_state_penalty>  (1) 
0.0030607566555237334

>  <r_i_glide_einternal>  (1) 
0.0079095906292224322

>  <r_i_glide_emodel>  (1) 
-28.240741375343852

>  <r_i_glide_emodel_strain>  (1) 
0

>  <r_i_glide_energy>  (1) 
-20.574871014246131

>  <r_i_glide_erotb>  (1) 
0

>  <r_i_glide_esite>  (1) 
0

>  <r_i_glide_evdw>  (1) 
-20.192437927469882

>  <r_i_glide_gscore>  (1) 
-5.8878431957745558

>  <r_i_glide_gscore_strain>  (1) 
0

>  <r_i_glide_hbond>  (1) 
0

>  <r_i_glide_ligand_efficiency>  (1) 
-0.53498022173809379

>  <r_i_glide_ligand_efficiency_ln>  (1) 
-1.7318904694412669

>  <r_i_glide_ligand_efficiency_sa>  (1) 
-1.1897853619938785

>  <r_i_glide_lipo>  (1) 
-2.031256426904843

>  <r_i_glide_metal>  (1) 
-0

>  <r_i_glide_rewards>  (1) 
-2.7895999094797816

>  <r_lp_Energy>  (1) 
16.942557999999998

>  <r_lp_tautomer_probability>  (1) 
0.99999999996300004

>  <s_epik_cmdline>  (1) 
J2VwaWtfcHl0aG9uJywgJy1waHQnLCAnMS4wJywgJy1waCcsICc3LjQnLCAnLXRuJywgJzgnLCAnLW1hJywgJzUwMCcsICctaW1hZScsICc8aW5maWxlLm1hZT4nLCAnLW9tYWUnLCAnPG91dGZpbGUubWFlPic=

>  <s_epik_input>  (1) 
TzFbQ0gyXVtDSDJdT2MoYzEyKWMoW09IXSlbY0hdW2NIXVtjSF0y

>  <s_glide_docking_method>  (1) 
confgen

>  <s_i_glide_gridfile>  (1) 
gpcr_drd2_6luq_protein_autoprepared_prepared

>  <s_lp_Force_Field>  (1) 
S-OPLS

>  <s_lp_Variant>  (1) 
Pocket2Mol_68-1

>  <s_m_source_file>  (1) 
generated_generic_title2_ligand_Pocket2Mol_2026-06-23_prepared.sdf

>  <GenAI_Model>  (1) 
Pocket2Mol

>  <Protein>  (1) 
generic_title2

$$$$
Pocket2Mol_76
     RDKit          3D

  0  0  0  0  0  0  0  0  0  0999 V3000
M  V30 BEGIN CTAB
M  V30 COUNTS 20 21 0 0 1
M  V30 BEGIN ATOM
M  V30 1 C 9.496446 6.652753 -7.985025 0
M  V30 2 O 10.256231 6.091557 -6.928644 0
M  V30 3 C 10.823416 7.009236 -6.075154 0
M  V30 4 C 10.345881 7.721555 -8.675525 0
M  V30 5 O 10.641464 8.758798 -7.749740 0
M  V30 6 C 11.015304 8.353442 -6.486543 0
M  V30 7 C 11.216919 6.609614 -4.785025 0
M  V30 8 C 11.795100 7.537945 -3.901219 0
M  V30 9 C 11.591783 9.281748 -5.595636 0
M  V30 10 O 11.775410 10.573010 -5.985026 0
M  V30 11 O 12.175410 7.143681 -2.650370 0
M  V30 12 C 11.981290 8.874307 -4.304390 0
M  V30 13 H 9.217120 5.866805 -8.686803 0
M  V30 14 H 8.575410 7.079739 -7.587724 0
M  V30 15 H 11.271784 7.293411 -9.062052 0
M  V30 16 H 9.805010 8.147514 -9.520989 0
M  V30 17 H 11.070842 5.590227 -4.472752 0
M  V30 18 H 12.078345 11.141358 -5.295858 0
M  V30 19 H 11.962540 6.240649 -2.464140 0
M  V30 20 H 12.424900 9.585648 -3.622820 0
M  V30 END ATOM
M  V30 BEGIN BOND
M  V30 1 1 2 1
M  V30 2 1 3 2
M  V30 3 1 4 1
M  V30 4 1 5 4
M  V30 5 1 6 3
M  V30 6 1 6 5
M  V30 7 2 7 3
M  V30 8 1 8 7
M  V30 9 2 9 6
M  V30 10 1 10 9
M  V30 11 1 11 8
M  V30 12 2 12 8
M  V30 13 1 12 9
M  V30 14 1 13 1
M  V30 15 1 14 1
M  V30 16 1 15 4
M  V30 17 1 16 4
M  V30 18 1 17 7
M  V30 19 1 18 10
M  V30 20 1 19 11
M  V30 21 1 20 12
M  V30 END BOND
M  V30 END CTAB
M  END
>  <i_epik_Tot_Q>  (1) 
0

>  <i_epik_Tot_abs_Q>  (1) 
0

>  <i_i_glide_confnum>  (1) 
2

>  <i_i_glide_lignum>  (1) 
83

>  <i_i_glide_posenum>  (1) 
330

>  <i_i_glide_rotatable_bonds>  (1) 
2

>  <i_lp_mmshare_version>  (1) 
72125

>  <i_m_source_file_index>  (1) 
77

>  <i_f3d_flags>  (1) 
0

>  <num_sample>  (1) 
100

>  <b_lp_Chiralities_Consistent>  (1) 
1

>  <r_epik_Charging_Adjusted_Penalty>  (1) 
0

>  <r_epik_Ionization_Penalty>  (1) 
0.012400157081266662

>  <r_epik_Ionization_Penalty_Charging>  (1) 
0

>  <r_epik_Ionization_Penalty_Neutral>  (1) 
0.012400157081266662

>  <r_epik_State_Penalty>  (1) 
-0

>  <r_glide_ring_energy>  (1) 
0.0030882677572799519

>  <r_i_docking_score>  (1) 
-5.8816104619219018

>  <r_i_glide_ecoul>  (1) 
-1.7385167037944935

>  <r_i_glide_eff_state_penalty>  (1) 
-0

>  <r_i_glide_einternal>  (1) 
0.028931664079658373

>  <r_i_glide_emodel>  (1) 
-34.389549969994057

>  <r_i_glide_emodel_strain>  (1) 
0

>  <r_i_glide_energy>  (1) 
-23.748671533112777

>  <r_i_glide_erotb>  (1) 
0

>  <r_i_glide_esite>  (1) 
0

>  <r_i_glide_evdw>  (1) 
-22.010154829318282

>  <r_i_glide_gscore>  (1) 
-5.8816104619219018

>  <r_i_glide_gscore_strain>  (1) 
0

>  <r_i_glide_hbond>  (1) 
0

>  <r_i_glide_ligand_efficiency>  (1) 
-0.49013420516015849

>  <r_i_glide_ligand_efficiency_ln>  (1) 
-1.6877383106602588

>  <r_i_glide_ligand_efficiency_sa>  (1) 
-1.1221272108187805

>  <r_i_glide_lipo>  (1) 
-1.6766189504731515

>  <r_i_glide_metal>  (1) 
-0

>  <r_i_glide_rewards>  (1) 
-2.843706264413663

>  <r_lp_Energy>  (1) 
12.367407

>  <r_lp_tautomer_probability>  (1) 
1

>  <s_epik_cmdline>  (1) 
J2VwaWtfcHl0aG9uJywgJy1waHQnLCAnMS4wJywgJy1waCcsICc3LjQnLCAnLXRuJywgJzgnLCAnLW1hJywgJzUwMCcsICctaW1hZScsICc8aW5maWxlLm1hZT4nLCAnLW9tYWUnLCAnPG91dGZpbGUubWFlPic=

>  <s_epik_input>  (1) 
TzFbQ0gyXVtDSDJdT2MoYzEyKWMoW09IXSlbY0hdYyhbY0hdMilbT0hd

>  <s_glide_docking_method>  (1) 
confgen

>  <s_i_glide_gridfile>  (1) 
gpcr_drd2_6luq_protein_autoprepared_prepared

>  <s_lp_Force_Field>  (1) 
S-OPLS

>  <s_lp_Variant>  (1) 
Pocket2Mol_76-1

>  <s_m_source_file>  (1) 
generated_generic_title2_ligand_Pocket2Mol_2026-06-23_prepared.sdf

>  <GenAI_Model>  (1) 
Pocket2Mol

>  <Protein>  (1) 
generic_title2

$$$$
Pocket2Mol_48
     RDKit          3D

  0  0  0  0  0  0  0  0  0  0999 V3000
M  V30 BEGIN CTAB
M  V30 COUNTS 19 20 0 0 1
M  V30 BEGIN ATOM
M  V30 1 C 10.488594 8.281410 -6.815640 0
M  V30 2 O 10.789461 7.189885 -5.999531 0
M  V30 3 C 11.375409 7.479980 -4.785122 0
M  V30 4 C 11.942224 8.752210 -4.550989 0
M  V30 5 C 12.543601 9.034011 -3.309775 0
M  V30 6 C 11.410821 6.504214 -3.779224 0
M  V30 7 C 12.008790 6.788322 -2.535998 0
M  V30 8 C 11.907921 9.800966 -5.644461 0
M  V30 9 C 12.575403 8.053591 -2.302261 0
M  V30 10 N 11.597930 9.190201 -6.926779 0
M  V30 11 H 10.225422 7.898873 -7.802786 0
M  V30 12 H 9.609899 8.790201 -6.415374 0
M  V30 13 H 12.981555 9.993004 -3.130534 0
M  V30 14 H 10.975410 5.544799 -3.960242 0
M  V30 15 H 12.031695 6.033447 -1.763049 0
M  V30 16 H 11.150996 10.547565 -5.400743 0
M  V30 17 H 12.868699 10.309893 -5.714287 0
M  V30 18 H 13.035498 8.272996 -1.349975 0
M  V30 19 H 12.415927 8.748258 -7.321116 0
M  V30 END ATOM
M  V30 BEGIN BOND
M  V30 1 1 2 1
M  V30 2 1 3 2
M  V30 3 1 4 3
M  V30 4 2 5 4
M  V30 5 2 6 3
M  V30 6 1 7 6
M  V30 7 1 8 4
M  V30 8 1 9 5
M  V30 9 2 9 7
M  V30 10 1 10 1
M  V30 11 1 10 8
M  V30 12 1 11 1
M  V30 13 1 12 1
M  V30 14 1 13 5
M  V30 15 1 14 6
M  V30 16 1 15 7
M  V30 17 1 16 8
M  V30 18 1 17 8
M  V30 19 1 18 9
M  V30 20 1 19 10
M  V30 END BOND
M  V30 END CTAB
M  END
>  <i_epik_Tot_Q>  (1) 
0

>  <i_epik_Tot_abs_Q>  (1) 
0

>  <i_i_glide_confnum>  (1) 
3

>  <i_i_glide_lignum>  (1) 
54

>  <i_i_glide_posenum>  (1) 
221

>  <i_i_glide_rotatable_bonds>  (1) 
0

>  <i_lp_mmshare_version>  (1) 
72125

>  <i_m_source_file_index>  (1) 
49

>  <i_f3d_flags>  (1) 
0

>  <num_sample>  (1) 
100

>  <b_lp_Chiralities_Consistent>  (1) 
1

>  <r_epik_Charging_Adjusted_Penalty>  (1) 
0.1493798173009977

>  <r_epik_Ionization_Penalty>  (1) 
0.14937981730099775

>  <r_epik_Ionization_Penalty_Charging>  (1) 
0

>  <r_epik_Ionization_Penalty_Neutral>  (1) 
0.14937981730099775

>  <r_epik_State_Penalty>  (1) 
0.1493798173009977

>  <r_glide_ring_energy>  (1) 
2.0903531269635209

>  <r_i_docking_score>  (1) 
-5.8810312415915842

>  <r_i_glide_ecoul>  (1) 
-0.54376302626080075

>  <r_i_glide_eff_state_penalty>  (1) 
0.1493798173009977

>  <r_i_glide_einternal>  (1) 
0

>  <r_i_glide_emodel>  (1) 
-29.102779855812805

>  <r_i_glide_emodel_strain>  (1) 
0

>  <r_i_glide_energy>  (1) 
-20.621606713720027

>  <r_i_glide_erotb>  (1) 
0

>  <r_i_glide_esite>  (1) 
0

>  <r_i_glide_evdw>  (1) 
-20.077843687459225

>  <r_i_glide_gscore>  (1) 
-6.0304110588925823

>  <r_i_glide_gscore_strain>  (1) 
0

>  <r_i_glide_hbond>  (1) 
0

>  <r_i_glide_ligand_efficiency>  (1) 
-0.58810312415915844

>  <r_i_glide_ligand_efficiency_ln>  (1) 
-1.7807357194421234

>  <r_i_glide_ligand_efficiency_sa>  (1) 
-1.2670297720046191

>  <r_i_glide_lipo>  (1) 
-1.9995940076476499

>  <r_i_glide_metal>  (1) 
-0

>  <r_i_glide_rewards>  (1) 
-2.9453604129328514

>  <r_lp_Energy>  (1) 
22.191175999999999

>  <r_lp_tautomer_probability>  (1) 
1

>  <s_epik_Chemistry_Notes>  (1) 
This compound contains an acetal/aminal-like group ( X-CH(R)-Y where X, Y are N, S, or O) that may be acid/base labile, releasing an aldehyde.

>  <s_epik_cmdline>  (1) 
J2VwaWtfcHl0aG9uJywgJy1waHQnLCAnMS4wJywgJy1waCcsICc3LjQnLCAnLXRuJywgJzgnLCAnLW1hJywgJzUwMCcsICctaW1hZScsICc8aW5maWxlLm1hZT4nLCAnLW9tYWUnLCAnPG91dGZpbGUubWFlPic=

>  <s_epik_input>  (1) 
TzFbQ0gyXVtOSF1bQ0gyXWMoYzEyKVtjSF1bY0hdW2NIXVtjSF0y

>  <s_glide_docking_method>  (1) 
confgen

>  <s_i_glide_gridfile>  (1) 
gpcr_drd2_6luq_protein_autoprepared_prepared

>  <s_lp_Force_Field>  (1) 
S-OPLS

>  <s_lp_Variant>  (1) 
Pocket2Mol_48-1

>  <s_m_source_file>  (1) 
generated_generic_title2_ligand_Pocket2Mol_2026-06-23_prepared.sdf

>  <GenAI_Model>  (1) 
Pocket2Mol

>  <Protein>  (1) 
generic_title2

$$$$
Pocket2Mol_61
     RDKit          3D

  0  0  0  0  0  0  0  0  0  0999 V3000
M  V30 BEGIN CTAB
M  V30 COUNTS 18 19 0 0 1
M  V30 BEGIN ATOM
M  V30 1 C 12.044977 9.292052 -4.717951 0
M  V30 2 O 11.375372 8.090018 -4.771923 0
M  V30 3 C 11.073308 7.849684 -6.089096 0
M  V30 4 C 11.579933 8.889246 -6.878032 0
M  V30 5 C 11.374996 8.790204 -8.279731 0
M  V30 6 C 10.675691 7.685268 -8.833410 0
M  V30 7 C 12.199802 9.822322 -5.985159 0
M  V30 8 N 10.485658 7.612381 -10.220208 0
M  V30 9 C 10.176285 6.663914 -7.983208 0
M  V30 10 C 10.380460 6.755129 -6.599781 0
M  V30 11 O 9.374768 6.848643 -10.607190 0
M  V30 12 H 12.340389 9.623882 -3.732375 0
M  V30 13 H 11.752195 9.565386 -8.929406 0
M  V30 14 H 12.684128 10.746211 -6.256851 0
M  V30 15 H 10.539806 8.468842 -10.752079 0
M  V30 16 H 9.643193 5.819061 -8.395771 0
M  V30 17 H 10.007571 5.990227 -5.938938 0
M  V30 18 H 8.617355 7.220452 -10.156674 0
M  V30 END ATOM
M  V30 BEGIN BOND
M  V30 1 1 2 1
M  V30 2 1 3 2
M  V30 3 1 4 3
M  V30 4 2 5 4
M  V30 5 1 6 5
M  V30 6 2 7 1
M  V30 7 1 7 4
M  V30 8 1 8 6
M  V30 9 2 9 6
M  V30 10 2 10 3
M  V30 11 1 10 9
M  V30 12 1 11 8
M  V30 13 1 12 1
M  V30 14 1 13 5
M  V30 15 1 14 7
M  V30 16 1 15 8
M  V30 17 1 16 9
M  V30 18 1 17 10
M  V30 19 1 18 11
M  V30 END BOND
M  V30 END CTAB
M  END
>  <i_epik_Tot_Q>  (1) 
0

>  <i_epik_Tot_abs_Q>  (1) 
0

>  <i_i_glide_confnum>  (1) 
1

>  <i_i_glide_lignum>  (1) 
68

>  <i_i_glide_posenum>  (1) 
158

>  <i_i_glide_rotatable_bonds>  (1) 
2

>  <i_lp_mmshare_version>  (1) 
72125

>  <i_m_source_file_index>  (1) 
62

>  <i_f3d_flags>  (1) 
0

>  <num_sample>  (1) 
100

>  <b_lp_Chiralities_Consistent>  (1) 
1

>  <r_epik_Charging_Adjusted_Penalty>  (1) 
0

>  <r_epik_Ionization_Penalty>  (1) 
0.00016546089717554426

>  <r_epik_Ionization_Penalty_Charging>  (1) 
0

>  <r_epik_Ionization_Penalty_Neutral>  (1) 
0.00016546089717554426

>  <r_epik_State_Penalty>  (1) 
-0

>  <r_glide_ring_energy>  (1) 
0

>  <r_i_docking_score>  (1) 
-5.8805444180055124

>  <r_i_glide_ecoul>  (1) 
-2.7019981119207723

>  <r_i_glide_eff_state_penalty>  (1) 
-0

>  <r_i_glide_einternal>  (1) 
1.0331121034474462

>  <r_i_glide_emodel>  (1) 
-33.229797857844822

>  <r_i_glide_emodel_strain>  (1) 
0

>  <r_i_glide_energy>  (1) 
-24.153825450015628

>  <r_i_glide_erotb>  (1) 
0

>  <r_i_glide_esite>  (1) 
-0.026920853586675182

>  <r_i_glide_evdw>  (1) 
-21.451827338094855

>  <r_i_glide_gscore>  (1) 
-5.8805444180055124

>  <r_i_glide_gscore_strain>  (1) 
0

>  <r_i_glide_hbond>  (1) 
-0.16

>  <r_i_glide_ligand_efficiency>  (1) 
-0.5345949470914102

>  <r_i_glide_ligand_efficiency_ln>  (1) 
-1.7306432205494466

>  <r_i_glide_ligand_efficiency_sa>  (1) 
-1.188928518850253

>  <r_i_glide_lipo>  (1) 
-1.5718098903287991

>  <r_i_glide_metal>  (1) 
-0

>  <r_i_glide_rewards>  (1) 
-2.643922590397179

>  <r_lp_Energy>  (1) 
13.798807999999999

>  <r_lp_tautomer_probability>  (1) 
1

>  <s_epik_Chemistry_Notes>  (1) 
This compound has a N-S or N-O group and may undergo hydrolysis at high or low pH.

>  <s_epik_cmdline>  (1) 
J2VwaWtfcHl0aG9uJywgJy1waHQnLCAnMS4wJywgJy1waCcsICc3LjQnLCAnLXRuJywgJzgnLCAnLW1hJywgJzUwMCcsICctaW1hZScsICc8aW5maWxlLm1hZT4nLCAnLW9tYWUnLCAnPG91dGZpbGUubWFlPic=

>  <s_epik_input>  (1) 
bzFbY0hdW2NIXWMoYzEyKVtjSF1jKFtOSF1bT0hdKVtjSF1bY0hdMg==

>  <s_glide_docking_method>  (1) 
confgen

>  <s_i_glide_gridfile>  (1) 
gpcr_drd2_6luq_protein_autoprepared_prepared

>  <s_lp_Force_Field>  (1) 
S-OPLS

>  <s_lp_Variant>  (1) 
Pocket2Mol_61-1

>  <s_m_source_file>  (1) 
generated_generic_title2_ligand_Pocket2Mol_2026-06-23_prepared.sdf

>  <GenAI_Model>  (1) 
Pocket2Mol

>  <Protein>  (1) 
generic_title2

$$$$
Pocket2Mol_38
     RDKit          3D

  0  0  0  0  0  0  0  0  0  0999 V3000
M  V30 BEGIN CTAB
M  V30 COUNTS 15 16 0 0 1
M  V30 BEGIN ATOM
M  V30 1 C 10.662597 7.050279 -6.919313 0
M  V30 2 O 10.952573 6.297070 -5.802317 0
M  V30 3 C 11.375410 7.159093 -4.825956 0
M  V30 4 C 11.360819 8.468047 -5.327544 0
M  V30 5 C 11.773959 9.496730 -4.444577 0
M  V30 6 C 11.775411 6.827280 -3.527193 0
M  V30 7 C 10.899740 8.388993 -6.679929 0
M  V30 8 C 12.183022 7.852428 -2.660832 0
M  V30 9 C 12.181419 9.190226 -3.117819 0
M  V30 10 H 10.308444 6.502404 -7.781267 0
M  V30 11 H 11.775467 10.520120 -4.785022 0
M  V30 12 H 11.768085 5.799292 -3.197385 0
M  V30 13 H 10.766146 9.207518 -7.363543 0
M  V30 14 H 12.494909 7.621481 -1.652258 0
M  V30 15 H 12.493412 9.984511 -2.453522 0
M  V30 END ATOM
M  V30 BEGIN BOND
M  V30 1 1 2 1
M  V30 2 1 3 2
M  V30 3 1 4 3
M  V30 4 2 5 4
M  V30 5 2 6 3
M  V30 6 2 7 1
M  V30 7 1 7 4
M  V30 8 1 8 6
M  V30 9 1 9 5
M  V30 10 2 9 8
M  V30 11 1 10 1
M  V30 12 1 11 5
M  V30 13 1 12 6
M  V30 14 1 13 7
M  V30 15 1 14 8
M  V30 16 1 15 9
M  V30 END BOND
M  V30 END CTAB
M  END
>  <i_epik_Tot_Q>  (1) 
0

>  <i_epik_Tot_abs_Q>  (1) 
0

>  <i_i_glide_confnum>  (1) 
1

>  <i_i_glide_lignum>  (1) 
43

>  <i_i_glide_posenum>  (1) 
108

>  <i_i_glide_rotatable_bonds>  (1) 
0

>  <i_lp_mmshare_version>  (1) 
72125

>  <i_m_source_file_index>  (1) 
39

>  <i_f3d_flags>  (1) 
0

>  <num_sample>  (1) 
100

>  <b_lp_Chiralities_Consistent>  (1) 
1

>  <r_epik_Charging_Adjusted_Penalty>  (1) 
0

>  <r_epik_Ionization_Penalty>  (1) 
0

>  <r_epik_Ionization_Penalty_Charging>  (1) 
0

>  <r_epik_Ionization_Penalty_Neutral>  (1) 
0

>  <r_epik_State_Penalty>  (1) 
-0

>  <r_glide_ring_energy>  (1) 
0

>  <r_i_docking_score>  (1) 
-5.8731171587095616

>  <r_i_glide_ecoul>  (1) 
-0.47737378171711553

>  <r_i_glide_eff_state_penalty>  (1) 
-0

>  <r_i_glide_einternal>  (1) 
0

>  <r_i_glide_emodel>  (1) 
-26.490456333413846

>  <r_i_glide_emodel_strain>  (1) 
0

>  <r_i_glide_energy>  (1) 
-18.960421049179967

>  <r_i_glide_erotb>  (1) 
0

>  <r_i_glide_esite>  (1) 
0

>  <r_i_glide_evdw>  (1) 
-18.483047267462851

>  <r_i_glide_gscore>  (1) 
-5.8731171587095616

>  <r_i_glide_gscore_strain>  (1) 
0

>  <r_i_glide_hbond>  (1) 
0

>  <r_i_glide_ligand_efficiency>  (1) 
-0.65256857318995132

>  <r_i_glide_ligand_efficiency_ln>  (1) 
-1.8369423281497395

>  <r_i_glide_ligand_efficiency_sa>  (1) 
-1.3573973325244804

>  <r_i_glide_lipo>  (1) 
-2.1854146587786398

>  <r_i_glide_metal>  (1) 
-0

>  <r_i_glide_rewards>  (1) 
-2.6919440693002126

>  <r_lp_Energy>  (1) 
12.927653999999999

>  <r_lp_tautomer_probability>  (1) 
1

>  <s_epik_cmdline>  (1) 
J2VwaWtfcHl0aG9uJywgJy1waHQnLCAnMS4wJywgJy1waCcsICc3LjQnLCAnLXRuJywgJzgnLCAnLW1hJywgJzUwMCcsICctaW1hZScsICc8aW5maWxlLm1hZT4nLCAnLW9tYWUnLCAnPG91dGZpbGUubWFlPic=

>  <s_epik_input>  (1) 
bzFbY0hdW2NIXWMoYzEyKVtjSF1bY0hdW2NIXVtjSF0y

>  <s_glide_docking_method>  (1) 
confgen

>  <s_i_glide_gridfile>  (1) 
gpcr_drd2_6luq_protein_autoprepared_prepared

>  <s_lp_Force_Field>  (1) 
S-OPLS

>  <s_lp_Variant>  (1) 
Pocket2Mol_38-1

>  <s_m_source_file>  (1) 
generated_generic_title2_ligand_Pocket2Mol_2026-06-23_prepared.sdf

>  <GenAI_Model>  (1) 
Pocket2Mol

>  <Protein>  (1) 
generic_title2

$$$$
Pocket2Mol_53
     RDKit          3D

  0  0  0  0  0  0  0  0  0  0999 V3000
M  V30 BEGIN CTAB
M  V30 COUNTS 16 17 0 0 1
M  V30 BEGIN ATOM
M  V30 1 C 12.332984 8.234282 -2.245928 0
M  V30 2 O 12.192785 9.152030 -3.247558 0
M  V30 3 C 11.775380 8.627545 -4.477926 0
M  V30 4 C 11.376232 7.233100 -4.595619 0
M  V30 5 C 10.972055 6.769447 -5.866771 0
M  V30 6 C 11.762310 9.462713 -5.609155 0
M  V30 7 C 11.370496 8.956134 -6.857450 0
M  V30 8 N 11.401957 6.390228 -3.531662 0 CHG=-1
M  V30 9 C 10.971399 7.620618 -6.983541 0
M  V30 10 C 11.940841 6.948653 -2.445500 0
M  V30 11 H 12.767234 8.638738 -1.343283 0
M  V30 12 H 10.668952 5.741355 -5.985422 0
M  V30 13 H 12.063734 10.494885 -5.518231 0
M  V30 14 H 11.376319 9.593104 -7.723496 0
M  V30 15 H 10.665061 7.240321 -7.946873 0
M  V30 16 H 12.086803 6.254935 -1.594587 0
M  V30 END ATOM
M  V30 BEGIN BOND
M  V30 1 1 2 1
M  V30 2 1 3 2
M  V30 3 1 4 3
M  V30 4 2 5 4
M  V30 5 2 6 3
M  V30 6 1 7 6
M  V30 7 1 8 4
M  V30 8 1 9 5
M  V30 9 2 9 7
M  V30 10 2 10 1
M  V30 11 1 10 8
M  V30 12 1 11 1
M  V30 13 1 12 5
M  V30 14 1 13 6
M  V30 15 1 14 7
M  V30 16 1 15 9
M  V30 17 1 16 10
M  V30 END BOND
M  V30 END CTAB
M  END
>  <i_epik_Tot_Q>  (1) 
-1

>  <i_epik_Tot_abs_Q>  (1) 
1

>  <i_i_glide_confnum>  (1) 
1

>  <i_i_glide_lignum>  (1) 
60

>  <i_i_glide_posenum>  (1) 
124

>  <i_i_glide_rotatable_bonds>  (1) 
0

>  <i_lp_mmshare_version>  (1) 
72125

>  <i_m_source_file_index>  (1) 
54

>  <i_f3d_flags>  (1) 
0

>  <num_sample>  (1) 
100

>  <b_lp_Chiralities_Consistent>  (1) 
1

>  <r_epik_Charging_Adjusted_Penalty>  (1) 
0.016215214782958735

>  <r_epik_Ionization_Penalty>  (1) 
0.016215214782958842

>  <r_epik_Ionization_Penalty_Charging>  (1) 
0

>  <r_epik_Ionization_Penalty_Neutral>  (1) 
0.016215214782958842

>  <r_epik_State_Penalty>  (1) 
0.016215214782958735

>  <r_glide_ring_energy>  (1) 
0

>  <r_i_docking_score>  (1) 
-5.8678556423652068

>  <r_i_glide_ecoul>  (1) 
-0.9239260725031857

>  <r_i_glide_eff_state_penalty>  (1) 
0.016215214782958735

>  <r_i_glide_einternal>  (1) 
0

>  <r_i_glide_emodel>  (1) 
-28.411633494548472

>  <r_i_glide_emodel_strain>  (1) 
0

>  <r_i_glide_energy>  (1) 
-20.3138726682167

>  <r_i_glide_erotb>  (1) 
0

>  <r_i_glide_esite>  (1) 
0

>  <r_i_glide_evdw>  (1) 
-19.389946595713514

>  <r_i_glide_gscore>  (1) 
-5.8840708571481652

>  <r_i_glide_gscore_strain>  (1) 
0

>  <r_i_glide_hbond>  (1) 
0

>  <r_i_glide_ligand_efficiency>  (1) 
-0.58678556423652073

>  <r_i_glide_ligand_efficiency_ln>  (1) 
-1.7767462388215247

>  <r_i_glide_ligand_efficiency_sa>  (1) 
-1.2641911752010926

>  <r_i_glide_lipo>  (1) 
-2.0806046229099944

>  <r_i_glide_metal>  (1) 
-0

>  <r_i_glide_rewards>  (1) 
-2.6953799935770171

>  <r_lp_Energy>  (1) 
26.292493999999998

>  <s_epik_Chemistry_Notes>  (1) 
This compound has an imine and may undergo hydrolysis.

>  <s_epik_cmdline>  (1) 
J2VwaWtfcHl0aG9uJywgJy1waHQnLCAnMS4wJywgJy1waCcsICc3LjQnLCAnLXRuJywgJzgnLCAnLW1hJywgJzUwMCcsICctaW1hZScsICc8aW5maWxlLm1hZT4nLCAnLW9tYWUnLCAnPG91dGZpbGUubWFlPic=

>  <s_epik_input>  (1) 
TzFbQ0gyXVtDSF09TmMoYzEyKVtjSF1bY0hdW2NIXVtjSF0y

>  <s_glide_docking_method>  (1) 
confgen

>  <s_i_glide_gridfile>  (1) 
gpcr_drd2_6luq_protein_autoprepared_prepared

>  <s_lp_Force_Field>  (1) 
S-OPLS

>  <s_lp_Variant>  (1) 
Pocket2Mol_53-1

>  <s_m_source_file>  (1) 
generated_generic_title2_ligand_Pocket2Mol_2026-06-23_prepared.sdf

>  <GenAI_Model>  (1) 
Pocket2Mol

>  <Protein>  (1) 
generic_title2

$$$$
Pocket2Mol_56
     RDKit          3D

  0  0  0  0  0  0  0  0  0  0999 V3000
M  V30 BEGIN CTAB
M  V30 COUNTS 19 20 0 0 1
M  V30 BEGIN ATOM
M  V30 1 C 12.323891 8.741490 -2.482009 0
M  V30 2 O 12.412090 9.332931 -3.772266 0
M  V30 3 C 11.775410 8.671814 -4.802691 0
M  V30 4 C 11.375412 7.311867 -4.661399 0
M  V30 5 C 10.726518 6.661571 -5.725871 0
M  V30 6 C 11.529599 9.346364 -6.014619 0
M  V30 7 C 10.887386 8.678162 -7.077183 0
M  V30 8 N 11.627279 6.611276 -3.471306 0
M  V30 9 C 12.575410 7.240482 -2.574836 0
M  V30 10 C 10.483337 7.341736 -6.929648 0
M  V30 11 H 13.068194 9.190224 -1.827876 0
M  V30 12 H 11.354715 8.952126 -2.038270 0
M  V30 13 H 10.418781 5.635447 -5.620774 0
M  V30 14 H 11.835762 10.375557 -6.130945 0
M  V30 15 H 10.702612 9.190225 -8.007195 0
M  V30 16 H 11.512677 5.606508 -3.448512 0
M  V30 17 H 13.582888 7.058960 -2.945371 0
M  V30 18 H 12.503496 6.777092 -1.590831 0
M  V30 19 H 9.986573 6.835034 -7.744729 0
M  V30 END ATOM
M  V30 BEGIN BOND
M  V30 1 1 2 1
M  V30 2 1 3 2
M  V30 3 1 4 3
M  V30 4 2 5 4
M  V30 5 2 6 3
M  V30 6 1 7 6
M  V30 7 1 8 4
M  V30 8 1 9 1
M  V30 9 1 9 8
M  V30 10 1 10 5
M  V30 11 2 10 7
M  V30 12 1 11 1
M  V30 13 1 12 1
M  V30 14 1 13 5
M  V30 15 1 14 6
M  V30 16 1 15 7
M  V30 17 1 16 8
M  V30 18 1 17 9
M  V30 19 1 18 9
M  V30 20 1 19 10
M  V30 END BOND
M  V30 END CTAB
M  END
>  <i_epik_Tot_Q>  (1) 
0

>  <i_epik_Tot_abs_Q>  (1) 
0

>  <i_i_glide_confnum>  (1) 
1

>  <i_i_glide_lignum>  (1) 
63

>  <i_i_glide_posenum>  (1) 
301

>  <i_i_glide_rotatable_bonds>  (1) 
0

>  <i_lp_mmshare_version>  (1) 
72125

>  <i_m_source_file_index>  (1) 
57

>  <i_f3d_flags>  (1) 
0

>  <num_sample>  (1) 
100

>  <b_lp_Chiralities_Consistent>  (1) 
1

>  <r_epik_Charging_Adjusted_Penalty>  (1) 
0

>  <r_epik_Ionization_Penalty>  (1) 
0.00026422915675488977

>  <r_epik_Ionization_Penalty_Charging>  (1) 
0

>  <r_epik_Ionization_Penalty_Neutral>  (1) 
0.00026422915675488977

>  <r_epik_State_Penalty>  (1) 
-0

>  <r_glide_ring_energy>  (1) 
0

>  <r_i_docking_score>  (1) 
-5.8668181817276706

>  <r_i_glide_ecoul>  (1) 
-1.6966313933506763

>  <r_i_glide_eff_state_penalty>  (1) 
-0

>  <r_i_glide_einternal>  (1) 
0

>  <r_i_glide_emodel>  (1) 
-29.058641445539443

>  <r_i_glide_emodel_strain>  (1) 
0

>  <r_i_glide_energy>  (1) 
-20.927921839735806

>  <r_i_glide_erotb>  (1) 
0

>  <r_i_glide_esite>  (1) 
0

>  <r_i_glide_evdw>  (1) 
-19.231290446385131

>  <r_i_glide_gscore>  (1) 
-5.8668181817276706

>  <r_i_glide_gscore_strain>  (1) 
0

>  <r_i_glide_hbond>  (1) 
0

>  <r_i_glide_ligand_efficiency>  (1) 
-0.5866818181727671

>  <r_i_glide_ligand_efficiency_ln>  (1) 
-1.7764321028921473

>  <r_i_glide_ligand_efficiency_sa>  (1) 
-1.2639676610823876

>  <r_i_glide_lipo>  (1) 
-1.9971667503607196

>  <r_i_glide_metal>  (1) 
-0

>  <r_i_glide_rewards>  (1) 
-2.6535922000450931

>  <r_lp_Energy>  (1) 
15.245389999999999

>  <r_lp_tautomer_probability>  (1) 
1

>  <s_epik_cmdline>  (1) 
J2VwaWtfcHl0aG9uJywgJy1waHQnLCAnMS4wJywgJy1waCcsICc3LjQnLCAnLXRuJywgJzgnLCAnLW1hJywgJzUwMCcsICctaW1hZScsICc8aW5maWxlLm1hZT4nLCAnLW9tYWUnLCAnPG91dGZpbGUubWFlPic=

>  <s_epik_input>  (1) 
TzFbQ0gyXVtDSDJdW05IXWMoYzEyKVtjSF1bY0hdW2NIXVtjSF0y

>  <s_glide_docking_method>  (1) 
confgen

>  <s_i_glide_gridfile>  (1) 
gpcr_drd2_6luq_protein_autoprepared_prepared

>  <s_lp_Force_Field>  (1) 
S-OPLS

>  <s_lp_Variant>  (1) 
Pocket2Mol_56-1

>  <s_m_source_file>  (1) 
generated_generic_title2_ligand_Pocket2Mol_2026-06-23_prepared.sdf

>  <GenAI_Model>  (1) 
Pocket2Mol

>  <Protein>  (1) 
generic_title2

$$$$
Pocket2Mol_48
     RDKit          3D

  0  0  0  0  0  0  0  0  0  0999 V3000
M  V30 BEGIN CTAB
M  V30 COUNTS 19 20 0 0 1
M  V30 BEGIN ATOM
M  V30 1 C 12.253002 8.596260 -2.020209 0
M  V30 2 O 12.476542 9.314919 -3.201276 0
M  V30 3 C 11.983430 8.755121 -4.360302 0
M  V30 4 C 11.597497 7.393483 -4.385004 0
M  V30 5 C 11.086801 6.826768 -5.569606 0
M  V30 6 C 11.873894 9.535830 -5.527355 0
M  V30 7 C 11.375261 8.962728 -6.713519 0
M  V30 8 C 11.735145 6.550229 -3.135215 0
M  V30 9 C 10.975573 7.611420 -6.733121 0
M  V30 10 N 12.575405 7.200706 -2.150803 0
M  V30 11 H 12.878063 9.041715 -1.245213 0
M  V30 12 H 11.215157 8.717919 -1.717375 0
M  V30 13 H 10.787479 5.790680 -5.588087 0
M  V30 14 H 12.175411 10.572083 -5.514602 0
M  V30 15 H 11.299073 9.560030 -7.608599 0
M  V30 16 H 10.747948 6.356244 -2.714040 0
M  V30 17 H 12.175409 5.590227 -3.392052 0
M  V30 18 H 10.588686 7.175559 -7.643029 0
M  V30 19 H 12.480689 6.712553 -1.271850 0
M  V30 END ATOM
M  V30 BEGIN BOND
M  V30 1 1 2 1
M  V30 2 1 3 2
M  V30 3 1 4 3
M  V30 4 2 5 4
M  V30 5 2 6 3
M  V30 6 1 7 6
M  V30 7 1 8 4
M  V30 8 1 9 5
M  V30 9 2 9 7
M  V30 10 1 10 1
M  V30 11 1 10 8
M  V30 12 1 11 1
M  V30 13 1 12 1
M  V30 14 1 13 5
M  V30 15 1 14 6
M  V30 16 1 15 7
M  V30 17 1 16 8
M  V30 18 1 17 8
M  V30 19 1 18 9
M  V30 20 1 19 10
M  V30 END BOND
M  V30 END CTAB
M  END
>  <i_epik_Tot_Q>  (1) 
0

>  <i_epik_Tot_abs_Q>  (1) 
0

>  <i_i_glide_confnum>  (1) 
1

>  <i_i_glide_lignum>  (1) 
54

>  <i_i_glide_posenum>  (1) 
243

>  <i_i_glide_rotatable_bonds>  (1) 
0

>  <i_lp_mmshare_version>  (1) 
72125

>  <i_m_source_file_index>  (1) 
49

>  <i_f3d_flags>  (1) 
0

>  <num_sample>  (1) 
100

>  <b_lp_Chiralities_Consistent>  (1) 
1

>  <r_epik_Charging_Adjusted_Penalty>  (1) 
0.1493798173009977

>  <r_epik_Ionization_Penalty>  (1) 
0.14937981730099775

>  <r_epik_Ionization_Penalty_Charging>  (1) 
0

>  <r_epik_Ionization_Penalty_Neutral>  (1) 
0.14937981730099775

>  <r_epik_State_Penalty>  (1) 
0.1493798173009977

>  <r_glide_ring_energy>  (1) 
0

>  <r_i_docking_score>  (1) 
-5.8634303087687112

>  <r_i_glide_ecoul>  (1) 
-1.5202016812634698

>  <r_i_glide_eff_state_penalty>  (1) 
0.1493798173009977

>  <r_i_glide_einternal>  (1) 
0

>  <r_i_glide_emodel>  (1) 
-29.273471556922502

>  <r_i_glide_emodel_strain>  (1) 
0

>  <r_i_glide_energy>  (1) 
-20.817052375592148

>  <r_i_glide_erotb>  (1) 
0

>  <r_i_glide_esite>  (1) 
0

>  <r_i_glide_evdw>  (1) 
-19.296850694328679

>  <r_i_glide_gscore>  (1) 
-6.0128101260697084

>  <r_i_glide_gscore_strain>  (1) 
0

>  <r_i_glide_hbond>  (1) 
0

>  <r_i_glide_ligand_efficiency>  (1) 
-0.58634303087687112

>  <r_i_glide_ligand_efficiency_ln>  (1) 
-1.7754062783142595

>  <r_i_glide_ligand_efficiency_sa>  (1) 
-1.2632377659795673

>  <r_i_glide_lipo>  (1) 
-1.7884181661225957

>  <r_i_glide_metal>  (1) 
-0

>  <r_i_glide_rewards>  (1) 
-3.0315191730411586

>  <r_lp_Energy>  (1) 
22.191175999999999

>  <r_lp_tautomer_probability>  (1) 
1

>  <s_epik_Chemistry_Notes>  (1) 
This compound contains an acetal/aminal-like group ( X-CH(R)-Y where X, Y are N, S, or O) that may be acid/base labile, releasing an aldehyde.

>  <s_epik_cmdline>  (1) 
J2VwaWtfcHl0aG9uJywgJy1waHQnLCAnMS4wJywgJy1waCcsICc3LjQnLCAnLXRuJywgJzgnLCAnLW1hJywgJzUwMCcsICctaW1hZScsICc8aW5maWxlLm1hZT4nLCAnLW9tYWUnLCAnPG91dGZpbGUubWFlPic=

>  <s_epik_input>  (1) 
TzFbQ0gyXVtOSF1bQ0gyXWMoYzEyKVtjSF1bY0hdW2NIXVtjSF0y

>  <s_glide_docking_method>  (1) 
confgen

>  <s_i_glide_gridfile>  (1) 
gpcr_drd2_6luq_protein_autoprepared_prepared

>  <s_lp_Force_Field>  (1) 
S-OPLS

>  <s_lp_Variant>  (1) 
Pocket2Mol_48-1

>  <s_m_source_file>  (1) 
generated_generic_title2_ligand_Pocket2Mol_2026-06-23_prepared.sdf

>  <GenAI_Model>  (1) 
Pocket2Mol

>  <Protein>  (1) 
generic_title2

$$$$
Pocket2Mol_48
     RDKit          3D

  0  0  0  0  0  0  0  0  0  0999 V3000
M  V30 BEGIN CTAB
M  V30 COUNTS 20 21 0 0 1
M  V30 BEGIN ATOM
M  V30 1 C 10.439566 8.357683 -8.159004 0
M  V30 2 O 10.975410 9.189874 -7.166042 0
M  V30 3 C 11.365102 8.641075 -5.963060 0
M  V30 4 C 10.958025 7.334788 -5.596123 0
M  V30 5 C 11.375219 6.790222 -4.363157 0
M  V30 6 C 12.167110 9.395617 -5.085323 0
M  V30 7 C 12.569257 8.853548 -3.848737 0
M  V30 8 C 10.063493 6.526686 -6.520612 0
M  V30 9 C 12.175433 7.550804 -3.489396 0
M  V30 10 N 9.375495 7.416721 -7.466812 0 CHG=1
M  V30 11 H 9.942048 8.966646 -8.914869 0
M  V30 12 H 11.227483 7.770280 -8.633078 0
M  V30 13 H 11.068931 5.792932 -4.081545 0
M  V30 14 H 12.473619 10.390215 -5.361787 0
M  V30 15 H 13.183321 9.437109 -3.177344 0
M  V30 16 H 10.664103 5.794219 -7.061315 0
M  V30 17 H 9.314120 5.990227 -5.939567 0
M  V30 18 H 12.486601 7.134496 -2.542392 0
M  V30 19 H 8.694420 7.971694 -6.966908 0
M  V30 20 H 8.864891 6.879012 -8.157534 0
M  V30 END ATOM
M  V30 BEGIN BOND
M  V30 1 1 2 1
M  V30 2 1 3 2
M  V30 3 1 4 3
M  V30 4 2 5 4
M  V30 5 2 6 3
M  V30 6 1 7 6
M  V30 7 1 8 4
M  V30 8 1 9 5
M  V30 9 2 9 7
M  V30 10 1 10 1
M  V30 11 1 10 8
M  V30 12 1 11 1
M  V30 13 1 12 1
M  V30 14 1 13 5
M  V30 15 1 14 6
M  V30 16 1 15 7
M  V30 17 1 16 8
M  V30 18 1 17 8
M  V30 19 1 18 9
M  V30 20 1 19 10
M  V30 21 1 20 10
M  V30 END BOND
M  V30 END CTAB
M  END
>  <i_epik_Tot_Q>  (1) 
1

>  <i_epik_Tot_abs_Q>  (1) 
1

>  <i_i_glide_confnum>  (1) 
1

>  <i_i_glide_lignum>  (1) 
55

>  <i_i_glide_posenum>  (1) 
246

>  <i_i_glide_rotatable_bonds>  (1) 
0

>  <i_lp_mmshare_version>  (1) 
72125

>  <i_m_source_file_index>  (1) 
49

>  <i_f3d_flags>  (1) 
0

>  <num_sample>  (1) 
100

>  <b_lp_Chiralities_Consistent>  (1) 
1

>  <r_epik_Charging_Adjusted_Penalty>  (1) 
1.7789378330503367

>  <r_epik_Ionization_Penalty>  (1) 
0.88946891652516835

>  <r_epik_Ionization_Penalty_Charging>  (1) 
0.88946891652516835

>  <r_epik_Ionization_Penalty_Neutral>  (1) 
0

>  <r_epik_State_Penalty>  (1) 
0.88946891652516835

>  <r_glide_ring_energy>  (1) 
0

>  <r_i_docking_score>  (1) 
-5.8630301934388447

>  <r_i_glide_ecoul>  (1) 
-4.4878960551557041

>  <r_i_glide_eff_state_penalty>  (1) 
0.88946891652516835

>  <r_i_glide_einternal>  (1) 
0

>  <r_i_glide_emodel>  (1) 
-37.092840541841269

>  <r_i_glide_emodel_strain>  (1) 
0

>  <r_i_glide_energy>  (1) 
-21.697119608219534

>  <r_i_glide_erotb>  (1) 
0

>  <r_i_glide_esite>  (1) 
-0.10370240502024825

>  <r_i_glide_evdw>  (1) 
-17.209223553063829

>  <r_i_glide_gscore>  (1) 
-6.7524991099640133

>  <r_i_glide_gscore_strain>  (1) 
0

>  <r_i_glide_hbond>  (1) 
0

>  <r_i_glide_ligand_efficiency>  (1) 
-0.58630301934388451

>  <r_i_glide_ligand_efficiency_ln>  (1) 
-1.7752851261505451

>  <r_i_glide_ligand_efficiency_sa>  (1) 
-1.2631515637448993

>  <r_i_glide_lipo>  (1) 
-1.9741527919550119

>  <r_i_glide_metal>  (1) 
-0

>  <r_i_glide_rewards>  (1) 
-3.1409983270622059

>  <r_lp_Energy>  (1) 
22.335957999999998

>  <r_lp_tautomer_probability>  (1) 
1

>  <s_epik_Chemistry_Notes>  (1) 
This compound contains an acetal/aminal-like group ( X-CH(R)-Y where X, Y are N, S, or O) that may be acid/base labile, releasing an aldehyde.

>  <s_epik_cmdline>  (1) 
J2VwaWtfcHl0aG9uJywgJy1waHQnLCAnMS4wJywgJy1waCcsICc3LjQnLCAnLXRuJywgJzgnLCAnLW1hJywgJzUwMCcsICctaW1hZScsICc8aW5maWxlLm1hZT4nLCAnLW9tYWUnLCAnPG91dGZpbGUubWFlPic=

>  <s_epik_input>  (1) 
TzFbQ0gyXVtOSF1bQ0gyXWMoYzEyKVtjSF1bY0hdW2NIXVtjSF0y

>  <s_glide_docking_method>  (1) 
confgen

>  <s_i_glide_gridfile>  (1) 
gpcr_drd2_6luq_protein_autoprepared_prepared

>  <s_lp_Force_Field>  (1) 
S-OPLS

>  <s_lp_Variant>  (1) 
Pocket2Mol_48-2

>  <s_m_source_file>  (1) 
generated_generic_title2_ligand_Pocket2Mol_2026-06-23_prepared.sdf

>  <GenAI_Model>  (1) 
Pocket2Mol

>  <Protein>  (1) 
generic_title2

$$$$
Pocket2Mol_57
     RDKit          3D

  0  0  0  0  0  0  0  0  0  0999 V3000
M  V30 BEGIN CTAB
M  V30 COUNTS 18 19 0 0 1
M  V30 BEGIN ATOM
M  V30 1 C 10.305341 8.282682 -7.568834 0
M  V30 2 O 10.975529 9.190228 -6.739177 0
M  V30 3 C 11.370938 8.704572 -5.515109 0
M  V30 4 C 11.375410 7.322178 -5.275908 0
M  V30 5 C 11.775410 6.817998 -4.019266 0
M  V30 6 C 11.773514 9.590237 -4.506370 0
M  V30 7 C 12.176157 9.095653 -3.248195 0
M  V30 8 C 10.952173 6.390223 -6.377681 0
M  V30 9 C 12.176023 7.707797 -3.004243 0
M  V30 10 O 10.952901 7.051830 -7.634400 0
M  V30 11 H 9.273941 8.155947 -7.229593 0
M  V30 12 H 10.273193 8.703568 -8.574006 0
M  V30 13 H 11.775322 5.753455 -3.837217 0
M  V30 14 H 11.770040 10.651196 -4.698180 0
M  V30 15 H 12.484357 9.780162 -2.471605 0
M  V30 16 H 11.647194 5.553530 -6.430324 0
M  V30 17 H 9.959352 5.993212 -6.160801 0
M  V30 18 H 12.483360 7.327582 -2.041310 0
M  V30 END ATOM
M  V30 BEGIN BOND
M  V30 1 1 2 1
M  V30 2 1 3 2
M  V30 3 1 4 3
M  V30 4 2 5 4
M  V30 5 2 6 3
M  V30 6 1 7 6
M  V30 7 1 8 4
M  V30 8 1 9 5
M  V30 9 2 9 7
M  V30 10 1 10 1
M  V30 11 1 10 8
M  V30 12 1 11 1
M  V30 13 1 12 1
M  V30 14 1 13 5
M  V30 15 1 14 6
M  V30 16 1 15 7
M  V30 17 1 16 8
M  V30 18 1 17 8
M  V30 19 1 18 9
M  V30 END BOND
M  V30 END CTAB
M  END
>  <i_epik_Tot_Q>  (1) 
0

>  <i_epik_Tot_abs_Q>  (1) 
0

>  <i_i_glide_confnum>  (1) 
2

>  <i_i_glide_lignum>  (1) 
64

>  <i_i_glide_posenum>  (1) 
80

>  <i_i_glide_rotatable_bonds>  (1) 
0

>  <i_lp_mmshare_version>  (1) 
72125

>  <i_m_source_file_index>  (1) 
58

>  <i_f3d_flags>  (1) 
0

>  <num_sample>  (1) 
100

>  <b_lp_Chiralities_Consistent>  (1) 
1

>  <r_epik_Charging_Adjusted_Penalty>  (1) 
0

>  <r_epik_Ionization_Penalty>  (1) 
5.7885637950061117e-15

>  <r_epik_Ionization_Penalty_Charging>  (1) 
0

>  <r_epik_Ionization_Penalty_Neutral>  (1) 
5.7885637950061117e-15

>  <r_epik_State_Penalty>  (1) 
-0

>  <r_glide_ring_energy>  (1) 
0.0037176616447148619

>  <r_i_docking_score>  (1) 
-5.8598400430637643

>  <r_i_glide_ecoul>  (1) 
-1.5489421615403902

>  <r_i_glide_eff_state_penalty>  (1) 
-0

>  <r_i_glide_einternal>  (1) 
0

>  <r_i_glide_emodel>  (1) 
-28.849619344524491

>  <r_i_glide_emodel_strain>  (1) 
0

>  <r_i_glide_energy>  (1) 
-21.15220671909394

>  <r_i_glide_erotb>  (1) 
0

>  <r_i_glide_esite>  (1) 
0

>  <r_i_glide_evdw>  (1) 
-19.603264557553551

>  <r_i_glide_gscore>  (1) 
-5.8598400430637643

>  <r_i_glide_gscore_strain>  (1) 
0

>  <r_i_glide_hbond>  (1) 
0

>  <r_i_glide_ligand_efficiency>  (1) 
-0.58598400430637643

>  <r_i_glide_ligand_efficiency_ln>  (1) 
-1.7743191706080679

>  <r_i_glide_ligand_efficiency_sa>  (1) 
-1.2624642666814503

>  <r_i_glide_lipo>  (1) 
-1.984303061270817

>  <r_i_glide_metal>  (1) 
-0

>  <r_i_glide_rewards>  (1) 
-2.6630324296842112

>  <r_lp_Energy>  (1) 
18.330197999999999

>  <r_lp_tautomer_probability>  (1) 
1

>  <s_epik_Chemistry_Notes>  (1) 
This compound contains an acetal/aminal-like group ( X-CH(R)-Y where X, Y are N, S, or O) that may be acid/base labile, releasing an aldehyde.

>  <s_epik_cmdline>  (1) 
J2VwaWtfcHl0aG9uJywgJy1waHQnLCAnMS4wJywgJy1waCcsICc3LjQnLCAnLXRuJywgJzgnLCAnLW1hJywgJzUwMCcsICctaW1hZScsICc8aW5maWxlLm1hZT4nLCAnLW9tYWUnLCAnPG91dGZpbGUubWFlPic=

>  <s_epik_input>  (1) 
TzFbQ0gyXU9bQ0gyXWMoYzEyKVtjSF1bY0hdW2NIXVtjSF0y

>  <s_glide_docking_method>  (1) 
confgen

>  <s_i_glide_gridfile>  (1) 
gpcr_drd2_6luq_protein_autoprepared_prepared

>  <s_lp_Force_Field>  (1) 
S-OPLS

>  <s_lp_Variant>  (1) 
Pocket2Mol_57-1

>  <s_m_source_file>  (1) 
generated_generic_title2_ligand_Pocket2Mol_2026-06-23_prepared.sdf

>  <GenAI_Model>  (1) 
Pocket2Mol

>  <Protein>  (1) 
generic_title2

$$$$
Pocket2Mol_56
     RDKit          3D

  0  0  0  0  0  0  0  0  0  0999 V3000
M  V30 BEGIN CTAB
M  V30 COUNTS 19 20 0 0 1
M  V30 BEGIN ATOM
M  V30 1 C 12.307329 6.705871 -2.391868 0
M  V30 2 O 11.377476 6.390227 -3.414764 0
M  V30 3 C 11.375410 7.238729 -4.498664 0
M  V30 4 C 11.882299 8.564723 -4.385025 0
M  V30 5 C 11.875166 9.411117 -5.511868 0
M  V30 6 C 10.862068 6.790226 -5.729545 0
M  V30 7 C 10.861842 7.640199 -6.848639 0
M  V30 8 N 12.398189 9.033146 -3.163843 0
M  V30 9 C 12.175411 8.179890 -2.007709 0
M  V30 10 C 11.371586 8.945614 -6.742017 0
M  V30 11 H 12.117488 6.054609 -1.540792 0
M  V30 12 H 13.317539 6.490733 -2.739741 0
M  V30 13 H 12.261804 10.413770 -5.435994 0
M  V30 14 H 10.472151 5.789529 -5.816288 0
M  V30 15 H 10.470914 7.288617 -7.792831 0
M  V30 16 H 12.602757 10.012548 -3.033253 0
M  V30 17 H 11.190916 8.379299 -1.585026 0
M  V30 18 H 12.905741 8.433899 -1.238893 0
M  V30 19 H 11.375411 9.590227 -7.605306 0
M  V30 END ATOM
M  V30 BEGIN BOND
M  V30 1 1 2 1
M  V30 2 1 3 2
M  V30 3 1 4 3
M  V30 4 2 5 4
M  V30 5 2 6 3
M  V30 6 1 7 6
M  V30 7 1 8 4
M  V30 8 1 9 1
M  V30 9 1 9 8
M  V30 10 1 10 5
M  V30 11 2 10 7
M  V30 12 1 11 1
M  V30 13 1 12 1
M  V30 14 1 13 5
M  V30 15 1 14 6
M  V30 16 1 15 7
M  V30 17 1 16 8
M  V30 18 1 17 9
M  V30 19 1 18 9
M  V30 20 1 19 10
M  V30 END BOND
M  V30 END CTAB
M  END
>  <i_epik_Tot_Q>  (1) 
0

>  <i_epik_Tot_abs_Q>  (1) 
0

>  <i_i_glide_confnum>  (1) 
1

>  <i_i_glide_lignum>  (1) 
63

>  <i_i_glide_posenum>  (1) 
362

>  <i_i_glide_rotatable_bonds>  (1) 
0

>  <i_lp_mmshare_version>  (1) 
72125

>  <i_m_source_file_index>  (1) 
57

>  <i_f3d_flags>  (1) 
0

>  <num_sample>  (1) 
100

>  <b_lp_Chiralities_Consistent>  (1) 
1

>  <r_epik_Charging_Adjusted_Penalty>  (1) 
0

>  <r_epik_Ionization_Penalty>  (1) 
0.00026422915675488977

>  <r_epik_Ionization_Penalty_Charging>  (1) 
0

>  <r_epik_Ionization_Penalty_Neutral>  (1) 
0.00026422915675488977

>  <r_epik_State_Penalty>  (1) 
-0

>  <r_glide_ring_energy>  (1) 
0

>  <r_i_docking_score>  (1) 
-5.8502052768162009

>  <r_i_glide_ecoul>  (1) 
0.040919603933893593

>  <r_i_glide_eff_state_penalty>  (1) 
-0

>  <r_i_glide_einternal>  (1) 
0

>  <r_i_glide_emodel>  (1) 
-29.540868494135658

>  <r_i_glide_emodel_strain>  (1) 
0

>  <r_i_glide_energy>  (1) 
-21.43317241956974

>  <r_i_glide_erotb>  (1) 
0

>  <r_i_glide_esite>  (1) 
0

>  <r_i_glide_evdw>  (1) 
-21.474092023503633

>  <r_i_glide_gscore>  (1) 
-5.8502052768162009

>  <r_i_glide_gscore_strain>  (1) 
0

>  <r_i_glide_hbond>  (1) 
0

>  <r_i_glide_ligand_efficiency>  (1) 
-0.58502052768162005

>  <r_i_glide_ligand_efficiency_ln>  (1) 
-1.7714018298049492

>  <r_i_glide_ligand_efficiency_sa>  (1) 
-1.2603885192180404

>  <r_i_glide_lipo>  (1) 
-2.0972007671748818

>  <r_i_glide_metal>  (1) 
-0

>  <r_i_glide_rewards>  (1) 
-2.6854378490562207

>  <r_lp_Energy>  (1) 
15.245389999999999

>  <r_lp_tautomer_probability>  (1) 
1

>  <s_epik_cmdline>  (1) 
J2VwaWtfcHl0aG9uJywgJy1waHQnLCAnMS4wJywgJy1waCcsICc3LjQnLCAnLXRuJywgJzgnLCAnLW1hJywgJzUwMCcsICctaW1hZScsICc8aW5maWxlLm1hZT4nLCAnLW9tYWUnLCAnPG91dGZpbGUubWFlPic=

>  <s_epik_input>  (1) 
TzFbQ0gyXVtDSDJdW05IXWMoYzEyKVtjSF1bY0hdW2NIXVtjSF0y

>  <s_glide_docking_method>  (1) 
confgen

>  <s_i_glide_gridfile>  (1) 
gpcr_drd2_6luq_protein_autoprepared_prepared

>  <s_lp_Force_Field>  (1) 
S-OPLS

>  <s_lp_Variant>  (1) 
Pocket2Mol_56-1

>  <s_m_source_file>  (1) 
generated_generic_title2_ligand_Pocket2Mol_2026-06-23_prepared.sdf

>  <GenAI_Model>  (1) 
Pocket2Mol

>  <Protein>  (1) 
generic_title2

$$$$
Pocket2Mol_68
     RDKit          3D

  0  0  0  0  0  0  0  0  0  0999 V3000
M  V30 BEGIN CTAB
M  V30 COUNTS 19 20 0 0 1
M  V30 BEGIN ATOM
M  V30 1 C 12.575409 7.231032 -2.644345 0
M  V30 2 O 11.619310 6.621095 -3.495950 0
M  V30 3 C 11.375569 7.304240 -4.665424 0
M  V30 4 C 12.216393 8.702809 -2.452245 0
M  V30 5 O 12.256322 9.362552 -3.711880 0
M  V30 6 C 11.701417 8.681958 -4.776589 0
M  V30 7 C 10.804760 6.631438 -5.758909 0
M  V30 8 C 10.565501 7.312891 -6.963715 0
M  V30 9 C 11.461102 9.357747 -5.985025 0
M  V30 10 O 11.775410 10.674493 -6.095064 0
M  V30 11 C 10.896687 8.672649 -7.079263 0
M  V30 12 H 13.567459 7.152095 -3.088556 0
M  V30 13 H 12.593365 6.705115 -1.689659 0
M  V30 14 H 12.935469 9.179431 -1.786554 0
M  V30 15 H 11.239629 8.807910 -1.985074 0
M  V30 16 H 10.554736 5.590268 -5.674755 0
M  V30 17 H 10.128330 6.790215 -7.802539 0
M  V30 18 H 12.096572 11.018594 -5.275803 0
M  V30 19 H 10.715287 9.189897 -8.007967 0
M  V30 END ATOM
M  V30 BEGIN BOND
M  V30 1 1 2 1
M  V30 2 1 3 2
M  V30 3 1 4 1
M  V30 4 1 5 4
M  V30 5 1 6 3
M  V30 6 1 6 5
M  V30 7 2 7 3
M  V30 8 1 8 7
M  V30 9 2 9 6
M  V30 10 1 10 9
M  V30 11 2 11 8
M  V30 12 1 11 9
M  V30 13 1 12 1
M  V30 14 1 13 1
M  V30 15 1 14 4
M  V30 16 1 15 4
M  V30 17 1 16 7
M  V30 18 1 17 8
M  V30 19 1 18 10
M  V30 20 1 19 11
M  V30 END BOND
M  V30 END CTAB
M  END
>  <i_epik_Tot_Q>  (1) 
0

>  <i_epik_Tot_abs_Q>  (1) 
0

>  <i_i_glide_confnum>  (1) 
2

>  <i_i_glide_lignum>  (1) 
75

>  <i_i_glide_posenum>  (1) 
273

>  <i_i_glide_rotatable_bonds>  (1) 
1

>  <i_lp_mmshare_version>  (1) 
72125

>  <i_m_source_file_index>  (1) 
69

>  <i_f3d_flags>  (1) 
0

>  <num_sample>  (1) 
100

>  <b_lp_Chiralities_Consistent>  (1) 
1

>  <r_epik_Charging_Adjusted_Penalty>  (1) 
0.0030607566555237334

>  <r_epik_Ionization_Penalty>  (1) 
0.0030607566555237659

>  <r_epik_Ionization_Penalty_Charging>  (1) 
0

>  <r_epik_Ionization_Penalty_Neutral>  (1) 
0.0030607566555237659

>  <r_epik_State_Penalty>  (1) 
0.0030607566555237334

>  <r_glide_ring_energy>  (1) 
0.0030878583902879796

>  <r_i_docking_score>  (1) 
-5.8481929185652985

>  <r_i_glide_ecoul>  (1) 
-0.30780653700862076

>  <r_i_glide_eff_state_penalty>  (1) 
0.0030607566555237334

>  <r_i_glide_einternal>  (1) 
0.021182743341811736

>  <r_i_glide_emodel>  (1) 
-28.193127759371205

>  <r_i_glide_emodel_strain>  (1) 
0

>  <r_i_glide_energy>  (1) 
-20.581557476505218

>  <r_i_glide_erotb>  (1) 
0

>  <r_i_glide_esite>  (1) 
0

>  <r_i_glide_evdw>  (1) 
-20.273750939496598

>  <r_i_glide_gscore>  (1) 
-5.8512536752208222

>  <r_i_glide_gscore_strain>  (1) 
0

>  <r_i_glide_hbond>  (1) 
0

>  <r_i_glide_ligand_efficiency>  (1) 
-0.53165390168775439

>  <r_i_glide_ligand_efficiency_ln>  (1) 
-1.7211221797748231

>  <r_i_glide_ligand_efficiency_sa>  (1) 
-1.1823876924270622

>  <r_i_glide_lipo>  (1) 
-2.0220238761944738

>  <r_i_glide_metal>  (1) 
-0

>  <r_i_glide_rewards>  (1) 
-2.769371271500225

>  <r_lp_Energy>  (1) 
16.942557999999998

>  <r_lp_tautomer_probability>  (1) 
0.99999999996300004

>  <s_epik_cmdline>  (1) 
J2VwaWtfcHl0aG9uJywgJy1waHQnLCAnMS4wJywgJy1waCcsICc3LjQnLCAnLXRuJywgJzgnLCAnLW1hJywgJzUwMCcsICctaW1hZScsICc8aW5maWxlLm1hZT4nLCAnLW9tYWUnLCAnPG91dGZpbGUubWFlPic=

>  <s_epik_input>  (1) 
TzFbQ0gyXVtDSDJdT2MoYzEyKWMoW09IXSlbY0hdW2NIXVtjSF0y

>  <s_glide_docking_method>  (1) 
confgen

>  <s_i_glide_gridfile>  (1) 
gpcr_drd2_6luq_protein_autoprepared_prepared

>  <s_lp_Force_Field>  (1) 
S-OPLS

>  <s_lp_Variant>  (1) 
Pocket2Mol_68-1

>  <s_m_source_file>  (1) 
generated_generic_title2_ligand_Pocket2Mol_2026-06-23_prepared.sdf

>  <GenAI_Model>  (1) 
Pocket2Mol

>  <Protein>  (1) 
generic_title2

$$$$
Pocket2Mol_96
     RDKit          3D

  0  0  0  0  0  0  0  0  0  0999 V3000
M  V30 BEGIN CTAB
M  V30 COUNTS 20 21 0 0 1
M  V30 BEGIN ATOM
M  V30 1 C 11.969413 7.718152 -3.882949 0
M  V30 2 O 11.411897 8.856796 -4.508351 0
M  V30 3 C 11.375410 6.454741 -4.496462 0
M  V30 4 O 10.180438 6.790226 -5.185018 0
M  V30 5 C 11.775408 9.195442 -5.745109 0
M  V30 6 C 10.383165 7.162989 -6.482932 0
M  V30 7 C 9.811623 6.390227 -7.511172 0
M  V30 8 O 12.510382 10.144963 -5.985025 0
M  V30 9 C 11.169128 8.310447 -6.810480 0
M  V30 10 C 10.024235 6.731846 -8.856024 0
M  V30 11 C 10.810996 7.847177 -9.184596 0
M  V30 12 F 11.019572 8.163762 -10.479717 0
M  V30 13 C 11.381128 8.636111 -8.168883 0
M  V30 14 H 13.057032 7.723593 -3.945457 0
M  V30 15 H 11.719311 7.766192 -2.823303 0
M  V30 16 H 12.089384 5.976806 -5.169992 0
M  V30 17 H 11.152794 5.732899 -3.712889 0
M  V30 18 H 9.211429 5.527223 -7.264631 0
M  V30 19 H 9.584406 6.132937 -9.639813 0
M  V30 20 H 11.976797 9.496928 -8.432818 0
M  V30 END ATOM
M  V30 BEGIN BOND
M  V30 1 1 2 1
M  V30 2 1 3 1
M  V30 3 1 4 3
M  V30 4 1 5 2
M  V30 5 1 6 4
M  V30 6 1 7 6
M  V30 7 2 8 5
M  V30 8 1 9 5
M  V30 9 2 9 6
M  V30 10 2 10 7
M  V30 11 1 11 10
M  V30 12 1 12 11
M  V30 13 1 13 9
M  V30 14 2 13 11
M  V30 15 1 14 1
M  V30 16 1 15 1
M  V30 17 1 16 3
M  V30 18 1 17 3
M  V30 19 1 18 7
M  V30 20 1 19 10
M  V30 21 1 20 13
M  V30 END BOND
M  V30 END CTAB
M  END
>  <i_epik_Tot_Q>  (1) 
0

>  <i_epik_Tot_abs_Q>  (1) 
0

>  <i_i_glide_confnum>  (1) 
5

>  <i_i_glide_lignum>  (1) 
105

>  <i_i_glide_posenum>  (1) 
103

>  <i_i_glide_rotatable_bonds>  (1) 
0

>  <i_lp_mmshare_version>  (1) 
72125

>  <i_m_source_file_index>  (1) 
97

>  <i_f3d_flags>  (1) 
0

>  <num_sample>  (1) 
100

>  <b_lp_Chiralities_Consistent>  (1) 
1

>  <r_epik_Charging_Adjusted_Penalty>  (1) 
0

>  <r_epik_Ionization_Penalty>  (1) 
0

>  <r_epik_Ionization_Penalty_Charging>  (1) 
0

>  <r_epik_Ionization_Penalty_Neutral>  (1) 
0

>  <r_epik_State_Penalty>  (1) 
-0

>  <r_glide_ring_energy>  (1) 
1.039265508099362

>  <r_i_docking_score>  (1) 
-5.8462898860364474

>  <r_i_glide_ecoul>  (1) 
-0.48373784312658014

>  <r_i_glide_eff_state_penalty>  (1) 
-0

>  <r_i_glide_einternal>  (1) 
0

>  <r_i_glide_emodel>  (1) 
-30.398603931991826

>  <r_i_glide_emodel_strain>  (1) 
0.68893754827852405

>  <r_i_glide_energy>  (1) 
-21.919597519041549

>  <r_i_glide_erotb>  (1) 
0

>  <r_i_glide_esite>  (1) 
0

>  <r_i_glide_evdw>  (1) 
-21.435859675914969

>  <r_i_glide_gscore>  (1) 
-5.8462898860364474

>  <r_i_glide_gscore_strain>  (1) 
0

>  <r_i_glide_hbond>  (1) 
0

>  <r_i_glide_ligand_efficiency>  (1) 
-0.44971460661818824

>  <r_i_glide_ligand_efficiency_ln>  (1) 
-1.6399363075943849

>  <r_i_glide_ligand_efficiency_sa>  (1) 
-1.0574295541160412

>  <r_i_glide_lipo>  (1) 
-1.2490923912779734

>  <r_i_glide_metal>  (1) 
-0

>  <r_i_glide_rewards>  (1) 
-3.4528438344937387

>  <r_lp_Energy>  (1) 
17.467690999999999

>  <r_lp_tautomer_probability>  (1) 
1

>  <s_epik_Chemistry_Notes>  (1) 
This compound has an ester and may undergo hydrolysis at high or low pH.

>  <s_epik_cmdline>  (1) 
J2VwaWtfcHl0aG9uJywgJy1waHQnLCAnMS4wJywgJy1waCcsICc3LjQnLCAnLXRuJywgJzgnLCAnLW1hJywgJzUwMCcsICctaW1hZScsICc8aW5maWxlLm1hZT4nLCAnLW9tYWUnLCAnPG91dGZpbGUubWFlPic=

>  <s_epik_input>  (1) 
TzFbQ0gyXVtDSDJdT0MoPU8pYyhjMTIpW2NIXWMoRilbY0hdW2NIXTI=

>  <s_glide_docking_method>  (1) 
confgen

>  <s_i_glide_gridfile>  (1) 
gpcr_drd2_6luq_protein_autoprepared_prepared

>  <s_lp_Force_Field>  (1) 
S-OPLS

>  <s_lp_Variant>  (1) 
Pocket2Mol_96-1

>  <s_m_source_file>  (1) 
generated_generic_title2_ligand_Pocket2Mol_2026-06-23_prepared.sdf

>  <GenAI_Model>  (1) 
Pocket2Mol

>  <Protein>  (1) 
generic_title2

$$$$
Pocket2Mol_43
     RDKit          3D

  0  0  0  0  0  0  0  0  0  0999 V3000
M  V30 BEGIN CTAB
M  V30 COUNTS 16 17 0 0 1
M  V30 BEGIN ATOM
M  V30 1 C 12.428163 8.497357 -2.002645 0
M  V30 2 O 12.174736 9.589006 -3.004035 0
M  V30 3 C 11.778666 8.902527 -4.137544 0
M  V30 4 C 11.775410 7.584539 -3.985075 0
M  V30 5 C 11.363568 6.702554 -4.988272 0
M  V30 6 C 11.380927 9.503008 -5.341765 0
M  V30 7 C 10.963598 8.664020 -6.408195 0
M  V30 8 C 10.952163 7.249687 -6.228189 0
M  V30 9 N 12.182687 7.263522 -2.766483 0
M  V30 10 H 13.459788 8.521422 -1.653543 0
M  V30 11 H 11.725346 8.560756 -1.172214 0
M  V30 12 H 11.362784 5.635123 -4.824778 0
M  V30 13 H 11.385198 10.577352 -5.451905 0
M  V30 14 H 10.649506 9.094003 -7.347681 0
M  V30 15 H 10.630490 6.600938 -7.030037 0
M  V30 16 H 11.688279 6.517829 -2.295882 0
M  V30 END ATOM
M  V30 BEGIN BOND
M  V30 1 1 2 1
M  V30 2 1 3 2
M  V30 3 1 4 3
M  V30 4 2 5 4
M  V30 5 2 6 3
M  V30 6 1 7 6
M  V30 7 1 8 5
M  V30 8 2 8 7
M  V30 9 1 9 1
M  V30 10 1 9 4
M  V30 11 1 10 1
M  V30 12 1 11 1
M  V30 13 1 12 5
M  V30 14 1 13 6
M  V30 15 1 14 7
M  V30 16 1 15 8
M  V30 17 1 16 9
M  V30 END BOND
M  V30 END CTAB
M  END
>  <i_epik_Tot_Q>  (1) 
0

>  <i_epik_Tot_abs_Q>  (1) 
0

>  <i_i_glide_confnum>  (1) 
1

>  <i_i_glide_lignum>  (1) 
48

>  <i_i_glide_posenum>  (1) 
125

>  <i_i_glide_rotatable_bonds>  (1) 
0

>  <i_lp_mmshare_version>  (1) 
72125

>  <i_m_source_file_index>  (1) 
44

>  <i_f3d_flags>  (1) 
0

>  <num_sample>  (1) 
100

>  <b_lp_Chiralities_Consistent>  (1) 
1

>  <r_epik_Charging_Adjusted_Penalty>  (1) 
0

>  <r_epik_Ionization_Penalty>  (1) 
3.929707007381515e-06

>  <r_epik_Ionization_Penalty_Charging>  (1) 
0

>  <r_epik_Ionization_Penalty_Neutral>  (1) 
3.929707007381515e-06

>  <r_epik_State_Penalty>  (1) 
-0

>  <r_glide_ring_energy>  (1) 
0

>  <r_i_docking_score>  (1) 
-5.8447933099765885

>  <r_i_glide_ecoul>  (1) 
-1.3421876227398855

>  <r_i_glide_eff_state_penalty>  (1) 
-0

>  <r_i_glide_einternal>  (1) 
0

>  <r_i_glide_emodel>  (1) 
-28.969995418051319

>  <r_i_glide_emodel_strain>  (1) 
0

>  <r_i_glide_energy>  (1) 
-21.443963655226874

>  <r_i_glide_erotb>  (1) 
0

>  <r_i_glide_esite>  (1) 
0

>  <r_i_glide_evdw>  (1) 
-20.101776032486988

>  <r_i_glide_gscore>  (1) 
-5.8447933099765885

>  <r_i_glide_gscore_strain>  (1) 
0

>  <r_i_glide_hbond>  (1) 
0

>  <r_i_glide_ligand_efficiency>  (1) 
-0.64942147888628765

>  <r_i_glide_ligand_efficiency_ln>  (1) 
-1.8280834419351928

>  <r_i_glide_ligand_efficiency_sa>  (1) 
-1.3508511125738107

>  <r_i_glide_lipo>  (1) 
-1.613376364941256

>  <r_i_glide_metal>  (1) 
-0

>  <r_i_glide_rewards>  (1) 
-3.0249999999999999

>  <r_lp_Energy>  (1) 
10.457737999999999

>  <r_lp_tautomer_probability>  (1) 
1

>  <s_epik_Chemistry_Notes>  (1) 
This compound contains an acetal/aminal-like group ( X-CH(R)-Y where X, Y are N, S, or O) that may be acid/base labile, releasing an aldehyde.

>  <s_epik_cmdline>  (1) 
J2VwaWtfcHl0aG9uJywgJy1waHQnLCAnMS4wJywgJy1waCcsICc3LjQnLCAnLXRuJywgJzgnLCAnLW1hJywgJzUwMCcsICctaW1hZScsICc8aW5maWxlLm1hZT4nLCAnLW9tYWUnLCAnPG91dGZpbGUubWFlPic=

>  <s_epik_input>  (1) 
TzFbQ0gyXVtOSF1jKGMxMilbY0hdW2NIXVtjSF1bY0hdMg==

>  <s_glide_docking_method>  (1) 
confgen

>  <s_i_glide_gridfile>  (1) 
gpcr_drd2_6luq_protein_autoprepared_prepared

>  <s_lp_Force_Field>  (1) 
S-OPLS

>  <s_lp_Variant>  (1) 
Pocket2Mol_43-1

>  <s_m_source_file>  (1) 
generated_generic_title2_ligand_Pocket2Mol_2026-06-23_prepared.sdf

>  <GenAI_Model>  (1) 
Pocket2Mol

>  <Protein>  (1) 
generic_title2

$$$$
Pocket2Mol_65
     RDKit          3D

  0  0  0  0  0  0  0  0  0  0999 V3000
M  V30 BEGIN CTAB
M  V30 COUNTS 18 19 0 0 1
M  V30 BEGIN ATOM
M  V30 1 C 12.175409 8.228342 -2.042091 0
M  V30 2 O 12.337548 9.061902 -3.184624 0
M  V30 3 C 11.850993 8.586925 -4.385029 0
M  V30 4 C 11.841051 9.429559 -5.513430 0
M  V30 5 C 12.347708 6.756276 -2.421497 0
M  V30 6 C 11.375507 7.250513 -4.500235 0
M  V30 7 O 11.396799 6.405810 -3.415214 0
M  V30 8 C 10.889591 6.786268 -5.736200 0
M  V30 9 C 10.889995 7.631576 -6.859390 0
M  V30 10 F 10.435765 7.174735 -8.049415 0
M  V30 11 C 11.368689 8.948937 -6.749510 0
M  V30 12 H 11.196410 8.390247 -1.592821 0
M  V30 13 H 12.914843 8.514838 -1.293832 0
M  V30 14 H 12.204692 10.441215 -5.433563 0
M  V30 15 H 12.201679 6.105551 -1.561856 0
M  V30 16 H 13.358787 6.576943 -2.785025 0
M  V30 17 H 10.526692 5.775702 -5.825952 0
M  V30 18 H 11.375407 9.590229 -7.615559 0
M  V30 END ATOM
M  V30 BEGIN BOND
M  V30 1 1 2 1
M  V30 2 1 3 2
M  V30 3 1 4 3
M  V30 4 1 5 1
M  V30 5 2 6 3
M  V30 6 1 7 5
M  V30 7 1 7 6
M  V30 8 1 8 6
M  V30 9 2 9 8
M  V30 10 1 10 9
M  V30 11 2 11 4
M  V30 12 1 11 9
M  V30 13 1 12 1
M  V30 14 1 13 1
M  V30 15 1 14 4
M  V30 16 1 15 5
M  V30 17 1 16 5
M  V30 18 1 17 8
M  V30 19 1 18 11
M  V30 END BOND
M  V30 END CTAB
M  END
>  <i_epik_Tot_Q>  (1) 
0

>  <i_epik_Tot_abs_Q>  (1) 
0

>  <i_i_glide_confnum>  (1) 
2

>  <i_i_glide_lignum>  (1) 
72

>  <i_i_glide_posenum>  (1) 
31

>  <i_i_glide_rotatable_bonds>  (1) 
0

>  <i_lp_mmshare_version>  (1) 
72125

>  <i_m_source_file_index>  (1) 
66

>  <i_f3d_flags>  (1) 
0

>  <num_sample>  (1) 
100

>  <b_lp_Chiralities_Consistent>  (1) 
1

>  <r_epik_Charging_Adjusted_Penalty>  (1) 
0

>  <r_epik_Ionization_Penalty>  (1) 
0

>  <r_epik_Ionization_Penalty_Charging>  (1) 
0

>  <r_epik_Ionization_Penalty_Neutral>  (1) 
0

>  <r_epik_State_Penalty>  (1) 
-0

>  <r_glide_ring_energy>  (1) 
0.0030884427186306492

>  <r_i_docking_score>  (1) 
-5.8433845224000134

>  <r_i_glide_ecoul>  (1) 
0.70148321502091759

>  <r_i_glide_eff_state_penalty>  (1) 
-0

>  <r_i_glide_einternal>  (1) 
0

>  <r_i_glide_emodel>  (1) 
-29.422222030131735

>  <r_i_glide_emodel_strain>  (1) 
0

>  <r_i_glide_energy>  (1) 
-21.140561440920436

>  <r_i_glide_erotb>  (1) 
0

>  <r_i_glide_esite>  (1) 
-0.018334533920475921

>  <r_i_glide_evdw>  (1) 
-21.842044655941354

>  <r_i_glide_gscore>  (1) 
-5.8433845224000134

>  <r_i_glide_gscore_strain>  (1) 
0

>  <r_i_glide_hbond>  (1) 
0

>  <r_i_glide_ligand_efficiency>  (1) 
-0.5312167747636376

>  <r_i_glide_ligand_efficiency_ln>  (1) 
-1.7197070696024235

>  <r_i_glide_ligand_efficiency_sa>  (1) 
-1.1814155308507746

>  <r_i_glide_lipo>  (1) 
-2.0931183873692998

>  <r_i_glide_metal>  (1) 
-0

>  <r_i_glide_rewards>  (1) 
-2.7450518505663073

>  <r_lp_Energy>  (1) 
15.305638999999999

>  <r_lp_tautomer_probability>  (1) 
1

>  <s_epik_cmdline>  (1) 
J2VwaWtfcHl0aG9uJywgJy1waHQnLCAnMS4wJywgJy1waCcsICc3LjQnLCAnLXRuJywgJzgnLCAnLW1hJywgJzUwMCcsICctaW1hZScsICc8aW5maWxlLm1hZT4nLCAnLW9tYWUnLCAnPG91dGZpbGUubWFlPic=

>  <s_epik_input>  (1) 
TzFbQ0gyXVtDSDJdT2MoYzEyKVtjSF1jKEYpW2NIXVtjSF0y

>  <s_glide_docking_method>  (1) 
confgen

>  <s_i_glide_gridfile>  (1) 
gpcr_drd2_6luq_protein_autoprepared_prepared

>  <s_lp_Force_Field>  (1) 
S-OPLS

>  <s_lp_Variant>  (1) 
Pocket2Mol_65-1

>  <s_m_source_file>  (1) 
generated_generic_title2_ligand_Pocket2Mol_2026-06-23_prepared.sdf

>  <GenAI_Model>  (1) 
Pocket2Mol

>  <Protein>  (1) 
generic_title2

$$$$
Pocket2Mol_61
     RDKit          3D

  0  0  0  0  0  0  0  0  0  0999 V3000
M  V30 BEGIN CTAB
M  V30 COUNTS 18 19 0 0 1
M  V30 BEGIN ATOM
M  V30 1 C 12.414872 7.727179 -2.368985 0
M  V30 2 O 12.530757 8.892457 -3.078953 0
M  V30 3 C 12.047903 8.631443 -4.344491 0
M  V30 4 C 11.625668 7.280277 -4.419619 0
M  V30 5 C 11.099862 6.838904 -5.655985 0
M  V30 6 C 10.998557 7.716794 -6.763851 0
M  V30 7 C 11.874841 6.713713 -3.124268 0
M  V30 8 N 10.486831 7.286675 -7.993493 0
M  V30 9 C 11.436868 9.054308 -6.644478 0
M  V30 10 C 11.965385 9.521784 -5.426444 0
M  V30 11 O 11.147640 7.776484 -9.128888 0
M  V30 12 H 12.756879 7.775387 -1.345223 0
M  V30 13 H 10.773651 5.813629 -5.742815 0
M  V30 14 H 11.674036 5.698206 -2.817156 0
M  V30 15 H 10.235947 6.313069 -8.101602 0
M  V30 16 H 11.367661 9.727513 -7.486685 0
M  V30 17 H 12.301115 10.542536 -5.323118 0
M  V30 18 H 10.523698 8.336562 -9.566750 0
M  V30 END ATOM
M  V30 BEGIN BOND
M  V30 1 1 2 1
M  V30 2 1 3 2
M  V30 3 1 4 3
M  V30 4 2 5 4
M  V30 5 1 6 5
M  V30 6 2 7 1
M  V30 7 1 7 4
M  V30 8 1 8 6
M  V30 9 2 9 6
M  V30 10 2 10 3
M  V30 11 1 10 9
M  V30 12 1 11 8
M  V30 13 1 12 1
M  V30 14 1 13 5
M  V30 15 1 14 7
M  V30 16 1 15 8
M  V30 17 1 16 9
M  V30 18 1 17 10
M  V30 19 1 18 11
M  V30 END BOND
M  V30 END CTAB
M  END
>  <i_epik_Tot_Q>  (1) 
0

>  <i_epik_Tot_abs_Q>  (1) 
0

>  <i_i_glide_confnum>  (1) 
1

>  <i_i_glide_lignum>  (1) 
68

>  <i_i_glide_posenum>  (1) 
291

>  <i_i_glide_rotatable_bonds>  (1) 
2

>  <i_lp_mmshare_version>  (1) 
72125

>  <i_m_source_file_index>  (1) 
62

>  <i_f3d_flags>  (1) 
0

>  <num_sample>  (1) 
100

>  <b_lp_Chiralities_Consistent>  (1) 
1

>  <r_epik_Charging_Adjusted_Penalty>  (1) 
0

>  <r_epik_Ionization_Penalty>  (1) 
0.00016546089717554426

>  <r_epik_Ionization_Penalty_Charging>  (1) 
0

>  <r_epik_Ionization_Penalty_Neutral>  (1) 
0.00016546089717554426

>  <r_epik_State_Penalty>  (1) 
-0

>  <r_glide_ring_energy>  (1) 
0

>  <r_i_docking_score>  (1) 
-5.8381363584519255

>  <r_i_glide_ecoul>  (1) 
-0.71209682507895145

>  <r_i_glide_eff_state_penalty>  (1) 
-0

>  <r_i_glide_einternal>  (1) 
0.70462058334119071

>  <r_i_glide_emodel>  (1) 
-30.357756416411146

>  <r_i_glide_emodel_strain>  (1) 
0.011929233208867629

>  <r_i_glide_energy>  (1) 
-21.19864483833355

>  <r_i_glide_erotb>  (1) 
0

>  <r_i_glide_esite>  (1) 
-0.014244333601101979

>  <r_i_glide_evdw>  (1) 
-20.486548013254598

>  <r_i_glide_gscore>  (1) 
-5.8381363584519255

>  <r_i_glide_gscore_strain>  (1) 
0

>  <r_i_glide_hbond>  (1) 
0

>  <r_i_glide_ligand_efficiency>  (1) 
-0.53073966895017499

>  <r_i_glide_ligand_efficiency_ln>  (1) 
-1.7181625358464534

>  <r_i_glide_ligand_efficiency_sa>  (1) 
-1.1803544570205389

>  <r_i_glide_lipo>  (1) 
-2.1619655205138306

>  <r_i_glide_metal>  (1) 
-0

>  <r_i_glide_rewards>  (1) 
-2.5307845799124205

>  <r_lp_Energy>  (1) 
13.798807999999999

>  <r_lp_tautomer_probability>  (1) 
1

>  <s_epik_Chemistry_Notes>  (1) 
This compound has a N-S or N-O group and may undergo hydrolysis at high or low pH.

>  <s_epik_cmdline>  (1) 
J2VwaWtfcHl0aG9uJywgJy1waHQnLCAnMS4wJywgJy1waCcsICc3LjQnLCAnLXRuJywgJzgnLCAnLW1hJywgJzUwMCcsICctaW1hZScsICc8aW5maWxlLm1hZT4nLCAnLW9tYWUnLCAnPG91dGZpbGUubWFlPic=

>  <s_epik_input>  (1) 
bzFbY0hdW2NIXWMoYzEyKVtjSF1jKFtOSF1bT0hdKVtjSF1bY0hdMg==

>  <s_glide_docking_method>  (1) 
confgen

>  <s_i_glide_gridfile>  (1) 
gpcr_drd2_6luq_protein_autoprepared_prepared

>  <s_lp_Force_Field>  (1) 
S-OPLS

>  <s_lp_Variant>  (1) 
Pocket2Mol_61-1

>  <s_m_source_file>  (1) 
generated_generic_title2_ligand_Pocket2Mol_2026-06-23_prepared.sdf

>  <GenAI_Model>  (1) 
Pocket2Mol

>  <Protein>  (1) 
generic_title2

$$$$
Pocket2Mol_48
     RDKit          3D

  0  0  0  0  0  0  0  0  0  0999 V3000
M  V30 BEGIN CTAB
M  V30 COUNTS 19 20 0 0 1
M  V30 BEGIN ATOM
M  V30 1 C 12.231568 6.778347 -2.414849 0
M  V30 2 O 11.386771 6.390236 -3.457036 0
M  V30 3 C 11.375410 7.230859 -4.547188 0
M  V30 4 C 11.778028 8.579708 -4.407288 0
M  V30 5 C 11.775404 9.433920 -5.527772 0
M  V30 6 C 10.962254 6.749304 -5.802337 0
M  V30 7 C 10.961603 7.602737 -6.920368 0
M  V30 8 C 12.225001 9.097633 -3.049865 0
M  V30 9 C 11.371736 8.941885 -6.784842 0
M  V30 10 N 11.996956 8.131248 -1.985034 0
M  V30 11 H 12.073938 6.089211 -1.585021 0
M  V30 12 H 13.264051 6.668262 -2.749543 0
M  V30 13 H 12.087306 10.462060 -5.425765 0
M  V30 14 H 10.651083 5.722710 -5.909241 0
M  V30 15 H 10.648117 7.228815 -7.884364 0
M  V30 16 H 13.289876 9.326839 -3.098519 0
M  V30 17 H 11.701395 10.022347 -2.809706 0
M  V30 18 H 11.375445 9.590234 -7.645609 0
M  V30 19 H 11.092988 8.265582 -1.552590 0
M  V30 END ATOM
M  V30 BEGIN BOND
M  V30 1 1 2 1
M  V30 2 1 3 2
M  V30 3 1 4 3
M  V30 4 2 5 4
M  V30 5 2 6 3
M  V30 6 1 7 6
M  V30 7 1 8 4
M  V30 8 1 9 5
M  V30 9 2 9 7
M  V30 10 1 10 1
M  V30 11 1 10 8
M  V30 12 1 11 1
M  V30 13 1 12 1
M  V30 14 1 13 5
M  V30 15 1 14 6
M  V30 16 1 15 7
M  V30 17 1 16 8
M  V30 18 1 17 8
M  V30 19 1 18 9
M  V30 20 1 19 10
M  V30 END BOND
M  V30 END CTAB
M  END
>  <i_epik_Tot_Q>  (1) 
0

>  <i_epik_Tot_abs_Q>  (1) 
0

>  <i_i_glide_confnum>  (1) 
3

>  <i_i_glide_lignum>  (1) 
54

>  <i_i_glide_posenum>  (1) 
343

>  <i_i_glide_rotatable_bonds>  (1) 
0

>  <i_lp_mmshare_version>  (1) 
72125

>  <i_m_source_file_index>  (1) 
49

>  <i_f3d_flags>  (1) 
0

>  <num_sample>  (1) 
100

>  <b_lp_Chiralities_Consistent>  (1) 
1

>  <r_epik_Charging_Adjusted_Penalty>  (1) 
0.1493798173009977

>  <r_epik_Ionization_Penalty>  (1) 
0.14937981730099775

>  <r_epik_Ionization_Penalty_Charging>  (1) 
0

>  <r_epik_Ionization_Penalty_Neutral>  (1) 
0.14937981730099775

>  <r_epik_State_Penalty>  (1) 
0.1493798173009977

>  <r_glide_ring_energy>  (1) 
2.0903531269635209

>  <r_i_docking_score>  (1) 
-5.8361181271471434

>  <r_i_glide_ecoul>  (1) 
-0.20800626381584938

>  <r_i_glide_eff_state_penalty>  (1) 
0.1493798173009977

>  <r_i_glide_einternal>  (1) 
0

>  <r_i_glide_emodel>  (1) 
-30.217335291457196

>  <r_i_glide_emodel_strain>  (1) 
0

>  <r_i_glide_energy>  (1) 
-21.799327976077379

>  <r_i_glide_erotb>  (1) 
0

>  <r_i_glide_esite>  (1) 
0

>  <r_i_glide_evdw>  (1) 
-21.591321712261529

>  <r_i_glide_gscore>  (1) 
-5.9854979444481407

>  <r_i_glide_gscore_strain>  (1) 
0

>  <r_i_glide_hbond>  (1) 
-0.05772166371101415

>  <r_i_glide_ligand_efficiency>  (1) 
-0.5836118127147143

>  <r_i_glide_ligand_efficiency_ln>  (1) 
-1.7671363379940215

>  <r_i_glide_ligand_efficiency_sa>  (1) 
-1.2573535348249716

>  <r_i_glide_lipo>  (1) 
-1.7543476053678764

>  <r_i_glide_metal>  (1) 
-0

>  <r_i_glide_rewards>  (1) 
-3.062661650183796

>  <r_lp_Energy>  (1) 
22.191175999999999

>  <r_lp_tautomer_probability>  (1) 
1

>  <s_epik_Chemistry_Notes>  (1) 
This compound contains an acetal/aminal-like group ( X-CH(R)-Y where X, Y are N, S, or O) that may be acid/base labile, releasing an aldehyde.

>  <s_epik_cmdline>  (1) 
J2VwaWtfcHl0aG9uJywgJy1waHQnLCAnMS4wJywgJy1waCcsICc3LjQnLCAnLXRuJywgJzgnLCAnLW1hJywgJzUwMCcsICctaW1hZScsICc8aW5maWxlLm1hZT4nLCAnLW9tYWUnLCAnPG91dGZpbGUubWFlPic=

>  <s_epik_input>  (1) 
TzFbQ0gyXVtOSF1bQ0gyXWMoYzEyKVtjSF1bY0hdW2NIXVtjSF0y

>  <s_glide_docking_method>  (1) 
confgen

>  <s_i_glide_gridfile>  (1) 
gpcr_drd2_6luq_protein_autoprepared_prepared

>  <s_lp_Force_Field>  (1) 
S-OPLS

>  <s_lp_Variant>  (1) 
Pocket2Mol_48-1

>  <s_m_source_file>  (1) 
generated_generic_title2_ligand_Pocket2Mol_2026-06-23_prepared.sdf

>  <GenAI_Model>  (1) 
Pocket2Mol

>  <Protein>  (1) 
generic_title2

$$$$
Pocket2Mol_76
     RDKit          3D

  0  0  0  0  0  0  0  0  0  0999 V3000
M  V30 BEGIN CTAB
M  V30 COUNTS 20 21 0 0 1
M  V30 BEGIN ATOM
M  V30 1 C 9.473994 6.589924 -7.424588 0
M  V30 2 O 10.334116 6.145216 -6.387564 0
M  V30 3 C 10.943580 7.143724 -5.668216 0
M  V30 4 C 10.229612 7.613166 -8.272178 0
M  V30 5 O 10.558097 8.734316 -7.462625 0
M  V30 6 C 11.054649 8.449430 -6.209032 0
M  V30 7 C 11.460510 6.868334 -4.385025 0
M  V30 8 C 12.084491 7.892708 -3.640310 0
M  V30 9 C 11.673992 9.465121 -5.462525 0
M  V30 10 O 11.775410 10.715675 -5.985025 0
M  V30 11 O 12.575410 7.630044 -2.395504 0
M  V30 12 C 12.189059 9.190227 -4.179734 0
M  V30 13 H 9.165093 5.737150 -8.029245 0
M  V30 14 H 8.575410 7.030199 -6.993530 0
M  V30 15 H 11.137014 7.177863 -8.693205 0
M  V30 16 H 9.610058 7.947443 -9.104883 0
M  V30 17 H 11.375421 5.874479 -3.971264 0
M  V30 18 H 11.375400 10.752545 -6.841196 0
M  V30 19 H 12.923519 8.398466 -1.967552 0
M  V30 20 H 12.664025 9.975354 -3.610555 0
M  V30 END ATOM
M  V30 BEGIN BOND
M  V30 1 1 2 1
M  V30 2 1 3 2
M  V30 3 1 4 1
M  V30 4 1 5 4
M  V30 5 1 6 3
M  V30 6 1 6 5
M  V30 7 2 7 3
M  V30 8 1 8 7
M  V30 9 2 9 6
M  V30 10 1 10 9
M  V30 11 1 11 8
M  V30 12 2 12 8
M  V30 13 1 12 9
M  V30 14 1 13 1
M  V30 15 1 14 1
M  V30 16 1 15 4
M  V30 17 1 16 4
M  V30 18 1 17 7
M  V30 19 1 18 10
M  V30 20 1 19 11
M  V30 21 1 20 12
M  V30 END BOND
M  V30 END CTAB
M  END
>  <i_epik_Tot_Q>  (1) 
0

>  <i_epik_Tot_abs_Q>  (1) 
0

>  <i_i_glide_confnum>  (1) 
2

>  <i_i_glide_lignum>  (1) 
83

>  <i_i_glide_posenum>  (1) 
248

>  <i_i_glide_rotatable_bonds>  (1) 
2

>  <i_lp_mmshare_version>  (1) 
72125

>  <i_m_source_file_index>  (1) 
77

>  <i_f3d_flags>  (1) 
0

>  <num_sample>  (1) 
100

>  <b_lp_Chiralities_Consistent>  (1) 
1

>  <r_epik_Charging_Adjusted_Penalty>  (1) 
0

>  <r_epik_Ionization_Penalty>  (1) 
0.012400157081266662

>  <r_epik_Ionization_Penalty_Charging>  (1) 
0

>  <r_epik_Ionization_Penalty_Neutral>  (1) 
0.012400157081266662

>  <r_epik_State_Penalty>  (1) 
-0

>  <r_glide_ring_energy>  (1) 
0.0030882677572799519

>  <r_i_docking_score>  (1) 
-5.8291194599543372

>  <r_i_glide_ecoul>  (1) 
-1.0236651193435262

>  <r_i_glide_eff_state_penalty>  (1) 
-0

>  <r_i_glide_einternal>  (1) 
0.010262012869251366

>  <r_i_glide_emodel>  (1) 
-33.81575598712881

>  <r_i_glide_emodel_strain>  (1) 
0

>  <r_i_glide_energy>  (1) 
-23.260637376116783

>  <r_i_glide_erotb>  (1) 
0

>  <r_i_glide_esite>  (1) 
0

>  <r_i_glide_evdw>  (1) 
-22.236972256773257

>  <r_i_glide_gscore>  (1) 
-5.8291194599543372

>  <r_i_glide_gscore_strain>  (1) 
0

>  <r_i_glide_hbond>  (1) 
0

>  <r_i_glide_ligand_efficiency>  (1) 
-0.48575995499619479

>  <r_i_glide_ligand_efficiency_ln>  (1) 
-1.672675926716414

>  <r_i_glide_ligand_efficiency_sa>  (1) 
-1.1121126778924195

>  <r_i_glide_lipo>  (1) 
-1.7519022381127562

>  <r_i_glide_metal>  (1) 
-0

>  <r_i_glide_rewards>  (1) 
-2.8118188411013891

>  <r_lp_Energy>  (1) 
12.367407

>  <r_lp_tautomer_probability>  (1) 
1

>  <s_epik_cmdline>  (1) 
J2VwaWtfcHl0aG9uJywgJy1waHQnLCAnMS4wJywgJy1waCcsICc3LjQnLCAnLXRuJywgJzgnLCAnLW1hJywgJzUwMCcsICctaW1hZScsICc8aW5maWxlLm1hZT4nLCAnLW9tYWUnLCAnPG91dGZpbGUubWFlPic=

>  <s_epik_input>  (1) 
TzFbQ0gyXVtDSDJdT2MoYzEyKWMoW09IXSlbY0hdYyhbY0hdMilbT0hd

>  <s_glide_docking_method>  (1) 
confgen

>  <s_i_glide_gridfile>  (1) 
gpcr_drd2_6luq_protein_autoprepared_prepared

>  <s_lp_Force_Field>  (1) 
S-OPLS

>  <s_lp_Variant>  (1) 
Pocket2Mol_76-1

>  <s_m_source_file>  (1) 
generated_generic_title2_ligand_Pocket2Mol_2026-06-23_prepared.sdf

>  <GenAI_Model>  (1) 
Pocket2Mol

>  <Protein>  (1) 
generic_title2

$$$$
Pocket2Mol_43
     RDKit          3D

  0  0  0  0  0  0  0  0  0  0999 V3000
M  V30 BEGIN CTAB
M  V30 COUNTS 16 17 0 0 1
M  V30 BEGIN ATOM
M  V30 1 C 10.029175 7.205957 -11.246283 0
M  V30 2 O 11.455698 7.565287 -10.928943 0
M  V30 3 C 11.417123 7.945253 -9.598715 0
M  V30 4 C 10.217611 7.838209 -9.058100 0
M  V30 5 C 9.934408 8.216512 -7.741699 0
M  V30 6 C 12.513329 8.411845 -8.867206 0
M  V30 7 C 12.312006 8.785622 -7.517042 0
M  V30 8 C 11.005915 8.700500 -6.947377 0
M  V30 9 N 9.374292 7.349230 -9.944782 0
M  V30 10 H 9.643742 7.913203 -11.980735 0
M  V30 11 H 9.937731 6.173314 -11.573782 0
M  V30 12 H 8.936423 8.139807 -7.345008 0
M  V30 13 H 13.488812 8.477599 -9.318097 0
M  V30 14 H 13.143123 9.146892 -6.929895 0
M  V30 15 H 10.835950 9.002391 -5.921507 0
M  V30 16 H 8.355314 7.590240 -9.903492 0
M  V30 END ATOM
M  V30 BEGIN BOND
M  V30 1 1 2 1
M  V30 2 1 3 2
M  V30 3 1 4 3
M  V30 4 2 5 4
M  V30 5 2 6 3
M  V30 6 1 7 6
M  V30 7 1 8 5
M  V30 8 2 8 7
M  V30 9 1 9 1
M  V30 10 1 9 4
M  V30 11 1 10 1
M  V30 12 1 11 1
M  V30 13 1 12 5
M  V30 14 1 13 6
M  V30 15 1 14 7
M  V30 16 1 15 8
M  V30 17 1 16 9
M  V30 END BOND
M  V30 END CTAB
M  END
>  <i_epik_Tot_Q>  (1) 
0

>  <i_epik_Tot_abs_Q>  (1) 
0

>  <i_i_glide_confnum>  (1) 
1

>  <i_i_glide_lignum>  (1) 
48

>  <i_i_glide_posenum>  (1) 
350

>  <i_i_glide_rotatable_bonds>  (1) 
0

>  <i_lp_mmshare_version>  (1) 
72125

>  <i_m_source_file_index>  (1) 
44

>  <i_f3d_flags>  (1) 
0

>  <num_sample>  (1) 
100

>  <b_lp_Chiralities_Consistent>  (1) 
1

>  <r_epik_Charging_Adjusted_Penalty>  (1) 
0

>  <r_epik_Ionization_Penalty>  (1) 
3.929707007381515e-06

>  <r_epik_Ionization_Penalty_Charging>  (1) 
0

>  <r_epik_Ionization_Penalty_Neutral>  (1) 
3.929707007381515e-06

>  <r_epik_State_Penalty>  (1) 
-0

>  <r_glide_ring_energy>  (1) 
0

>  <r_i_docking_score>  (1) 
-5.8220947912319314

>  <r_i_glide_ecoul>  (1) 
-8.2576728823284462

>  <r_i_glide_eff_state_penalty>  (1) 
-0

>  <r_i_glide_einternal>  (1) 
0

>  <r_i_glide_emodel>  (1) 
-28.196395027587268

>  <r_i_glide_emodel_strain>  (1) 
0.0013931766694668113

>  <r_i_glide_energy>  (1) 
-20.700984125625975

>  <r_i_glide_erotb>  (1) 
0

>  <r_i_glide_esite>  (1) 
-0.14385190995998906

>  <r_i_glide_evdw>  (1) 
-12.443311243297529

>  <r_i_glide_gscore>  (1) 
-5.8220947912319314

>  <r_i_glide_gscore_strain>  (1) 
0

>  <r_i_glide_hbond>  (1) 
-0.15695505304447832

>  <r_i_glide_ligand_efficiency>  (1) 
-0.64689942124799238

>  <r_i_glide_ligand_efficiency_ln>  (1) 
-1.8209839973401658

>  <r_i_glide_ligand_efficiency_sa>  (1) 
-1.3456050212795885

>  <r_i_glide_lipo>  (1) 
-0.90213800037998837

>  <r_i_glide_metal>  (1) 
-0

>  <r_i_glide_rewards>  (1) 
-2.7583333333333333

>  <r_lp_Energy>  (1) 
10.457737999999999

>  <r_lp_tautomer_probability>  (1) 
1

>  <s_epik_Chemistry_Notes>  (1) 
This compound contains an acetal/aminal-like group ( X-CH(R)-Y where X, Y are N, S, or O) that may be acid/base labile, releasing an aldehyde.

>  <s_epik_cmdline>  (1) 
J2VwaWtfcHl0aG9uJywgJy1waHQnLCAnMS4wJywgJy1waCcsICc3LjQnLCAnLXRuJywgJzgnLCAnLW1hJywgJzUwMCcsICctaW1hZScsICc8aW5maWxlLm1hZT4nLCAnLW9tYWUnLCAnPG91dGZpbGUubWFlPic=

>  <s_epik_input>  (1) 
TzFbQ0gyXVtOSF1jKGMxMilbY0hdW2NIXVtjSF1bY0hdMg==

>  <s_glide_docking_method>  (1) 
confgen

>  <s_i_glide_gridfile>  (1) 
gpcr_drd2_6luq_protein_autoprepared_prepared

>  <s_lp_Force_Field>  (1) 
S-OPLS

>  <s_lp_Variant>  (1) 
Pocket2Mol_43-1

>  <s_m_source_file>  (1) 
generated_generic_title2_ligand_Pocket2Mol_2026-06-23_prepared.sdf

>  <GenAI_Model>  (1) 
Pocket2Mol

>  <Protein>  (1) 
generic_title2

$$$$
Pocket2Mol_43
     RDKit          3D

  0  0  0  0  0  0  0  0  0  0999 V3000
M  V30 BEGIN CTAB
M  V30 COUNTS 16 17 0 0 1
M  V30 BEGIN ATOM
M  V30 1 C 12.518706 8.312761 -2.004203 0
M  V30 2 O 12.209719 7.045602 -2.751505 0
M  V30 3 C 11.775409 7.499747 -3.985271 0
M  V30 4 C 11.775445 8.821081 -4.094489 0
M  V30 5 C 11.407255 9.491472 -5.266820 0
M  V30 6 C 11.375400 6.677436 -5.048163 0
M  V30 7 C 10.975173 7.290671 -6.264301 0
M  V30 8 C 10.994808 8.712415 -6.375117 0
M  V30 9 N 12.175491 9.371111 -2.960003 0
M  V30 10 H 11.883363 8.412478 -1.124144 0
M  V30 11 H 13.573717 8.390234 -1.744527 0
M  V30 12 H 11.427161 10.569795 -5.323050 0
M  V30 13 H 11.376730 5.602770 -4.944905 0
M  V30 14 H 10.662568 6.683439 -7.101919 0
M  V30 15 H 10.695990 9.190243 -7.296126 0
M  V30 16 H 12.804839 10.157829 -3.019363 0
M  V30 END ATOM
M  V30 BEGIN BOND
M  V30 1 1 2 1
M  V30 2 1 3 2
M  V30 3 1 4 3
M  V30 4 2 5 4
M  V30 5 2 6 3
M  V30 6 1 7 6
M  V30 7 1 8 5
M  V30 8 2 8 7
M  V30 9 1 9 1
M  V30 10 1 9 4
M  V30 11 1 10 1
M  V30 12 1 11 1
M  V30 13 1 12 5
M  V30 14 1 13 6
M  V30 15 1 14 7
M  V30 16 1 15 8
M  V30 17 1 16 9
M  V30 END BOND
M  V30 END CTAB
M  END
>  <i_epik_Tot_Q>  (1) 
0

>  <i_epik_Tot_abs_Q>  (1) 
0

>  <i_i_glide_confnum>  (1) 
1

>  <i_i_glide_lignum>  (1) 
48

>  <i_i_glide_posenum>  (1) 
300

>  <i_i_glide_rotatable_bonds>  (1) 
0

>  <i_lp_mmshare_version>  (1) 
72125

>  <i_m_source_file_index>  (1) 
44

>  <i_f3d_flags>  (1) 
0

>  <num_sample>  (1) 
100

>  <b_lp_Chiralities_Consistent>  (1) 
1

>  <r_epik_Charging_Adjusted_Penalty>  (1) 
0

>  <r_epik_Ionization_Penalty>  (1) 
3.929707007381515e-06

>  <r_epik_Ionization_Penalty_Charging>  (1) 
0

>  <r_epik_Ionization_Penalty_Neutral>  (1) 
3.929707007381515e-06

>  <r_epik_State_Penalty>  (1) 
-0

>  <r_glide_ring_energy>  (1) 
0

>  <r_i_docking_score>  (1) 
-5.8072267364074976

>  <r_i_glide_ecoul>  (1) 
-0.34992415724526243

>  <r_i_glide_eff_state_penalty>  (1) 
-0

>  <r_i_glide_einternal>  (1) 
0

>  <r_i_glide_emodel>  (1) 
-27.262552105269982

>  <r_i_glide_emodel_strain>  (1) 
0

>  <r_i_glide_energy>  (1) 
-19.78489283586098

>  <r_i_glide_erotb>  (1) 
0

>  <r_i_glide_esite>  (1) 
0

>  <r_i_glide_evdw>  (1) 
-19.434968678615718

>  <r_i_glide_gscore>  (1) 
-5.8072267364074976

>  <r_i_glide_gscore_strain>  (1) 
0

>  <r_i_glide_hbond>  (1) 
-0.060902929953494354

>  <r_i_glide_ligand_efficiency>  (1) 
-0.64524741515638862

>  <r_i_glide_ligand_efficiency_ln>  (1) 
-1.8163336969109038

>  <r_i_glide_ligand_efficiency_sa>  (1) 
-1.3421687101328601

>  <r_i_glide_lipo>  (1) 
-1.6054200822697611

>  <r_i_glide_metal>  (1) 
-0

>  <r_i_glide_rewards>  (1) 
-3.1166666666666667

>  <r_lp_Energy>  (1) 
10.457737999999999

>  <r_lp_tautomer_probability>  (1) 
1

>  <s_epik_Chemistry_Notes>  (1) 
This compound contains an acetal/aminal-like group ( X-CH(R)-Y where X, Y are N, S, or O) that may be acid/base labile, releasing an aldehyde.

>  <s_epik_cmdline>  (1) 
J2VwaWtfcHl0aG9uJywgJy1waHQnLCAnMS4wJywgJy1waCcsICc3LjQnLCAnLXRuJywgJzgnLCAnLW1hJywgJzUwMCcsICctaW1hZScsICc8aW5maWxlLm1hZT4nLCAnLW9tYWUnLCAnPG91dGZpbGUubWFlPic=

>  <s_epik_input>  (1) 
TzFbQ0gyXVtOSF1jKGMxMilbY0hdW2NIXVtjSF1bY0hdMg==

>  <s_glide_docking_method>  (1) 
confgen

>  <s_i_glide_gridfile>  (1) 
gpcr_drd2_6luq_protein_autoprepared_prepared

>  <s_lp_Force_Field>  (1) 
S-OPLS

>  <s_lp_Variant>  (1) 
Pocket2Mol_43-1

>  <s_m_source_file>  (1) 
generated_generic_title2_ligand_Pocket2Mol_2026-06-23_prepared.sdf

>  <GenAI_Model>  (1) 
Pocket2Mol

>  <Protein>  (1) 
generic_title2

$$$$
Pocket2Mol_46
     RDKit          3D

  0  0  0  0  0  0  0  0  0  0999 V3000
M  V30 BEGIN CTAB
M  V30 COUNTS 18 19 0 0 1
M  V30 BEGIN ATOM
M  V30 1 C 12.339144 6.729926 -2.415829 0
M  V30 2 O 11.390523 6.390279 -3.413662 0
M  V30 3 C 11.375440 7.237165 -4.496000 0
M  V30 4 C 10.853216 6.790293 -5.723119 0
M  V30 5 C 12.175380 8.204591 -2.043837 0
M  V30 6 C 11.886461 8.560283 -4.385018 0
M  V30 7 O 12.399715 9.019268 -3.189380 0
M  V30 8 C 10.851091 7.640558 -6.842261 0
M  V30 9 C 11.880943 9.405629 -5.510661 0
M  V30 10 C 11.370032 8.943825 -6.738101 0
M  V30 11 H 12.182938 6.081419 -1.555642 0
M  V30 12 H 13.347396 6.540760 -2.785025 0
M  V30 13 H 10.459531 5.790947 -5.807942 0
M  V30 14 H 11.185430 8.386997 -1.627703 0
M  V30 15 H 12.893743 8.481737 -1.272513 0
M  V30 16 H 10.453294 7.290538 -7.783854 0
M  V30 17 H 12.274220 10.405576 -5.434768 0
M  V30 18 H 11.375321 9.590198 -7.600393 0
M  V30 END ATOM
M  V30 BEGIN BOND
M  V30 1 1 2 1
M  V30 2 1 3 2
M  V30 3 2 4 3
M  V30 4 1 5 1
M  V30 5 1 6 3
M  V30 6 1 7 5
M  V30 7 1 7 6
M  V30 8 1 8 4
M  V30 9 2 9 6
M  V30 10 2 10 8
M  V30 11 1 10 9
M  V30 12 1 11 1
M  V30 13 1 12 1
M  V30 14 1 13 4
M  V30 15 1 14 5
M  V30 16 1 15 5
M  V30 17 1 16 8
M  V30 18 1 17 9
M  V30 19 1 18 10
M  V30 END BOND
M  V30 END CTAB
M  END
>  <i_epik_Tot_Q>  (1) 
0

>  <i_epik_Tot_abs_Q>  (1) 
0

>  <i_i_glide_confnum>  (1) 
2

>  <i_i_glide_lignum>  (1) 
52

>  <i_i_glide_posenum>  (1) 
17

>  <i_i_glide_rotatable_bonds>  (1) 
0

>  <i_lp_mmshare_version>  (1) 
72125

>  <i_m_source_file_index>  (1) 
47

>  <i_f3d_flags>  (1) 
0

>  <num_sample>  (1) 
100

>  <b_lp_Chiralities_Consistent>  (1) 
1

>  <r_epik_Charging_Adjusted_Penalty>  (1) 
0

>  <r_epik_Ionization_Penalty>  (1) 
0

>  <r_epik_Ionization_Penalty_Charging>  (1) 
0

>  <r_epik_Ionization_Penalty_Neutral>  (1) 
0

>  <r_epik_State_Penalty>  (1) 
-0

>  <r_glide_ring_energy>  (1) 
0.0030885007139812575

>  <r_i_docking_score>  (1) 
-5.8069747232150677

>  <r_i_glide_ecoul>  (1) 
0.096345933444551363

>  <r_i_glide_eff_state_penalty>  (1) 
-0

>  <r_i_glide_einternal>  (1) 
0

>  <r_i_glide_emodel>  (1) 
-28.548319894188218

>  <r_i_glide_emodel_strain>  (1) 
0

>  <r_i_glide_energy>  (1) 
-20.689475351229916

>  <r_i_glide_erotb>  (1) 
0

>  <r_i_glide_esite>  (1) 
0

>  <r_i_glide_evdw>  (1) 
-20.785821284674469

>  <r_i_glide_gscore>  (1) 
-5.8069747232150677

>  <r_i_glide_gscore_strain>  (1) 
0

>  <r_i_glide_hbond>  (1) 
0

>  <r_i_glide_ligand_efficiency>  (1) 
-0.58069747232150681

>  <r_i_glide_ligand_efficiency_ln>  (1) 
-1.7583119161815755

>  <r_i_glide_ligand_efficiency_sa>  (1) 
-1.2510747787832839

>  <r_i_glide_lipo>  (1) 
-2.096431327996489

>  <r_i_glide_metal>  (1) 
-0

>  <r_i_glide_rewards>  (1) 
-2.6857042210015378

>  <r_lp_Energy>  (1) 
16.729797999999999

>  <r_lp_tautomer_probability>  (1) 
1

>  <s_epik_cmdline>  (1) 
J2VwaWtfcHl0aG9uJywgJy1waHQnLCAnMS4wJywgJy1waCcsICc3LjQnLCAnLXRuJywgJzgnLCAnLW1hJywgJzUwMCcsICctaW1hZScsICc8aW5maWxlLm1hZT4nLCAnLW9tYWUnLCAnPG91dGZpbGUubWFlPic=

>  <s_epik_input>  (1) 
TzFbQ0gyXVtDSDJdT2MoYzEyKVtjSF1bY0hdW2NIXVtjSF0y

>  <s_glide_docking_method>  (1) 
confgen

>  <s_i_glide_gridfile>  (1) 
gpcr_drd2_6luq_protein_autoprepared_prepared

>  <s_lp_Force_Field>  (1) 
S-OPLS

>  <s_lp_Variant>  (1) 
Pocket2Mol_46-1

>  <s_m_source_file>  (1) 
generated_generic_title2_ligand_Pocket2Mol_2026-06-23_prepared.sdf

>  <GenAI_Model>  (1) 
Pocket2Mol

>  <Protein>  (1) 
generic_title2

$$$$
Pocket2Mol_81
     RDKit          3D

  0  0  0  0  0  0  0  0  0  0999 V3000
M  V30 BEGIN CTAB
M  V30 COUNTS 20 21 0 0 1
M  V30 BEGIN ATOM
M  V30 1 C 9.565333 6.571541 -7.945522 0
M  V30 2 O 10.369685 6.005204 -6.921268 0
M  V30 3 C 10.846999 6.900761 -5.990749 0
M  V30 4 C 10.297696 7.786667 -8.520475 0
M  V30 5 O 10.461433 8.762176 -7.501321 0
M  V30 6 C 10.891925 8.286823 -6.282284 0
M  V30 7 C 11.374446 9.187020 -5.316541 0
M  V30 8 O 11.409403 10.514558 -5.594718 0
M  V30 9 C 11.293190 6.436572 -4.739001 0
M  V30 10 C 11.815061 8.714518 -4.063695 0
M  V30 11 O 12.273667 9.590221 -3.125511 0
M  V30 12 C 11.775410 7.339529 -3.778310 0
M  V30 13 H 8.586206 6.847541 -7.548743 0
M  V30 14 H 9.400078 5.826019 -8.723135 0
M  V30 15 H 9.727309 8.224402 -9.339906 0
M  V30 16 H 11.273723 7.502760 -8.916559 0
M  V30 17 H 11.060390 10.682611 -6.457241 0
M  V30 18 H 11.259005 5.390919 -4.512554 0
M  V30 19 H 12.601329 9.198319 -2.330535 0
M  V30 20 H 12.112070 6.976432 -2.818528 0
M  V30 END ATOM
M  V30 BEGIN BOND
M  V30 1 1 2 1
M  V30 2 1 3 2
M  V30 3 1 4 1
M  V30 4 1 5 4
M  V30 5 2 6 3
M  V30 6 1 6 5
M  V30 7 1 7 6
M  V30 8 1 8 7
M  V30 9 1 9 3
M  V30 10 2 10 7
M  V30 11 1 11 10
M  V30 12 2 12 9
M  V30 13 1 12 10
M  V30 14 1 13 1
M  V30 15 1 14 1
M  V30 16 1 15 4
M  V30 17 1 16 4
M  V30 18 1 17 8
M  V30 19 1 18 9
M  V30 20 1 19 11
M  V30 21 1 20 12
M  V30 END BOND
M  V30 END CTAB
M  END
>  <i_epik_Tot_Q>  (1) 
0

>  <i_epik_Tot_abs_Q>  (1) 
0

>  <i_i_glide_confnum>  (1) 
2

>  <i_i_glide_lignum>  (1) 
88

>  <i_i_glide_posenum>  (1) 
387

>  <i_i_glide_rotatable_bonds>  (1) 
2

>  <i_lp_mmshare_version>  (1) 
72125

>  <i_m_source_file_index>  (1) 
82

>  <i_f3d_flags>  (1) 
0

>  <num_sample>  (1) 
100

>  <b_lp_Chiralities_Consistent>  (1) 
1

>  <r_epik_Charging_Adjusted_Penalty>  (1) 
0.0036846811785224438

>  <r_epik_Ionization_Penalty>  (1) 
0.0053862680964110767

>  <r_epik_Ionization_Penalty_Charging>  (1) 
0

>  <r_epik_Ionization_Penalty_Neutral>  (1) 
0.0053862680964110767

>  <r_epik_State_Penalty>  (1) 
0.0036846811785224438

>  <r_glide_ring_energy>  (1) 
0.0030853077569594689

>  <r_i_docking_score>  (1) 
-5.8048965790995171

>  <r_i_glide_ecoul>  (1) 
-2.0412060602138258

>  <r_i_glide_eff_state_penalty>  (1) 
0.0036846811785224438

>  <r_i_glide_einternal>  (1) 
0.0059327467163168279

>  <r_i_glide_emodel>  (1) 
-31.448154321798761

>  <r_i_glide_emodel_strain>  (1) 
0

>  <r_i_glide_energy>  (1) 
-21.079245177916292

>  <r_i_glide_erotb>  (1) 
0

>  <r_i_glide_esite>  (1) 
0

>  <r_i_glide_evdw>  (1) 
-19.038039117702468

>  <r_i_glide_gscore>  (1) 
-5.8085812602780393

>  <r_i_glide_gscore_strain>  (1) 
0

>  <r_i_glide_hbond>  (1) 
0

>  <r_i_glide_ligand_efficiency>  (1) 
-0.48374138159162644

>  <r_i_glide_ligand_efficiency_ln>  (1) 
-1.6657251290942472

>  <r_i_glide_ligand_efficiency_sa>  (1) 
-1.1074912984407219

>  <r_i_glide_lipo>  (1) 
-1.6921650620275088

>  <r_i_glide_metal>  (1) 
-0

>  <r_i_glide_rewards>  (1) 
-2.8583333333333334

>  <r_lp_Energy>  (1) 
18.638769

>  <r_lp_tautomer_probability>  (1) 
0.99999998461580031

>  <s_epik_cmdline>  (1) 
J2VwaWtfcHl0aG9uJywgJy1waHQnLCAnMS4wJywgJy1waCcsICc3LjQnLCAnLXRuJywgJzgnLCAnLW1hJywgJzUwMCcsICctaW1hZScsICc8aW5maWxlLm1hZT4nLCAnLW9tYWUnLCAnPG91dGZpbGUubWFlPic=

>  <s_epik_input>  (1) 
TzFbQ0gyXVtDSDJdT2MoYzEyKWMoW09IXSljKFtPSF0pW2NIXVtjSF0y

>  <s_glide_docking_method>  (1) 
confgen

>  <s_i_glide_gridfile>  (1) 
gpcr_drd2_6luq_protein_autoprepared_prepared

>  <s_lp_Force_Field>  (1) 
S-OPLS

>  <s_lp_Variant>  (1) 
Pocket2Mol_81-1

>  <s_m_source_file>  (1) 
generated_generic_title2_ligand_Pocket2Mol_2026-06-23_prepared.sdf

>  <GenAI_Model>  (1) 
Pocket2Mol

>  <Protein>  (1) 
generic_title2

$$$$
Pocket2Mol_60
     RDKit          3D

  0  0  0  0  0  0  0  0  0  0999 V3000
M  V30 BEGIN CTAB
M  V30 COUNTS 19 20 0 0 1
M  V30 BEGIN ATOM
M  V30 1 C 9.491679 7.025843 -7.151350 0
M  V30 2 O 10.263465 6.390215 -6.143024 0
M  V30 3 C 10.975417 7.239167 -5.327922 0
M  V30 4 C 10.387455 8.028575 -7.879615 0
M  V30 5 O 10.820804 9.024872 -6.961070 0
M  V30 6 C 11.251249 8.568884 -5.738486 0
M  V30 7 C 11.434031 6.785180 -4.076432 0
M  V30 8 C 12.154164 7.651504 -3.228839 0
M  V30 9 C 11.969706 9.430293 -4.887638 0
M  V30 10 O 12.575429 7.214327 -2.010918 0
M  V30 11 C 12.420600 8.972775 -3.633778 0
M  V30 12 H 9.114844 6.272588 -7.843631 0
M  V30 13 H 8.625313 7.520450 -6.708557 0
M  V30 14 H 11.250745 7.530004 -8.322584 0
M  V30 15 H 9.837807 8.508997 -8.689390 0
M  V30 16 H 11.225097 5.773905 -3.761673 0
M  V30 17 H 12.175322 10.441891 -5.197974 0
M  V30 18 H 12.975351 7.898406 -1.496644 0
M  V30 19 H 12.969406 9.636992 -2.982916 0
M  V30 END ATOM
M  V30 BEGIN BOND
M  V30 1 1 2 1
M  V30 2 1 3 2
M  V30 3 1 4 1
M  V30 4 1 5 4
M  V30 5 2 6 3
M  V30 6 1 6 5
M  V30 7 1 7 3
M  V30 8 2 8 7
M  V30 9 1 9 6
M  V30 10 1 10 8
M  V30 11 1 11 8
M  V30 12 2 11 9
M  V30 13 1 12 1
M  V30 14 1 13 1
M  V30 15 1 14 4
M  V30 16 1 15 4
M  V30 17 1 16 7
M  V30 18 1 17 9
M  V30 19 1 18 10
M  V30 20 1 19 11
M  V30 END BOND
M  V30 END CTAB
M  END
>  <i_epik_Tot_Q>  (1) 
0

>  <i_epik_Tot_abs_Q>  (1) 
0

>  <i_i_glide_confnum>  (1) 
2

>  <i_i_glide_lignum>  (1) 
67

>  <i_i_glide_posenum>  (1) 
36

>  <i_i_glide_rotatable_bonds>  (1) 
1

>  <i_lp_mmshare_version>  (1) 
72125

>  <i_m_source_file_index>  (1) 
61

>  <i_f3d_flags>  (1) 
0

>  <num_sample>  (1) 
100

>  <b_lp_Chiralities_Consistent>  (1) 
1

>  <r_epik_Charging_Adjusted_Penalty>  (1) 
0

>  <r_epik_Ionization_Penalty>  (1) 
0.0014130578134093086

>  <r_epik_Ionization_Penalty_Charging>  (1) 
0

>  <r_epik_Ionization_Penalty_Neutral>  (1) 
0.0014130578134093086

>  <r_epik_State_Penalty>  (1) 
-0

>  <r_glide_ring_energy>  (1) 
0.0030884842251178704

>  <r_i_docking_score>  (1) 
-5.7955443612990072

>  <r_i_glide_ecoul>  (1) 
-0.8325687204048331

>  <r_i_glide_eff_state_penalty>  (1) 
-0

>  <r_i_glide_einternal>  (1) 
0.014370604802858775

>  <r_i_glide_emodel>  (1) 
-31.700139283380615

>  <r_i_glide_emodel_strain>  (1) 
0

>  <r_i_glide_energy>  (1) 
-22.75067180336066

>  <r_i_glide_erotb>  (1) 
0

>  <r_i_glide_esite>  (1) 
0

>  <r_i_glide_evdw>  (1) 
-21.918103082955827

>  <r_i_glide_gscore>  (1) 
-5.7955443612990072

>  <r_i_glide_gscore_strain>  (1) 
0

>  <r_i_glide_hbond>  (1) 
0

>  <r_i_glide_ligand_efficiency>  (1) 
-0.52686766920900063

>  <r_i_glide_ligand_efficiency_ln>  (1) 
-1.7056277183393085

>  <r_i_glide_ligand_efficiency_sa>  (1) 
-1.1717432066854776

>  <r_i_glide_lipo>  (1) 
-1.7896874622890637

>  <r_i_glide_metal>  (1) 
-0

>  <r_i_glide_rewards>  (1) 
-2.7850664368014275

>  <r_lp_Energy>  (1) 
13.915925999999999

>  <r_lp_tautomer_probability>  (1) 
1

>  <s_epik_cmdline>  (1) 
J2VwaWtfcHl0aG9uJywgJy1waHQnLCAnMS4wJywgJy1waCcsICc3LjQnLCAnLXRuJywgJzgnLCAnLW1hJywgJzUwMCcsICctaW1hZScsICc8aW5maWxlLm1hZT4nLCAnLW9tYWUnLCAnPG91dGZpbGUubWFlPic=

>  <s_epik_input>  (1) 
TzFbQ0gyXVtDSDJdT2MoYzEyKVtjSF1bY0hdYyhbY0hdMilbT0hd

>  <s_glide_docking_method>  (1) 
confgen

>  <s_i_glide_gridfile>  (1) 
gpcr_drd2_6luq_protein_autoprepared_prepared

>  <s_lp_Force_Field>  (1) 
S-OPLS

>  <s_lp_Variant>  (1) 
Pocket2Mol_60-1

>  <s_m_source_file>  (1) 
generated_generic_title2_ligand_Pocket2Mol_2026-06-23_prepared.sdf

>  <GenAI_Model>  (1) 
Pocket2Mol

>  <Protein>  (1) 
generic_title2

$$$$
Pocket2Mol_86
     RDKit          3D

  0  0  0  0  0  0  0  0  0  0999 V3000
M  V30 BEGIN CTAB
M  V30 COUNTS 25 26 0 0 1
M  V30 BEGIN ATOM
M  V30 1 C 11.959470 7.554076 -2.413077 0
M  V30 2 O 12.158403 8.830341 -3.134718 0
M  V30 3 C 11.775628 8.504362 -4.390341 0
M  V30 4 C 11.375410 7.228210 -4.570186 0
M  V30 5 C 10.956868 6.756549 -5.825259 0
M  V30 6 C 11.423810 6.390334 -3.367976 0
M  V30 7 C 11.795454 9.416641 -5.455535 0
M  V30 8 C 10.958319 7.643539 -6.937007 0
M  V30 9 N 10.546680 7.195496 -8.225501 0
M  V30 10 C 11.390161 8.987431 -6.739338 0
M  V30 11 C 9.787107 5.949321 -8.256287 0
M  V30 12 C 10.245952 8.233407 -9.207911 0
M  V30 13 H 12.906565 7.256535 -1.962889 0
M  V30 14 H 11.264629 7.719939 -1.588421 0
M  V30 15 H 10.646187 5.732389 -5.936684 0
M  V30 16 H 10.448356 5.992775 -3.083543 0
M  V30 17 H 12.151869 5.590254 -3.479591 0
M  V30 18 H 12.123369 10.431624 -5.298462 0
M  V30 19 H 11.413733 9.678374 -7.561674 0
M  V30 20 H 8.951479 5.978784 -7.554814 0
M  V30 21 H 9.369288 5.776568 -9.248959 0
M  V30 22 H 10.427943 5.099225 -8.023888 0
M  V30 23 H 9.520769 8.946745 -8.814469 0
M  V30 24 H 11.148753 8.762536 -9.515067 0
M  V30 25 H 9.811046 7.796384 -10.107393 0
M  V30 END ATOM
M  V30 BEGIN BOND
M  V30 1 1 2 1
M  V30 2 1 3 2
M  V30 3 2 4 3
M  V30 4 1 5 4
M  V30 5 1 6 1
M  V30 6 1 6 4
M  V30 7 1 7 3
M  V30 8 2 8 5
M  V30 9 1 9 8
M  V30 10 2 10 7
M  V30 11 1 10 8
M  V30 12 1 11 9
M  V30 13 1 12 9
M  V30 14 1 13 1
M  V30 15 1 14 1
M  V30 16 1 15 5
M  V30 17 1 16 6
M  V30 18 1 17 6
M  V30 19 1 18 7
M  V30 20 1 19 10
M  V30 21 1 20 11
M  V30 22 1 21 11
M  V30 23 1 22 11
M  V30 24 1 23 12
M  V30 25 1 24 12
M  V30 26 1 25 12
M  V30 END BOND
M  V30 END CTAB
M  END
>  <i_epik_Tot_Q>  (1) 
0

>  <i_epik_Tot_abs_Q>  (1) 
0

>  <i_i_glide_confnum>  (1) 
1

>  <i_i_glide_lignum>  (1) 
93

>  <i_i_glide_posenum>  (1) 
130

>  <i_i_glide_rotatable_bonds>  (1) 
1

>  <i_lp_mmshare_version>  (1) 
72125

>  <i_m_source_file_index>  (1) 
87

>  <i_f3d_flags>  (1) 
0

>  <num_sample>  (1) 
100

>  <b_lp_Chiralities_Consistent>  (1) 
1

>  <r_epik_Charging_Adjusted_Penalty>  (1) 
0.017477600144237933

>  <r_epik_Ionization_Penalty>  (1) 
0.017477600144237951

>  <r_epik_Ionization_Penalty_Charging>  (1) 
0

>  <r_epik_Ionization_Penalty_Neutral>  (1) 
0.017477600144237951

>  <r_epik_State_Penalty>  (1) 
0.017477600144237933

>  <r_glide_ring_energy>  (1) 
0

>  <r_i_docking_score>  (1) 
-5.793011952746391

>  <r_i_glide_ecoul>  (1) 
-0.67339671338155938

>  <r_i_glide_eff_state_penalty>  (1) 
0.017477600144237933

>  <r_i_glide_einternal>  (1) 
0.00029041888382708159

>  <r_i_glide_emodel>  (1) 
-32.96148946750408

>  <r_i_glide_emodel_strain>  (1) 
0

>  <r_i_glide_energy>  (1) 
-23.840251167608944

>  <r_i_glide_erotb>  (1) 
0

>  <r_i_glide_esite>  (1) 
-0.018802244646581388

>  <r_i_glide_evdw>  (1) 
-23.166854454227384

>  <r_i_glide_gscore>  (1) 
-5.8104895528906289

>  <r_i_glide_gscore_strain>  (1) 
0

>  <r_i_glide_hbond>  (1) 
0

>  <r_i_glide_ligand_efficiency>  (1) 
-0.48275099606219923

>  <r_i_glide_ligand_efficiency_ln>  (1) 
-1.6623148149746856

>  <r_i_glide_ligand_efficiency_sa>  (1) 
-1.1052238815984139

>  <r_i_glide_lipo>  (1) 
-1.9583399822752479

>  <r_i_glide_metal>  (1) 
-0

>  <r_i_glide_rewards>  (1) 
-2.5739950962501963

>  <r_lp_Energy>  (1) 
28.069341999999999

>  <r_lp_tautomer_probability>  (1) 
1

>  <s_epik_cmdline>  (1) 
J2VwaWtfcHl0aG9uJywgJy1waHQnLCAnMS4wJywgJy1waCcsICc3LjQnLCAnLXRuJywgJzgnLCAnLW1hJywgJzUwMCcsICctaW1hZScsICc8aW5maWxlLm1hZT4nLCAnLW9tYWUnLCAnPG91dGZpbGUubWFlPic=

>  <s_epik_input>  (1) 
TzFbQ0gyXVtDSDJdYyhjMTIpW2NIXWMoTihbQ0gzXSlbQ0gzXSlbY0hdW2NIXTI=

>  <s_glide_docking_method>  (1) 
confgen

>  <s_i_glide_gridfile>  (1) 
gpcr_drd2_6luq_protein_autoprepared_prepared

>  <s_lp_Force_Field>  (1) 
S-OPLS

>  <s_lp_Variant>  (1) 
Pocket2Mol_86-1

>  <s_m_source_file>  (1) 
generated_generic_title2_ligand_Pocket2Mol_2026-06-23_prepared.sdf

>  <GenAI_Model>  (1) 
Pocket2Mol

>  <Protein>  (1) 
generic_title2

$$$$
Pocket2Mol_41
     RDKit          3D

  0  0  0  0  0  0  0  0  0  0999 V3000
M  V30 BEGIN CTAB
M  V30 COUNTS 15 16 0 0 1
M  V30 BEGIN ATOM
M  V30 1 C 12.010482 7.184831 -2.508636 0
M  V30 2 O 11.406459 6.390227 -3.567290 0
M  V30 3 C 11.375410 7.188656 -4.670977 0
M  V30 4 C 11.775410 8.492422 -4.518377 0
M  V30 5 C 11.783513 9.385078 -5.602251 0
M  V30 6 C 10.958537 6.711031 -5.924569 0
M  V30 7 C 10.958469 7.582868 -7.033197 0
M  V30 8 S 12.263217 8.969468 -2.950745 0
M  V30 9 C 11.375410 8.923867 -6.872537 0
M  V30 10 H 11.385602 7.123339 -1.617370 0
M  V30 11 H 12.975410 6.745218 -2.253943 0
M  V30 12 H 12.101940 10.407578 -5.467935 0
M  V30 13 H 10.644812 5.685818 -6.039788 0
M  V30 14 H 10.641605 7.226067 -8.002653 0
M  V30 15 H 11.379385 9.590227 -7.718919 0
M  V30 END ATOM
M  V30 BEGIN BOND
M  V30 1 1 2 1
M  V30 2 1 3 2
M  V30 3 1 4 3
M  V30 4 2 5 4
M  V30 5 2 6 3
M  V30 6 1 7 6
M  V30 7 1 8 1
M  V30 8 1 8 4
M  V30 9 1 9 5
M  V30 10 2 9 7
M  V30 11 1 10 1
M  V30 12 1 11 1
M  V30 13 1 12 5
M  V30 14 1 13 6
M  V30 15 1 14 7
M  V30 16 1 15 9
M  V30 END BOND
M  V30 END CTAB
M  END
>  <i_epik_Tot_Q>  (1) 
0

>  <i_epik_Tot_abs_Q>  (1) 
0

>  <i_i_glide_confnum>  (1) 
1

>  <i_i_glide_lignum>  (1) 
46

>  <i_i_glide_posenum>  (1) 
153

>  <i_i_glide_rotatable_bonds>  (1) 
0

>  <i_lp_mmshare_version>  (1) 
72125

>  <i_m_source_file_index>  (1) 
42

>  <i_f3d_flags>  (1) 
0

>  <num_sample>  (1) 
100

>  <b_lp_Chiralities_Consistent>  (1) 
1

>  <r_epik_Charging_Adjusted_Penalty>  (1) 
0

>  <r_epik_Ionization_Penalty>  (1) 
0

>  <r_epik_Ionization_Penalty_Charging>  (1) 
0

>  <r_epik_Ionization_Penalty_Neutral>  (1) 
0

>  <r_epik_State_Penalty>  (1) 
-0

>  <r_glide_ring_energy>  (1) 
0

>  <r_i_docking_score>  (1) 
-5.791661755467163

>  <r_i_glide_ecoul>  (1) 
0.46400619381150759

>  <r_i_glide_eff_state_penalty>  (1) 
-0

>  <r_i_glide_einternal>  (1) 
0

>  <r_i_glide_emodel>  (1) 
-28.328068707463821

>  <r_i_glide_emodel_strain>  (1) 
0

>  <r_i_glide_energy>  (1) 
-20.28640145664767

>  <r_i_glide_erotb>  (1) 
0

>  <r_i_glide_esite>  (1) 
0

>  <r_i_glide_evdw>  (1) 
-20.750407650459177

>  <r_i_glide_gscore>  (1) 
-5.791661755467163

>  <r_i_glide_gscore_strain>  (1) 
0

>  <r_i_glide_hbond>  (1) 
0

>  <r_i_glide_ligand_efficiency>  (1) 
-0.64351797282968481

>  <r_i_glide_ligand_efficiency_ln>  (1) 
-1.8114654180134286

>  <r_i_glide_ligand_efficiency_sa>  (1) 
-1.3385713251261824

>  <r_i_glide_lipo>  (1) 
-2.063145569554421

>  <r_i_glide_metal>  (1) 
-0

>  <r_i_glide_rewards>  (1) 
-2.7605967324615088

>  <r_lp_Energy>  (1) 
5.8399909999999995

>  <r_lp_tautomer_probability>  (1) 
1

>  <s_epik_Chemistry_Notes>  (1) 
This compound contains an acetal/aminal-like group ( X-CH(R)-Y where X, Y are N, S, or O) that may be acid/base labile, releasing an aldehyde.

>  <s_epik_cmdline>  (1) 
J2VwaWtfcHl0aG9uJywgJy1waHQnLCAnMS4wJywgJy1waCcsICc3LjQnLCAnLXRuJywgJzgnLCAnLW1hJywgJzUwMCcsICctaW1hZScsICc8aW5maWxlLm1hZT4nLCAnLW9tYWUnLCAnPG91dGZpbGUubWFlPic=

>  <s_epik_input>  (1) 
TzFbQ0gyXVNjKGMxMilbY0hdW2NIXVtjSF1bY0hdMg==

>  <s_glide_docking_method>  (1) 
confgen

>  <s_i_glide_gridfile>  (1) 
gpcr_drd2_6luq_protein_autoprepared_prepared

>  <s_lp_Force_Field>  (1) 
S-OPLS

>  <s_lp_Variant>  (1) 
Pocket2Mol_41-1

>  <s_m_source_file>  (1) 
generated_generic_title2_ligand_Pocket2Mol_2026-06-23_prepared.sdf

>  <GenAI_Model>  (1) 
Pocket2Mol

>  <Protein>  (1) 
generic_title2

$$$$
Pocket2Mol_81
     RDKit          3D

  0  0  0  0  0  0  0  0  0  0999 V3000
M  V30 BEGIN CTAB
M  V30 COUNTS 20 21 0 0 1
M  V30 BEGIN ATOM
M  V30 1 C 9.501592 6.570152 -8.083510 0
M  V30 2 O 10.241141 5.990449 -7.023038 0
M  V30 3 C 10.807347 6.892452 -6.151023 0
M  V30 4 C 10.360236 7.651178 -8.743132 0
M  V30 5 O 10.640092 8.672565 -7.795280 0
M  V30 6 C 11.006409 8.242765 -6.537916 0
M  V30 7 C 11.583240 9.150701 -5.626493 0
M  V30 8 O 11.775410 10.447622 -5.985025 0
M  V30 9 C 11.193616 6.470374 -4.865319 0
M  V30 10 C 11.967508 8.715020 -4.342237 0
M  V30 11 O 12.528459 9.590227 -3.465114 0
M  V30 12 C 11.775410 7.376224 -3.965995 0
M  V30 13 H 8.575410 6.991176 -7.693977 0
M  V30 14 H 9.233052 5.796080 -8.802427 0
M  V30 15 H 9.831358 8.091074 -9.589001 0
M  V30 16 H 11.292421 7.230810 -9.123130 0
M  V30 17 H 12.135173 10.932081 -5.257410 0
M  V30 18 H 11.040086 5.453681 -4.567263 0
M  V30 19 H 12.735418 9.218937 -2.620186 0
M  V30 20 H 12.069415 7.042602 -2.981606 0
M  V30 END ATOM
M  V30 BEGIN BOND
M  V30 1 1 2 1
M  V30 2 1 3 2
M  V30 3 1 4 1
M  V30 4 1 5 4
M  V30 5 2 6 3
M  V30 6 1 6 5
M  V30 7 1 7 6
M  V30 8 1 8 7
M  V30 9 1 9 3
M  V30 10 2 10 7
M  V30 11 1 11 10
M  V30 12 2 12 9
M  V30 13 1 12 10
M  V30 14 1 13 1
M  V30 15 1 14 1
M  V30 16 1 15 4
M  V30 17 1 16 4
M  V30 18 1 17 8
M  V30 19 1 18 9
M  V30 20 1 19 11
M  V30 21 1 20 12
M  V30 END BOND
M  V30 END CTAB
M  END
>  <i_epik_Tot_Q>  (1) 
0

>  <i_epik_Tot_abs_Q>  (1) 
0

>  <i_i_glide_confnum>  (1) 
2

>  <i_i_glide_lignum>  (1) 
88

>  <i_i_glide_posenum>  (1) 
354

>  <i_i_glide_rotatable_bonds>  (1) 
2

>  <i_lp_mmshare_version>  (1) 
72125

>  <i_m_source_file_index>  (1) 
82

>  <i_f3d_flags>  (1) 
0

>  <num_sample>  (1) 
100

>  <b_lp_Chiralities_Consistent>  (1) 
1

>  <r_epik_Charging_Adjusted_Penalty>  (1) 
0.0036846811785224438

>  <r_epik_Ionization_Penalty>  (1) 
0.0053862680964110767

>  <r_epik_Ionization_Penalty_Charging>  (1) 
0

>  <r_epik_Ionization_Penalty_Neutral>  (1) 
0.0053862680964110767

>  <r_epik_State_Penalty>  (1) 
0.0036846811785224438

>  <r_glide_ring_energy>  (1) 
0.0030853077569594689

>  <r_i_docking_score>  (1) 
-5.7909100779963563

>  <r_i_glide_ecoul>  (1) 
-1.8641612579366216

>  <r_i_glide_eff_state_penalty>  (1) 
0.0036846811785224438

>  <r_i_glide_einternal>  (1) 
0.012771248195175611

>  <r_i_glide_emodel>  (1) 
-31.899764289006189

>  <r_i_glide_emodel_strain>  (1) 
0

>  <r_i_glide_energy>  (1) 
-21.559248867573785

>  <r_i_glide_erotb>  (1) 
0

>  <r_i_glide_esite>  (1) 
0

>  <r_i_glide_evdw>  (1) 
-19.695087609637163

>  <r_i_glide_gscore>  (1) 
-5.7945947591748785

>  <r_i_glide_gscore_strain>  (1) 
0

>  <r_i_glide_hbond>  (1) 
0

>  <r_i_glide_ligand_efficiency>  (1) 
-0.48257583983302971

>  <r_i_glide_ligand_efficiency_ln>  (1) 
-1.6617116783741219

>  <r_i_glide_ligand_efficiency_sa>  (1) 
-1.1048228739380093

>  <r_i_glide_lipo>  (1) 
-1.6766953913208551

>  <r_i_glide_metal>  (1) 
-0

>  <r_i_glide_rewards>  (1) 
-2.8535207986816724

>  <r_lp_Energy>  (1) 
18.638769

>  <r_lp_tautomer_probability>  (1) 
0.99999998461580031

>  <s_epik_cmdline>  (1) 
J2VwaWtfcHl0aG9uJywgJy1waHQnLCAnMS4wJywgJy1waCcsICc3LjQnLCAnLXRuJywgJzgnLCAnLW1hJywgJzUwMCcsICctaW1hZScsICc8aW5maWxlLm1hZT4nLCAnLW9tYWUnLCAnPG91dGZpbGUubWFlPic=

>  <s_epik_input>  (1) 
TzFbQ0gyXVtDSDJdT2MoYzEyKWMoW09IXSljKFtPSF0pW2NIXVtjSF0y

>  <s_glide_docking_method>  (1) 
confgen

>  <s_i_glide_gridfile>  (1) 
gpcr_drd2_6luq_protein_autoprepared_prepared

>  <s_lp_Force_Field>  (1) 
S-OPLS

>  <s_lp_Variant>  (1) 
Pocket2Mol_81-1

>  <s_m_source_file>  (1) 
generated_generic_title2_ligand_Pocket2Mol_2026-06-23_prepared.sdf

>  <GenAI_Model>  (1) 
Pocket2Mol

>  <Protein>  (1) 
generic_title2

$$$$
Pocket2Mol_54
     RDKit          3D

  0  0  0  0  0  0  0  0  0  0999 V3000
M  V30 BEGIN CTAB
M  V30 COUNTS 18 19 0 0 1
M  V30 BEGIN ATOM
M  V30 1 C 9.918131 7.000371 -7.501178 0
M  V30 2 O 10.376910 6.202104 -6.347912 0
M  V30 3 C 10.975390 7.130195 -5.572603 0
M  V30 4 C 10.975725 8.385586 -6.062048 0
M  V30 5 C 11.568467 9.450509 -5.359246 0
M  V30 6 C 11.567147 6.829132 -4.331610 0
M  V30 7 C 12.174267 7.872042 -3.589682 0
M  V30 8 O 12.744095 7.612146 -2.381519 0
M  V30 9 C 12.175413 9.190224 -4.107847 0
M  V30 10 C 10.315142 8.538895 -7.361571 0
M  V30 11 H 10.346988 6.579300 -8.411553 0
M  V30 12 H 8.835651 6.896592 -7.589222 0
M  V30 13 H 11.558867 10.450645 -5.767538 0
M  V30 14 H 11.556730 5.818554 -3.951064 0
M  V30 15 H 13.057001 8.393790 -1.950969 0
M  V30 16 H 12.634798 9.990221 -3.549747 0
M  V30 17 H 9.442407 9.190224 -7.299432 0
M  V30 18 H 11.002336 8.874020 -8.138509 0
M  V30 END ATOM
M  V30 BEGIN BOND
M  V30 1 1 2 1
M  V30 2 1 3 2
M  V30 3 2 4 3
M  V30 4 1 5 4
M  V30 5 1 6 3
M  V30 6 2 7 6
M  V30 7 1 8 7
M  V30 8 2 9 5
M  V30 9 1 9 7
M  V30 10 1 10 1
M  V30 11 1 10 4
M  V30 12 1 11 1
M  V30 13 1 12 1
M  V30 14 1 13 5
M  V30 15 1 14 6
M  V30 16 1 15 8
M  V30 17 1 16 9
M  V30 18 1 17 10
M  V30 19 1 18 10
M  V30 END BOND
M  V30 END CTAB
M  END
>  <i_epik_Tot_Q>  (1) 
0

>  <i_epik_Tot_abs_Q>  (1) 
0

>  <i_i_glide_confnum>  (1) 
1

>  <i_i_glide_lignum>  (1) 
61

>  <i_i_glide_posenum>  (1) 
340

>  <i_i_glide_rotatable_bonds>  (1) 
1

>  <i_lp_mmshare_version>  (1) 
72125

>  <i_m_source_file_index>  (1) 
55

>  <i_f3d_flags>  (1) 
0

>  <num_sample>  (1) 
100

>  <b_lp_Chiralities_Consistent>  (1) 
1

>  <r_epik_Charging_Adjusted_Penalty>  (1) 
0

>  <r_epik_Ionization_Penalty>  (1) 
0.0019697177408658601

>  <r_epik_Ionization_Penalty_Charging>  (1) 
0

>  <r_epik_Ionization_Penalty_Neutral>  (1) 
0.0019697177408658601

>  <r_epik_State_Penalty>  (1) 
-0

>  <r_glide_ring_energy>  (1) 
0

>  <r_i_docking_score>  (1) 
-5.7876397263485435

>  <r_i_glide_ecoul>  (1) 
-0.61374106338304812

>  <r_i_glide_eff_state_penalty>  (1) 
-0

>  <r_i_glide_einternal>  (1) 
0.0050236809451494335

>  <r_i_glide_emodel>  (1) 
-28.867450998220217

>  <r_i_glide_emodel_strain>  (1) 
0

>  <r_i_glide_energy>  (1) 
-20.624241842238842

>  <r_i_glide_erotb>  (1) 
0

>  <r_i_glide_esite>  (1) 
0

>  <r_i_glide_evdw>  (1) 
-20.010500778855793

>  <r_i_glide_gscore>  (1) 
-5.7876397263485435

>  <r_i_glide_gscore_strain>  (1) 
0

>  <r_i_glide_hbond>  (1) 
0

>  <r_i_glide_ligand_efficiency>  (1) 
-0.57876397263485435

>  <r_i_glide_ligand_efficiency_ln>  (1) 
-1.7524574124149532

>  <r_i_glide_ligand_efficiency_sa>  (1) 
-1.2469091799851941

>  <r_i_glide_lipo>  (1) 
-1.8966142482311004

>  <r_i_glide_metal>  (1) 
-0

>  <r_i_glide_rewards>  (1) 
-2.7984392796671962

>  <r_lp_Energy>  (1) 
8.5284040000000001

>  <r_lp_tautomer_probability>  (1) 
1

>  <s_epik_cmdline>  (1) 
J2VwaWtfcHl0aG9uJywgJy1waHQnLCAnMS4wJywgJy1waCcsICc3LjQnLCAnLXRuJywgJzgnLCAnLW1hJywgJzUwMCcsICctaW1hZScsICc8aW5maWxlLm1hZT4nLCAnLW9tYWUnLCAnPG91dGZpbGUubWFlPic=

>  <s_epik_input>  (1) 
TzFbQ0gyXVtDSDJdYyhjMTIpW2NIXVtjSF1jKFtjSF0yKVtPSF0=

>  <s_glide_docking_method>  (1) 
confgen

>  <s_i_glide_gridfile>  (1) 
gpcr_drd2_6luq_protein_autoprepared_prepared

>  <s_lp_Force_Field>  (1) 
S-OPLS

>  <s_lp_Variant>  (1) 
Pocket2Mol_54-1

>  <s_m_source_file>  (1) 
generated_generic_title2_ligand_Pocket2Mol_2026-06-23_prepared.sdf

>  <GenAI_Model>  (1) 
Pocket2Mol

>  <Protein>  (1) 
generic_title2

$$$$
Pocket2Mol_43
     RDKit          3D

  0  0  0  0  0  0  0  0  0  0999 V3000
M  V30 BEGIN CTAB
M  V30 COUNTS 16 17 0 0 1
M  V30 BEGIN ATOM
M  V30 1 C 11.073596 9.145022 -6.519453 0
M  V30 2 O 11.654613 9.863070 -5.333014 0
M  V30 3 C 11.776761 8.862233 -4.385025 0
M  V30 4 C 11.375410 7.674148 -4.812433 0
M  V30 5 C 11.375410 6.534838 -4.005180 0
M  V30 6 C 12.252155 9.047058 -3.078403 0
M  V30 7 C 12.292345 7.928878 -2.208223 0
M  V30 8 C 11.846238 6.659680 -2.675034 0
M  V30 9 N 10.974757 7.750995 -6.069979 0
M  V30 10 H 10.078187 9.512642 -6.765710 0
M  V30 11 H 11.740018 9.200329 -7.381059 0
M  V30 12 H 11.029649 5.590227 -4.385027 0
M  V30 13 H 12.575408 10.014715 -2.741022 0
M  V30 14 H 12.653197 8.041120 -1.196493 0
M  V30 15 H 11.865123 5.800049 -2.020737 0
M  V30 16 H 10.135686 7.243392 -6.319871 0
M  V30 END ATOM
M  V30 BEGIN BOND
M  V30 1 1 2 1
M  V30 2 1 3 2
M  V30 3 1 4 3
M  V30 4 2 5 4
M  V30 5 2 6 3
M  V30 6 1 7 6
M  V30 7 1 8 5
M  V30 8 2 8 7
M  V30 9 1 9 1
M  V30 10 1 9 4
M  V30 11 1 10 1
M  V30 12 1 11 1
M  V30 13 1 12 5
M  V30 14 1 13 6
M  V30 15 1 14 7
M  V30 16 1 15 8
M  V30 17 1 16 9
M  V30 END BOND
M  V30 END CTAB
M  END
>  <i_epik_Tot_Q>  (1) 
0

>  <i_epik_Tot_abs_Q>  (1) 
0

>  <i_i_glide_confnum>  (1) 
1

>  <i_i_glide_lignum>  (1) 
48

>  <i_i_glide_posenum>  (1) 
32

>  <i_i_glide_rotatable_bonds>  (1) 
0

>  <i_lp_mmshare_version>  (1) 
72125

>  <i_m_source_file_index>  (1) 
44

>  <i_f3d_flags>  (1) 
0

>  <num_sample>  (1) 
100

>  <b_lp_Chiralities_Consistent>  (1) 
1

>  <r_epik_Charging_Adjusted_Penalty>  (1) 
0

>  <r_epik_Ionization_Penalty>  (1) 
3.929707007381515e-06

>  <r_epik_Ionization_Penalty_Charging>  (1) 
0

>  <r_epik_Ionization_Penalty_Neutral>  (1) 
3.929707007381515e-06

>  <r_epik_State_Penalty>  (1) 
-0

>  <r_glide_ring_energy>  (1) 
0

>  <r_i_docking_score>  (1) 
-5.7853170119611592

>  <r_i_glide_ecoul>  (1) 
-1.7012542473336409

>  <r_i_glide_eff_state_penalty>  (1) 
-0

>  <r_i_glide_einternal>  (1) 
0

>  <r_i_glide_emodel>  (1) 
-27.463860066039292

>  <r_i_glide_emodel_strain>  (1) 
0

>  <r_i_glide_energy>  (1) 
-20.01441279205131

>  <r_i_glide_erotb>  (1) 
0

>  <r_i_glide_esite>  (1) 
0

>  <r_i_glide_evdw>  (1) 
-18.31315854471767

>  <r_i_glide_gscore>  (1) 
-5.7853170119611592

>  <r_i_glide_gscore_strain>  (1) 
0

>  <r_i_glide_hbond>  (1) 
0

>  <r_i_glide_ligand_efficiency>  (1) 
-0.64281300132901764

>  <r_i_glide_ligand_efficiency_ln>  (1) 
-1.8094809645124208

>  <r_i_glide_ligand_efficiency_sa>  (1) 
-1.337104925311932

>  <r_i_glide_lipo>  (1) 
-1.69043324107204

>  <r_i_glide_metal>  (1) 
-0

>  <r_i_glide_rewards>  (1) 
-2.9240377065531895

>  <r_lp_Energy>  (1) 
10.457737999999999

>  <r_lp_tautomer_probability>  (1) 
1

>  <s_epik_Chemistry_Notes>  (1) 
This compound contains an acetal/aminal-like group ( X-CH(R)-Y where X, Y are N, S, or O) that may be acid/base labile, releasing an aldehyde.

>  <s_epik_cmdline>  (1) 
J2VwaWtfcHl0aG9uJywgJy1waHQnLCAnMS4wJywgJy1waCcsICc3LjQnLCAnLXRuJywgJzgnLCAnLW1hJywgJzUwMCcsICctaW1hZScsICc8aW5maWxlLm1hZT4nLCAnLW9tYWUnLCAnPG91dGZpbGUubWFlPic=

>  <s_epik_input>  (1) 
TzFbQ0gyXVtOSF1jKGMxMilbY0hdW2NIXVtjSF1bY0hdMg==

>  <s_glide_docking_method>  (1) 
confgen

>  <s_i_glide_gridfile>  (1) 
gpcr_drd2_6luq_protein_autoprepared_prepared

>  <s_lp_Force_Field>  (1) 
S-OPLS

>  <s_lp_Variant>  (1) 
Pocket2Mol_43-1

>  <s_m_source_file>  (1) 
generated_generic_title2_ligand_Pocket2Mol_2026-06-23_prepared.sdf

>  <GenAI_Model>  (1) 
Pocket2Mol

>  <Protein>  (1) 
generic_title2

$$$$
Pocket2Mol_92
     RDKit          3D

  0  0  0  0  0  0  0  0  0  0999 V3000
M  V30 BEGIN CTAB
M  V30 COUNTS 26 27 0 0 1
M  V30 BEGIN ATOM
M  V30 1 C 11.237350 7.906206 -9.238672 0
M  V30 2 O 10.448210 6.839087 -8.726187 0
M  V30 3 C 12.301051 8.363786 -8.232642 0
M  V30 4 O 11.739573 8.790227 -6.996387 0
M  V30 5 C 9.385568 7.287806 -7.891053 0
M  V30 6 C 11.270996 7.707819 -6.190371 0 CFG=1
M  V30 7 C 11.618388 7.905533 -4.719823 0
M  V30 8 C 9.778295 7.453573 -6.416584 0
M  V30 9 C 11.775410 9.200096 -4.185978 0
M  V30 10 N 11.775410 6.775180 -3.987433 0
M  V30 11 C 12.123042 6.919482 -2.687675 0
M  V30 12 C 12.302530 8.170699 -2.069471 0
M  V30 13 C 12.119777 9.330951 -2.831817 0
M  V30 14 H 10.625036 8.745098 -9.573379 0
M  V30 15 H 11.744588 7.537762 -10.130435 0
M  V30 16 H 12.851036 9.190227 -8.672496 0
M  V30 17 H 13.049118 7.590227 -8.066746 0
M  V30 18 H 8.975410 8.225199 -8.266933 0
M  V30 19 H 8.575410 6.561604 -7.959180 0
M  V30 20 H 9.499609 6.548302 -5.875364 0
M  V30 21 H 9.184338 8.259233 -5.985025 0
M  V30 22 H 11.635886 10.073542 -4.806023 0
M  V30 23 H 12.256732 6.007880 -2.123675 0
M  V30 24 H 12.575410 8.237601 -1.028760 0
M  V30 25 H 12.241596 10.305717 -2.385026 0
M  V30 26 H 11.784281 6.787527 -6.475812 0
M  V30 END ATOM
M  V30 BEGIN BOND
M  V30 1 1 2 1
M  V30 2 1 3 1
M  V30 3 1 4 3
M  V30 4 1 5 2
M  V30 5 1 6 4
M  V30 6 1 7 6
M  V30 7 1 8 5
M  V30 8 1 8 6
M  V30 9 1 9 7
M  V30 10 2 10 7
M  V30 11 1 11 10
M  V30 12 2 12 11
M  V30 13 2 13 9
M  V30 14 1 13 12
M  V30 15 1 14 1
M  V30 16 1 15 1
M  V30 17 1 16 3
M  V30 18 1 17 3
M  V30 19 1 18 5
M  V30 20 1 19 5
M  V30 21 1 20 8
M  V30 22 1 21 8
M  V30 23 1 22 9
M  V30 24 1 23 11
M  V30 25 1 24 12
M  V30 26 1 25 13
M  V30 27 1 6 26 CFG=3
M  V30 END BOND
M  V30 END CTAB
M  END
>  <i_epik_Tot_Q>  (1) 
0

>  <i_epik_Tot_abs_Q>  (1) 
0

>  <i_i_glide_confnum>  (1) 
11

>  <i_i_glide_lignum>  (1) 
100

>  <i_i_glide_posenum>  (1) 
34

>  <i_i_glide_rotatable_bonds>  (1) 
1

>  <i_lp_mmshare_version>  (1) 
72125

>  <i_m_source_file_index>  (1) 
93

>  <i_f3d_flags>  (1) 
0

>  <num_sample>  (1) 
100

>  <b_lp_Chiralities_Consistent>  (1) 
1

>  <r_epik_Charging_Adjusted_Penalty>  (1) 
0.0037896276157117258

>  <r_epik_Ionization_Penalty>  (1) 
0.0037896276174286705

>  <r_epik_Ionization_Penalty_Charging>  (1) 
0

>  <r_epik_Ionization_Penalty_Neutral>  (1) 
0.0037896276174286705

>  <r_epik_State_Penalty>  (1) 
0.0037896276157117258

>  <r_glide_ring_energy>  (1) 
0.42089539863182696

>  <r_i_docking_score>  (1) 
-5.7537565593711912

>  <r_i_glide_ecoul>  (1) 
-0.42374268026582784

>  <r_i_glide_eff_state_penalty>  (1) 
0.0037896276157117258

>  <r_i_glide_einternal>  (1) 
1.3460596373787066

>  <r_i_glide_emodel>  (1) 
-34.999112500757413

>  <r_i_glide_emodel_strain>  (1) 
0.0030185269085620803

>  <r_i_glide_energy>  (1) 
-25.652143899110765

>  <r_i_glide_erotb>  (1) 
0.4895878840251785

>  <r_i_glide_esite>  (1) 
0

>  <r_i_glide_evdw>  (1) 
-25.228401218844937

>  <r_i_glide_gscore>  (1) 
-5.7575461869869029

>  <r_i_glide_gscore_strain>  (1) 
0

>  <r_i_glide_hbond>  (1) 
0

>  <r_i_glide_ligand_efficiency>  (1) 
-0.44259665841316853

>  <r_i_glide_ligand_efficiency_ln>  (1) 
-1.6139798865104271

>  <r_i_glide_ligand_efficiency_sa>  (1) 
-1.0406928755961786

>  <r_i_glide_lipo>  (1) 
-2.163635023258824

>  <r_i_glide_metal>  (1) 
-0

>  <r_i_glide_rewards>  (1) 
-2.7585175847711363

>  <r_lp_Energy>  (1) 
20.645538999999999

>  <s_epik_cmdline>  (1) 
J2VwaWtfcHl0aG9uJywgJy1waHQnLCAnMS4wJywgJy1waCcsICc3LjQnLCAnLXRuJywgJzgnLCAnLW1hJywgJzUwMCcsICctaW1hZScsICc8aW5maWxlLm1hZT4nLCAnLW9tYWUnLCAnPG91dGZpbGUubWFlPic=

>  <s_epik_input>  (1) 
W0NIMl0xW0NIMl1PW0NIMl1bQ0gyXU8vQzE9QzJcW0NIXT1bQ0hdW0NIXT1bQ0hdW05IXTI=

>  <s_glide_docking_method>  (1) 
confgen

>  <s_i_glide_gridfile>  (1) 
gpcr_drd2_6luq_protein_autoprepared_prepared

>  <s_lp_Force_Field>  (1) 
S-OPLS

>  <s_lp_Variant>  (1) 
Pocket2Mol_92-1

>  <s_m_source_file>  (1) 
generated_generic_title2_ligand_Pocket2Mol_2026-06-23_prepared.sdf

>  <GenAI_Model>  (1) 
Pocket2Mol

>  <Protein>  (1) 
generic_title2

$$$$
Pocket2Mol_32
     RDKit          3D

  0  0  0  0  0  0  0  0  0  0999 V3000
M  V30 BEGIN CTAB
M  V30 COUNTS 17 18 0 0 1
M  V30 BEGIN ATOM
M  V30 1 C 10.647408 7.257369 -7.070144 0
M  V30 2 O 10.971367 6.364757 -5.938958 0
M  V30 3 C 11.375406 7.236053 -4.993506 0
M  V30 4 C 11.375411 8.534395 -5.359023 0
M  V30 5 C 11.775298 9.546514 -4.473197 0
M  V30 6 C 10.932824 8.790227 -6.732152 0
M  V30 7 C 11.775399 6.839050 -3.704841 0
M  V30 8 C 12.185290 7.826523 -2.780563 0
M  V30 9 C 12.184368 9.190278 -3.167271 0
M  V30 10 H 11.222970 6.950153 -7.944046 0
M  V30 11 H 9.595275 7.121293 -7.324441 0
M  V30 12 H 11.768118 10.579689 -4.785165 0
M  V30 13 H 10.030337 9.397607 -6.768168 0
M  V30 14 H 11.726001 9.221263 -7.343143 0
M  V30 15 H 11.769483 5.795863 -3.426150 0
M  V30 16 H 12.496391 7.543721 -1.785891 0
M  V30 17 H 12.494253 9.953115 -2.467962 0
M  V30 END ATOM
M  V30 BEGIN BOND
M  V30 1 1 2 1
M  V30 2 1 3 2
M  V30 3 1 4 3
M  V30 4 2 5 4
M  V30 5 1 6 1
M  V30 6 1 6 4
M  V30 7 2 7 3
M  V30 8 1 8 7
M  V30 9 1 9 5
M  V30 10 2 9 8
M  V30 11 1 10 1
M  V30 12 1 11 1
M  V30 13 1 12 5
M  V30 14 1 13 6
M  V30 15 1 14 6
M  V30 16 1 15 7
M  V30 17 1 16 8
M  V30 18 1 17 9
M  V30 END BOND
M  V30 END CTAB
M  END
>  <i_epik_Tot_Q>  (1) 
0

>  <i_epik_Tot_abs_Q>  (1) 
0

>  <i_i_glide_confnum>  (1) 
1

>  <i_i_glide_lignum>  (1) 
36

>  <i_i_glide_posenum>  (1) 
64

>  <i_i_glide_rotatable_bonds>  (1) 
0

>  <i_lp_mmshare_version>  (1) 
72125

>  <i_m_source_file_index>  (1) 
33

>  <i_f3d_flags>  (1) 
0

>  <num_sample>  (1) 
100

>  <b_lp_Chiralities_Consistent>  (1) 
1

>  <r_epik_Charging_Adjusted_Penalty>  (1) 
0

>  <r_epik_Ionization_Penalty>  (1) 
0

>  <r_epik_Ionization_Penalty_Charging>  (1) 
0

>  <r_epik_Ionization_Penalty_Neutral>  (1) 
0

>  <r_epik_State_Penalty>  (1) 
-0

>  <r_glide_ring_energy>  (1) 
0

>  <r_i_docking_score>  (1) 
-5.7504588014244291

>  <r_i_glide_ecoul>  (1) 
-0.28784078996914558

>  <r_i_glide_eff_state_penalty>  (1) 
-0

>  <r_i_glide_einternal>  (1) 
0

>  <r_i_glide_emodel>  (1) 
-26.661341958685764

>  <r_i_glide_emodel_strain>  (1) 
0

>  <r_i_glide_energy>  (1) 
-19.235495591466115

>  <r_i_glide_erotb>  (1) 
0

>  <r_i_glide_esite>  (1) 
0

>  <r_i_glide_evdw>  (1) 
-18.94765480149697

>  <r_i_glide_gscore>  (1) 
-5.7504588014244291

>  <r_i_glide_gscore_strain>  (1) 
0

>  <r_i_glide_hbond>  (1) 
0

>  <r_i_glide_ligand_efficiency>  (1) 
-0.63893986682493653

>  <r_i_glide_ligand_efficiency_ln>  (1) 
-1.7985783176405603

>  <r_i_glide_ligand_efficiency_sa>  (1) 
-1.3290484808854888

>  <r_i_glide_lipo>  (1) 
-2.0957852130043406

>  <r_i_glide_metal>  (1) 
-0

>  <r_i_glide_rewards>  (1) 
-2.6641147298498682

>  <r_lp_Energy>  (1) 
11.954839999999999

>  <r_lp_tautomer_probability>  (1) 
1

>  <s_epik_cmdline>  (1) 
J2VwaWtfcHl0aG9uJywgJy1waHQnLCAnMS4wJywgJy1waCcsICc3LjQnLCAnLXRuJywgJzgnLCAnLW1hJywgJzUwMCcsICctaW1hZScsICc8aW5maWxlLm1hZT4nLCAnLW9tYWUnLCAnPG91dGZpbGUubWFlPic=

>  <s_epik_input>  (1) 
TzFbQ0gyXVtDSDJdYyhjMTIpW2NIXVtjSF1bY0hdW2NIXTI=

>  <s_glide_docking_method>  (1) 
confgen

>  <s_i_glide_gridfile>  (1) 
gpcr_drd2_6luq_protein_autoprepared_prepared

>  <s_lp_Force_Field>  (1) 
S-OPLS

>  <s_lp_Variant>  (1) 
Pocket2Mol_32-1

>  <s_m_source_file>  (1) 
generated_generic_title2_ligand_Pocket2Mol_2026-06-23_prepared.sdf

>  <GenAI_Model>  (1) 
Pocket2Mol

>  <Protein>  (1) 
generic_title2

$$$$
Pocket2Mol_92
     RDKit          3D

  0  0  0  0  0  0  0  0  0  0999 V3000
M  V30 BEGIN CTAB
M  V30 COUNTS 26 27 0 0 1
M  V30 BEGIN ATOM
M  V30 1 C 9.882270 6.176705 -8.675079 0
M  V30 2 O 10.592219 7.190226 -9.385750 0
M  V30 3 C 9.097509 6.630888 -7.438963 0
M  V30 4 O 9.946885 6.672182 -6.309216 0
M  V30 5 C 11.032957 8.342184 -8.677278 0
M  V30 6 C 10.700241 7.866957 -6.166360 0 CFG=1
M  V30 7 C 11.375410 7.902174 -4.801151 0
M  V30 8 C 11.703864 8.047064 -7.325117 0
M  V30 9 C 11.577512 6.711512 -4.069130 0
M  V30 10 N 11.745489 9.126469 -4.349501 0
M  V30 11 C 12.307923 9.182232 -3.118862 0
M  V30 12 C 12.544815 8.050278 -2.317006 0
M  V30 13 C 12.175400 6.790232 -2.803650 0
M  V30 14 H 10.575329 5.387194 -8.385026 0
M  V30 15 H 9.193719 5.723798 -9.388845 0
M  V30 16 H 8.331518 5.885695 -7.223178 0
M  V30 17 H 8.575412 7.573829 -7.591315 0
M  V30 18 H 11.743401 8.854782 -9.326536 0
M  V30 19 H 10.196782 9.029555 -8.553605 0
M  V30 20 H 12.338420 8.902097 -7.089359 0
M  V30 21 H 12.370174 7.190215 -7.406250 0
M  V30 22 H 11.268990 5.757429 -4.471112 0
M  V30 23 H 12.575420 10.159701 -2.762964 0
M  V30 24 H 12.998888 8.153197 -1.343258 0
M  V30 25 H 12.340617 5.900026 -2.214449 0
M  V30 26 H 9.999898 8.705007 -6.171043 0
M  V30 END ATOM
M  V30 BEGIN BOND
M  V30 1 1 2 1
M  V30 2 1 3 1
M  V30 3 1 4 3
M  V30 4 1 5 2
M  V30 5 1 6 4
M  V30 6 1 7 6
M  V30 7 1 8 5
M  V30 8 1 8 6
M  V30 9 1 9 7
M  V30 10 2 10 7
M  V30 11 1 11 10
M  V30 12 2 12 11
M  V30 13 2 13 9
M  V30 14 1 13 12
M  V30 15 1 14 1
M  V30 16 1 15 1
M  V30 17 1 16 3
M  V30 18 1 17 3
M  V30 19 1 18 5
M  V30 20 1 19 5
M  V30 21 1 20 8
M  V30 22 1 21 8
M  V30 23 1 22 9
M  V30 24 1 23 11
M  V30 25 1 24 12
M  V30 26 1 25 13
M  V30 27 1 6 26 CFG=1
M  V30 END BOND
M  V30 END CTAB
M  END
>  <i_epik_Tot_Q>  (1) 
0

>  <i_epik_Tot_abs_Q>  (1) 
0

>  <i_i_glide_confnum>  (1) 
2

>  <i_i_glide_lignum>  (1) 
100

>  <i_i_glide_posenum>  (1) 
359

>  <i_i_glide_rotatable_bonds>  (1) 
1

>  <i_lp_mmshare_version>  (1) 
72125

>  <i_m_source_file_index>  (1) 
93

>  <i_f3d_flags>  (1) 
0

>  <num_sample>  (1) 
100

>  <b_lp_Chiralities_Consistent>  (1) 
1

>  <r_epik_Charging_Adjusted_Penalty>  (1) 
0.0037896276157117258

>  <r_epik_Ionization_Penalty>  (1) 
0.0037896276174286705

>  <r_epik_Ionization_Penalty_Charging>  (1) 
0

>  <r_epik_Ionization_Penalty_Neutral>  (1) 
0.0037896276174286705

>  <r_epik_State_Penalty>  (1) 
0.0037896276157117258

>  <r_glide_ring_energy>  (1) 
0

>  <r_i_docking_score>  (1) 
-5.7493318587668005

>  <r_i_glide_ecoul>  (1) 
-1.3609869970291442

>  <r_i_glide_eff_state_penalty>  (1) 
0.0037896276157117258

>  <r_i_glide_einternal>  (1) 
1.1845600385413362

>  <r_i_glide_emodel>  (1) 
-36.55243815624771

>  <r_i_glide_emodel_strain>  (1) 
0.026566055579237968

>  <r_i_glide_energy>  (1) 
-27.155970018265251

>  <r_i_glide_erotb>  (1) 
0.4895878840251785

>  <r_i_glide_esite>  (1) 
0

>  <r_i_glide_evdw>  (1) 
-25.794983021236106

>  <r_i_glide_gscore>  (1) 
-5.7531214863825122

>  <r_i_glide_gscore_strain>  (1) 
0

>  <r_i_glide_hbond>  (1) 
0

>  <r_i_glide_ligand_efficiency>  (1) 
-0.44225629682821543

>  <r_i_glide_ligand_efficiency_ln>  (1) 
-1.6127387186393802

>  <r_i_glide_ligand_efficiency_sa>  (1) 
-1.0398925715951106

>  <r_i_glide_lipo>  (1) 
-1.9061740736388015

>  <r_i_glide_metal>  (1) 
-0

>  <r_i_glide_rewards>  (1) 
-2.8426380961527129

>  <r_lp_Energy>  (1) 
20.645538999999999

>  <s_epik_cmdline>  (1) 
J2VwaWtfcHl0aG9uJywgJy1waHQnLCAnMS4wJywgJy1waCcsICc3LjQnLCAnLXRuJywgJzgnLCAnLW1hJywgJzUwMCcsICctaW1hZScsICc8aW5maWxlLm1hZT4nLCAnLW9tYWUnLCAnPG91dGZpbGUubWFlPic=

>  <s_epik_input>  (1) 
W0NIMl0xW0NIMl1PW0NIMl1bQ0gyXU8vQzE9QzJcW0NIXT1bQ0hdW0NIXT1bQ0hdW05IXTI=

>  <s_glide_docking_method>  (1) 
confgen

>  <s_i_glide_gridfile>  (1) 
gpcr_drd2_6luq_protein_autoprepared_prepared

>  <s_lp_Force_Field>  (1) 
S-OPLS

>  <s_lp_Variant>  (1) 
Pocket2Mol_92-1

>  <s_m_source_file>  (1) 
generated_generic_title2_ligand_Pocket2Mol_2026-06-23_prepared.sdf

>  <GenAI_Model>  (1) 
Pocket2Mol

>  <Protein>  (1) 
generic_title2

$$$$
Pocket2Mol_59
     RDKit          3D

  0  0  0  0  0  0  0  0  0  0999 V3000
M  V30 BEGIN CTAB
M  V30 COUNTS 17 18 0 0 1
M  V30 BEGIN ATOM
M  V30 1 C 11.510164 9.031032 -5.048966 0
M  V30 2 O 10.575410 7.920131 -5.318099 0
M  V30 3 C 10.677403 7.786947 -6.656175 0
M  V30 4 C 11.508691 8.627850 -7.266560 0
M  V30 5 C 11.711151 8.577929 -8.657414 0
M  V30 6 N 11.031787 7.648286 -9.424576 0 CHG=1
M  V30 7 C 12.175507 9.590229 -6.383467 0
M  V30 8 O 11.207905 7.590229 -10.696183 0 CHG=-1
M  V30 9 C 10.156055 6.780250 -8.785437 0
M  V30 10 C 9.972556 6.841556 -7.384539 0
M  V30 11 H 12.285566 8.670267 -4.372940 0
M  V30 12 H 10.979344 9.826225 -4.523517 0
M  V30 13 H 12.373830 9.224008 -9.209988 0
M  V30 14 H 13.262323 9.497991 -6.400675 0
M  V30 15 H 11.859736 10.611473 -6.600025 0
M  V30 16 H 9.651712 6.083131 -9.438637 0
M  V30 17 H 9.291300 6.164066 -6.890428 0
M  V30 END ATOM
M  V30 BEGIN BOND
M  V30 1 1 2 1
M  V30 2 1 3 2
M  V30 3 2 4 3
M  V30 4 1 5 4
M  V30 5 2 6 5
M  V30 6 1 7 1
M  V30 7 1 7 4
M  V30 8 1 8 6
M  V30 9 1 9 6
M  V30 10 1 10 3
M  V30 11 2 10 9
M  V30 12 1 11 1
M  V30 13 1 12 1
M  V30 14 1 13 5
M  V30 15 1 14 7
M  V30 16 1 15 7
M  V30 17 1 16 9
M  V30 18 1 17 10
M  V30 END BOND
M  V30 END CTAB
M  END
>  <i_epik_Tot_Q>  (1) 
0

>  <i_epik_Tot_abs_Q>  (1) 
2

>  <i_i_glide_confnum>  (1) 
1

>  <i_i_glide_lignum>  (1) 
66

>  <i_i_glide_posenum>  (1) 
94

>  <i_i_glide_rotatable_bonds>  (1) 
0

>  <i_lp_mmshare_version>  (1) 
72125

>  <i_m_source_file_index>  (1) 
60

>  <i_f3d_flags>  (1) 
0

>  <num_sample>  (1) 
100

>  <b_lp_Chiralities_Consistent>  (1) 
1

>  <r_epik_Charging_Adjusted_Penalty>  (1) 
1.5203065777176405e-06

>  <r_epik_Ionization_Penalty>  (1) 
1.5203065777176405e-06

>  <r_epik_Ionization_Penalty_Charging>  (1) 
1.5203065777176405e-06

>  <r_epik_Ionization_Penalty_Neutral>  (1) 
0

>  <r_epik_State_Penalty>  (1) 
-0

>  <r_glide_ring_energy>  (1) 
0

>  <r_i_docking_score>  (1) 
-5.7394933560761254

>  <r_i_glide_ecoul>  (1) 
-2.1771795286214655

>  <r_i_glide_eff_state_penalty>  (1) 
-0

>  <r_i_glide_einternal>  (1) 
0

>  <r_i_glide_emodel>  (1) 
-28.179377643610017

>  <r_i_glide_emodel_strain>  (1) 
0

>  <r_i_glide_energy>  (1) 
-19.799174272389159

>  <r_i_glide_erotb>  (1) 
0

>  <r_i_glide_esite>  (1) 
0

>  <r_i_glide_evdw>  (1) 
-17.621994743767694

>  <r_i_glide_gscore>  (1) 
-5.7394933560761254

>  <r_i_glide_gscore_strain>  (1) 
0

>  <r_i_glide_hbond>  (1) 
0

>  <r_i_glide_ligand_efficiency>  (1) 
-0.57394933560761252

>  <r_i_glide_ligand_efficiency_ln>  (1) 
-1.7378790233903818

>  <r_i_glide_ligand_efficiency_sa>  (1) 
-1.2365363589537925

>  <r_i_glide_lipo>  (1) 
-1.401358934231892

>  <r_i_glide_metal>  (1) 
-0

>  <r_i_glide_rewards>  (1) 
-3.1304577553626283

>  <r_lp_Energy>  (1) 
12.910414999999999

>  <r_lp_tautomer_probability>  (1) 
1

>  <s_epik_cmdline>  (1) 
J2VwaWtfcHl0aG9uJywgJy1waHQnLCAnMS4wJywgJy1waCcsICc3LjQnLCAnLXRuJywgJzgnLCAnLW1hJywgJzUwMCcsICctaW1hZScsICc8aW5maWxlLm1hZT4nLCAnLW9tYWUnLCAnPG91dGZpbGUubWFlPic=

>  <s_epik_input>  (1) 
TzFbQ0gyXVtDSDJdYyhjMTIpW2NIXVtuK10oW08tXSlbY0hdW2NIXTI=

>  <s_glide_docking_method>  (1) 
confgen

>  <s_i_glide_gridfile>  (1) 
gpcr_drd2_6luq_protein_autoprepared_prepared

>  <s_lp_Force_Field>  (1) 
S-OPLS

>  <s_lp_Variant>  (1) 
Pocket2Mol_59-1

>  <s_m_source_file>  (1) 
generated_generic_title2_ligand_Pocket2Mol_2026-06-23_prepared.sdf

>  <GenAI_Model>  (1) 
Pocket2Mol

>  <Protein>  (1) 
generic_title2

$$$$
Pocket2Mol_68
     RDKit          3D

  0  0  0  0  0  0  0  0  0  0999 V3000
M  V30 BEGIN CTAB
M  V30 COUNTS 19 20 0 0 1
M  V30 BEGIN ATOM
M  V30 1 C 9.493911 6.547488 -7.788809 0
M  V30 2 O 10.319891 6.027260 -6.760652 0
M  V30 3 C 10.906066 6.974020 -5.951907 0
M  V30 4 C 10.283517 7.623584 -8.536461 0
M  V30 5 O 10.594464 8.686862 -7.644767 0
M  V30 6 C 11.043169 8.313440 -6.396358 0
M  V30 7 C 11.375532 6.609000 -4.675418 0
M  V30 8 C 11.978003 7.570948 -3.839954 0
M  V30 9 C 11.643443 9.271108 -5.556999 0
M  V30 10 O 11.775413 10.553620 -5.984979 0
M  V30 11 C 12.110730 8.901867 -4.279993 0
M  V30 12 H 8.575411 6.956978 -7.364602 0
M  V30 13 H 9.208996 5.738124 -8.461266 0
M  V30 14 H 9.695247 8.017285 -9.365335 0
M  V30 15 H 11.204341 7.214999 -8.955083 0
M  V30 16 H 11.272903 5.590260 -4.336996 0
M  V30 17 H 12.338268 7.286847 -2.862006 0
M  V30 18 H 11.379390 10.660361 -6.837217 0
M  V30 19 H 12.573118 9.638204 -3.639325 0
M  V30 END ATOM
M  V30 BEGIN BOND
M  V30 1 1 2 1
M  V30 2 1 3 2
M  V30 3 1 4 1
M  V30 4 1 5 4
M  V30 5 1 6 3
M  V30 6 1 6 5
M  V30 7 2 7 3
M  V30 8 1 8 7
M  V30 9 2 9 6
M  V30 10 1 10 9
M  V30 11 2 11 8
M  V30 12 1 11 9
M  V30 13 1 12 1
M  V30 14 1 13 1
M  V30 15 1 14 4
M  V30 16 1 15 4
M  V30 17 1 16 7
M  V30 18 1 17 8
M  V30 19 1 18 10
M  V30 20 1 19 11
M  V30 END BOND
M  V30 END CTAB
M  END
>  <i_epik_Tot_Q>  (1) 
0

>  <i_epik_Tot_abs_Q>  (1) 
0

>  <i_i_glide_confnum>  (1) 
2

>  <i_i_glide_lignum>  (1) 
75

>  <i_i_glide_posenum>  (1) 
10

>  <i_i_glide_rotatable_bonds>  (1) 
1

>  <i_lp_mmshare_version>  (1) 
72125

>  <i_m_source_file_index>  (1) 
69

>  <i_f3d_flags>  (1) 
0

>  <num_sample>  (1) 
100

>  <b_lp_Chiralities_Consistent>  (1) 
1

>  <r_epik_Charging_Adjusted_Penalty>  (1) 
0.0030607566555237334

>  <r_epik_Ionization_Penalty>  (1) 
0.0030607566555237659

>  <r_epik_Ionization_Penalty_Charging>  (1) 
0

>  <r_epik_Ionization_Penalty_Neutral>  (1) 
0.0030607566555237659

>  <r_epik_State_Penalty>  (1) 
0.0030607566555237334

>  <r_glide_ring_energy>  (1) 
0.0030878583902879796

>  <r_i_docking_score>  (1) 
-5.7349253530257869

>  <r_i_glide_ecoul>  (1) 
-0.99969595353794771

>  <r_i_glide_eff_state_penalty>  (1) 
0.0030607566555237334

>  <r_i_glide_einternal>  (1) 
0.0091702462494367143

>  <r_i_glide_emodel>  (1) 
-27.9063089223189

>  <r_i_glide_emodel_strain>  (1) 
0

>  <r_i_glide_energy>  (1) 
-20.436280889515519

>  <r_i_glide_erotb>  (1) 
0

>  <r_i_glide_esite>  (1) 
0

>  <r_i_glide_evdw>  (1) 
-19.436584935977571

>  <r_i_glide_gscore>  (1) 
-5.7379861096813105

>  <r_i_glide_gscore_strain>  (1) 
0

>  <r_i_glide_hbond>  (1) 
0

>  <r_i_glide_ligand_efficiency>  (1) 
-0.5213568502750715

>  <r_i_glide_ligand_efficiency_ln>  (1) 
-1.6877875545301111

>  <r_i_glide_ligand_efficiency_sa>  (1) 
-1.1594872550936868

>  <r_i_glide_lipo>  (1) 
-1.7495358031850734

>  <r_i_glide_metal>  (1) 
-0

>  <r_i_glide_rewards>  (1) 
-2.8666666666666667

>  <r_lp_Energy>  (1) 
16.942557999999998

>  <r_lp_tautomer_probability>  (1) 
0.99999999996300004

>  <s_epik_cmdline>  (1) 
J2VwaWtfcHl0aG9uJywgJy1waHQnLCAnMS4wJywgJy1waCcsICc3LjQnLCAnLXRuJywgJzgnLCAnLW1hJywgJzUwMCcsICctaW1hZScsICc8aW5maWxlLm1hZT4nLCAnLW9tYWUnLCAnPG91dGZpbGUubWFlPic=

>  <s_epik_input>  (1) 
TzFbQ0gyXVtDSDJdT2MoYzEyKWMoW09IXSlbY0hdW2NIXVtjSF0y

>  <s_glide_docking_method>  (1) 
confgen

>  <s_i_glide_gridfile>  (1) 
gpcr_drd2_6luq_protein_autoprepared_prepared

>  <s_lp_Force_Field>  (1) 
S-OPLS

>  <s_lp_Variant>  (1) 
Pocket2Mol_68-1

>  <s_m_source_file>  (1) 
generated_generic_title2_ligand_Pocket2Mol_2026-06-23_prepared.sdf

>  <GenAI_Model>  (1) 
Pocket2Mol

>  <Protein>  (1) 
generic_title2

$$$$
Pocket2Mol_39
     RDKit          3D

  0  0  0  0  0  0  0  0  0  0999 V3000
M  V30 BEGIN CTAB
M  V30 COUNTS 14 15 0 0 1
M  V30 BEGIN ATOM
M  V30 1 C 12.474903 8.414671 -2.063416 0
M  V30 2 O 12.196803 9.451484 -2.936084 0
M  V30 3 C 11.775412 8.882447 -4.110980 0
M  V30 4 C 11.775410 7.487519 -3.985021 0
M  V30 5 C 11.351093 6.737721 -5.128644 0
M  V30 6 C 11.388099 9.532321 -5.268059 0
M  V30 7 C 12.227356 7.190230 -2.659546 0
M  V30 8 N 10.975410 7.391241 -6.274838 0
M  V30 9 C 10.989171 8.741674 -6.338871 0
M  V30 10 H 12.827010 8.705018 -1.084295 0
M  V30 11 H 11.317405 5.658645 -5.125309 0
M  V30 12 H 11.392585 10.609185 -5.335596 0
M  V30 13 H 12.347199 6.207468 -2.224758 0
M  V30 14 H 10.673361 9.188075 -7.269768 0
M  V30 END ATOM
M  V30 BEGIN BOND
M  V30 1 1 2 1
M  V30 2 1 3 2
M  V30 3 2 4 3
M  V30 4 1 5 4
M  V30 5 1 6 3
M  V30 6 2 7 1
M  V30 7 1 7 4
M  V30 8 2 8 5
M  V30 9 2 9 6
M  V30 10 1 9 8
M  V30 11 1 10 1
M  V30 12 1 11 5
M  V30 13 1 12 6
M  V30 14 1 13 7
M  V30 15 1 14 9
M  V30 END BOND
M  V30 END CTAB
M  END
>  <i_epik_Tot_Q>  (1) 
0

>  <i_epik_Tot_abs_Q>  (1) 
0

>  <i_i_glide_confnum>  (1) 
1

>  <i_i_glide_lignum>  (1) 
44

>  <i_i_glide_posenum>  (1) 
12

>  <i_i_glide_rotatable_bonds>  (1) 
0

>  <i_lp_mmshare_version>  (1) 
72125

>  <i_m_source_file_index>  (1) 
40

>  <i_f3d_flags>  (1) 
0

>  <num_sample>  (1) 
100

>  <b_lp_Chiralities_Consistent>  (1) 
1

>  <r_epik_Charging_Adjusted_Penalty>  (1) 
0

>  <r_epik_Ionization_Penalty>  (1) 
0.00075511756769225586

>  <r_epik_Ionization_Penalty_Charging>  (1) 
0

>  <r_epik_Ionization_Penalty_Neutral>  (1) 
0.00075511756769225586

>  <r_epik_State_Penalty>  (1) 
-0

>  <r_glide_ring_energy>  (1) 
0

>  <r_i_docking_score>  (1) 
-5.7287211268105365

>  <r_i_glide_ecoul>  (1) 
-0.21537030141611285

>  <r_i_glide_eff_state_penalty>  (1) 
-0

>  <r_i_glide_einternal>  (1) 
0

>  <r_i_glide_emodel>  (1) 
-28.159549101461501

>  <r_i_glide_emodel_strain>  (1) 
0

>  <r_i_glide_energy>  (1) 
-20.603433512582619

>  <r_i_glide_erotb>  (1) 
0

>  <r_i_glide_esite>  (1) 
0

>  <r_i_glide_evdw>  (1) 
-20.388063211166507

>  <r_i_glide_gscore>  (1) 
-5.7287211268105365

>  <r_i_glide_gscore_strain>  (1) 
0

>  <r_i_glide_hbond>  (1) 
0

>  <r_i_glide_ligand_efficiency>  (1) 
-0.63652456964561521

>  <r_i_glide_ligand_efficiency_ln>  (1) 
-1.7917793974871303

>  <r_i_glide_ligand_efficiency_sa>  (1) 
-1.3240244602949194

>  <r_i_glide_lipo>  (1) 
-2.0186790877064609

>  <r_i_glide_metal>  (1) 
-0

>  <r_i_glide_rewards>  (1) 
-2.6583333333333332

>  <r_lp_Energy>  (1) 
12.667646999999999

>  <r_lp_tautomer_probability>  (1) 
1

>  <s_epik_cmdline>  (1) 
J2VwaWtfcHl0aG9uJywgJy1waHQnLCAnMS4wJywgJy1waCcsICc3LjQnLCAnLXRuJywgJzgnLCAnLW1hJywgJzUwMCcsICctaW1hZScsICc8aW5maWxlLm1hZT4nLCAnLW9tYWUnLCAnPG91dGZpbGUubWFlPic=

>  <s_epik_input>  (1) 
bzFbY0hdW2NIXWMoYzEyKVtjSF1uW2NIXVtjSF0y

>  <s_glide_docking_method>  (1) 
confgen

>  <s_i_glide_gridfile>  (1) 
gpcr_drd2_6luq_protein_autoprepared_prepared

>  <s_lp_Force_Field>  (1) 
S-OPLS

>  <s_lp_Variant>  (1) 
Pocket2Mol_39-1

>  <s_m_source_file>  (1) 
generated_generic_title2_ligand_Pocket2Mol_2026-06-23_prepared.sdf

>  <GenAI_Model>  (1) 
Pocket2Mol

>  <Protein>  (1) 
generic_title2

$$$$
Pocket2Mol_53
     RDKit          3D

  0  0  0  0  0  0  0  0  0  0999 V3000
M  V30 BEGIN CTAB
M  V30 COUNTS 16 17 0 0 1
M  V30 BEGIN ATOM
M  V30 1 C 10.576397 6.743754 -6.994151 0
M  V30 2 O 10.989800 6.251969 -5.790774 0
M  V30 3 C 11.375243 7.210717 -4.848456 0
M  V30 4 C 11.370963 8.622909 -5.185026 0
M  V30 5 C 11.774716 9.536259 -4.192333 0
M  V30 6 C 11.775966 6.790240 -3.565901 0
M  V30 7 C 12.175480 7.728537 -2.603571 0
M  V30 8 N 10.988305 9.066375 -6.408718 0 CHG=-1
M  V30 9 C 12.175644 9.095326 -2.914835 0
M  V30 10 C 10.596193 8.079635 -7.220328 0
M  V30 11 H 10.251705 5.982228 -7.688213 0
M  V30 12 H 11.776446 10.586925 -4.419164 0
M  V30 13 H 11.780177 5.738233 -3.323674 0
M  V30 14 H 12.482692 7.398211 -1.621744 0
M  V30 15 H 12.481765 9.812941 -2.171225 0
M  V30 16 H 10.241927 8.413356 -8.219236 0
M  V30 END ATOM
M  V30 BEGIN BOND
M  V30 1 1 2 1
M  V30 2 1 3 2
M  V30 3 1 4 3
M  V30 4 2 5 4
M  V30 5 2 6 3
M  V30 6 1 7 6
M  V30 7 1 8 4
M  V30 8 1 9 5
M  V30 9 2 9 7
M  V30 10 2 10 1
M  V30 11 1 10 8
M  V30 12 1 11 1
M  V30 13 1 12 5
M  V30 14 1 13 6
M  V30 15 1 14 7
M  V30 16 1 15 9
M  V30 17 1 16 10
M  V30 END BOND
M  V30 END CTAB
M  END
>  <i_epik_Tot_Q>  (1) 
-1

>  <i_epik_Tot_abs_Q>  (1) 
1

>  <i_i_glide_confnum>  (1) 
1

>  <i_i_glide_lignum>  (1) 
60

>  <i_i_glide_posenum>  (1) 
251

>  <i_i_glide_rotatable_bonds>  (1) 
0

>  <i_lp_mmshare_version>  (1) 
72125

>  <i_m_source_file_index>  (1) 
54

>  <i_f3d_flags>  (1) 
0

>  <num_sample>  (1) 
100

>  <b_lp_Chiralities_Consistent>  (1) 
1

>  <r_epik_Charging_Adjusted_Penalty>  (1) 
0.016215214782958735

>  <r_epik_Ionization_Penalty>  (1) 
0.016215214782958842

>  <r_epik_Ionization_Penalty_Charging>  (1) 
0

>  <r_epik_Ionization_Penalty_Neutral>  (1) 
0.016215214782958842

>  <r_epik_State_Penalty>  (1) 
0.016215214782958735

>  <r_glide_ring_energy>  (1) 
0

>  <r_i_docking_score>  (1) 
-5.7254060311930601

>  <r_i_glide_ecoul>  (1) 
-0.60519394205444554

>  <r_i_glide_eff_state_penalty>  (1) 
0.016215214782958735

>  <r_i_glide_einternal>  (1) 
0

>  <r_i_glide_emodel>  (1) 
-26.456000511616907

>  <r_i_glide_emodel_strain>  (1) 
0

>  <r_i_glide_energy>  (1) 
-18.554281321948068

>  <r_i_glide_erotb>  (1) 
0

>  <r_i_glide_esite>  (1) 
0

>  <r_i_glide_evdw>  (1) 
-17.949087379893623

>  <r_i_glide_gscore>  (1) 
-5.7416212459760185

>  <r_i_glide_gscore_strain>  (1) 
0

>  <r_i_glide_hbond>  (1) 
0

>  <r_i_glide_ligand_efficiency>  (1) 
-0.57254060311930599

>  <r_i_glide_ligand_efficiency_ln>  (1) 
-1.7336134785258603

>  <r_i_glide_ligand_efficiency_sa>  (1) 
-1.23350133681201

>  <r_i_glide_lipo>  (1) 
-2.055964511286045

>  <r_i_glide_metal>  (1) 
-0

>  <r_i_glide_rewards>  (1) 
-2.6974232743871251

>  <r_lp_Energy>  (1) 
26.292493999999998

>  <s_epik_Chemistry_Notes>  (1) 
This compound has an imine and may undergo hydrolysis.

>  <s_epik_cmdline>  (1) 
J2VwaWtfcHl0aG9uJywgJy1waHQnLCAnMS4wJywgJy1waCcsICc3LjQnLCAnLXRuJywgJzgnLCAnLW1hJywgJzUwMCcsICctaW1hZScsICc8aW5maWxlLm1hZT4nLCAnLW9tYWUnLCAnPG91dGZpbGUubWFlPic=

>  <s_epik_input>  (1) 
TzFbQ0gyXVtDSF09TmMoYzEyKVtjSF1bY0hdW2NIXVtjSF0y

>  <s_glide_docking_method>  (1) 
confgen

>  <s_i_glide_gridfile>  (1) 
gpcr_drd2_6luq_protein_autoprepared_prepared

>  <s_lp_Force_Field>  (1) 
S-OPLS

>  <s_lp_Variant>  (1) 
Pocket2Mol_53-1

>  <s_m_source_file>  (1) 
generated_generic_title2_ligand_Pocket2Mol_2026-06-23_prepared.sdf

>  <GenAI_Model>  (1) 
Pocket2Mol

>  <Protein>  (1) 
generic_title2

$$$$
Pocket2Mol_53
     RDKit          3D

  0  0  0  0  0  0  0  0  0  0999 V3000
M  V30 BEGIN CTAB
M  V30 COUNTS 16 17 0 0 1
M  V30 BEGIN ATOM
M  V30 1 C 10.515143 8.282600 -7.656563 0
M  V30 2 O 10.981793 9.204954 -6.770468 0
M  V30 3 C 11.375410 8.701691 -5.526411 0
M  V30 4 C 11.359192 7.277644 -5.264847 0
M  V30 5 C 11.771315 6.834464 -3.983854 0
M  V30 6 C 11.784274 9.595865 -4.531651 0
M  V30 7 C 12.186526 9.127345 -3.271087 0
M  V30 8 N 10.963190 6.390195 -6.208308 0 CHG=-1
M  V30 9 C 12.181192 7.751789 -2.998273 0
M  V30 10 C 10.531437 6.969855 -7.329958 0
M  V30 11 H 10.153969 8.708428 -8.580582 0
M  V30 12 H 11.768020 5.777870 -3.759055 0
M  V30 13 H 11.787710 10.652966 -4.742823 0
M  V30 14 H 12.501460 9.826260 -2.510476 0
M  V30 15 H 12.491220 7.394602 -2.027845 0
M  V30 16 H 10.135294 6.268103 -8.094897 0
M  V30 END ATOM
M  V30 BEGIN BOND
M  V30 1 1 2 1
M  V30 2 1 3 2
M  V30 3 1 4 3
M  V30 4 2 5 4
M  V30 5 2 6 3
M  V30 6 1 7 6
M  V30 7 1 8 4
M  V30 8 1 9 5
M  V30 9 2 9 7
M  V30 10 2 10 1
M  V30 11 1 10 8
M  V30 12 1 11 1
M  V30 13 1 12 5
M  V30 14 1 13 6
M  V30 15 1 14 7
M  V30 16 1 15 9
M  V30 17 1 16 10
M  V30 END BOND
M  V30 END CTAB
M  END
>  <i_epik_Tot_Q>  (1) 
-1

>  <i_epik_Tot_abs_Q>  (1) 
1

>  <i_i_glide_confnum>  (1) 
1

>  <i_i_glide_lignum>  (1) 
60

>  <i_i_glide_posenum>  (1) 
161

>  <i_i_glide_rotatable_bonds>  (1) 
0

>  <i_lp_mmshare_version>  (1) 
72125

>  <i_m_source_file_index>  (1) 
54

>  <i_f3d_flags>  (1) 
0

>  <num_sample>  (1) 
100

>  <b_lp_Chiralities_Consistent>  (1) 
1

>  <r_epik_Charging_Adjusted_Penalty>  (1) 
0.016215214782958735

>  <r_epik_Ionization_Penalty>  (1) 
0.016215214782958842

>  <r_epik_Ionization_Penalty_Charging>  (1) 
0

>  <r_epik_Ionization_Penalty_Neutral>  (1) 
0.016215214782958842

>  <r_epik_State_Penalty>  (1) 
0.016215214782958735

>  <r_glide_ring_energy>  (1) 
0

>  <r_i_docking_score>  (1) 
-5.722839825104673

>  <r_i_glide_ecoul>  (1) 
-1.9616991023638355

>  <r_i_glide_eff_state_penalty>  (1) 
0.016215214782958735

>  <r_i_glide_einternal>  (1) 
0

>  <r_i_glide_emodel>  (1) 
-28.160922097973373

>  <r_i_glide_emodel_strain>  (1) 
0

>  <r_i_glide_energy>  (1) 
-20.262734565832009

>  <r_i_glide_erotb>  (1) 
0

>  <r_i_glide_esite>  (1) 
0

>  <r_i_glide_evdw>  (1) 
-18.301035463468175

>  <r_i_glide_gscore>  (1) 
-5.7390550398876314

>  <r_i_glide_gscore_strain>  (1) 
0

>  <r_i_glide_hbond>  (1) 
0

>  <r_i_glide_ligand_efficiency>  (1) 
-0.5722839825104673

>  <r_i_glide_ligand_efficiency_ln>  (1) 
-1.7328364490122738

>  <r_i_glide_ligand_efficiency_sa>  (1) 
-1.2329484644701507

>  <r_i_glide_lipo>  (1) 
-1.9268887900505678

>  <r_i_glide_metal>  (1) 
-0

>  <r_i_glide_rewards>  (1) 
-2.6028596113090789

>  <r_lp_Energy>  (1) 
26.292493999999998

>  <s_epik_Chemistry_Notes>  (1) 
This compound has an imine and may undergo hydrolysis.

>  <s_epik_cmdline>  (1) 
J2VwaWtfcHl0aG9uJywgJy1waHQnLCAnMS4wJywgJy1waCcsICc3LjQnLCAnLXRuJywgJzgnLCAnLW1hJywgJzUwMCcsICctaW1hZScsICc8aW5maWxlLm1hZT4nLCAnLW9tYWUnLCAnPG91dGZpbGUubWFlPic=

>  <s_epik_input>  (1) 
TzFbQ0gyXVtDSF09TmMoYzEyKVtjSF1bY0hdW2NIXVtjSF0y

>  <s_glide_docking_method>  (1) 
confgen

>  <s_i_glide_gridfile>  (1) 
gpcr_drd2_6luq_protein_autoprepared_prepared

>  <s_lp_Force_Field>  (1) 
S-OPLS

>  <s_lp_Variant>  (1) 
Pocket2Mol_53-1

>  <s_m_source_file>  (1) 
generated_generic_title2_ligand_Pocket2Mol_2026-06-23_prepared.sdf

>  <GenAI_Model>  (1) 
Pocket2Mol

>  <Protein>  (1) 
generic_title2

$$$$
Pocket2Mol_46
     RDKit          3D

  0  0  0  0  0  0  0  0  0  0999 V3000
M  V30 BEGIN CTAB
M  V30 COUNTS 18 19 0 0 1
M  V30 BEGIN ATOM
M  V30 1 C 9.509810 7.016126 -7.157613 0
M  V30 2 O 10.351037 6.390227 -6.196011 0
M  V30 3 C 10.983257 7.244715 -5.319734 0
M  V30 4 C 11.528519 6.740245 -4.122335 0
M  V30 5 C 10.270406 8.183560 -7.787636 0
M  V30 6 C 11.092983 8.629880 -5.614807 0
M  V30 7 O 10.574307 9.139093 -6.780849 0
M  V30 8 C 12.175480 7.607216 -3.218842 0
M  V30 9 C 11.735337 9.491211 -4.705872 0
M  V30 10 C 12.276204 8.981374 -3.509356 0
M  V30 11 H 9.222203 6.291972 -7.921729 0
M  V30 12 H 8.591094 7.362706 -6.682325 0
M  V30 13 H 11.448389 5.687386 -3.895692 0
M  V30 14 H 11.193155 7.839637 -8.255586 0
M  V30 15 H 9.666634 8.659850 -8.561722 0
M  V30 16 H 12.593412 7.217892 -2.302386 0
M  V30 17 H 11.812480 10.543870 -4.928574 0
M  V30 18 H 12.769741 9.644030 -2.813808 0
M  V30 END ATOM
M  V30 BEGIN BOND
M  V30 1 1 2 1
M  V30 2 1 3 2
M  V30 3 2 4 3
M  V30 4 1 5 1
M  V30 5 1 6 3
M  V30 6 1 7 5
M  V30 7 1 7 6
M  V30 8 1 8 4
M  V30 9 2 9 6
M  V30 10 2 10 8
M  V30 11 1 10 9
M  V30 12 1 11 1
M  V30 13 1 12 1
M  V30 14 1 13 4
M  V30 15 1 14 5
M  V30 16 1 15 5
M  V30 17 1 16 8
M  V30 18 1 17 9
M  V30 19 1 18 10
M  V30 END BOND
M  V30 END CTAB
M  END
>  <i_epik_Tot_Q>  (1) 
0

>  <i_epik_Tot_abs_Q>  (1) 
0

>  <i_i_glide_confnum>  (1) 
2

>  <i_i_glide_lignum>  (1) 
52

>  <i_i_glide_posenum>  (1) 
158

>  <i_i_glide_rotatable_bonds>  (1) 
0

>  <i_lp_mmshare_version>  (1) 
72125

>  <i_m_source_file_index>  (1) 
47

>  <i_f3d_flags>  (1) 
0

>  <num_sample>  (1) 
100

>  <b_lp_Chiralities_Consistent>  (1) 
1

>  <r_epik_Charging_Adjusted_Penalty>  (1) 
0

>  <r_epik_Ionization_Penalty>  (1) 
0

>  <r_epik_Ionization_Penalty_Charging>  (1) 
0

>  <r_epik_Ionization_Penalty_Neutral>  (1) 
0

>  <r_epik_State_Penalty>  (1) 
-0

>  <r_glide_ring_energy>  (1) 
0.0030885007139812575

>  <r_i_docking_score>  (1) 
-5.7135871933977898

>  <r_i_glide_ecoul>  (1) 
-1.1396200568837584

>  <r_i_glide_eff_state_penalty>  (1) 
-0

>  <r_i_glide_einternal>  (1) 
0

>  <r_i_glide_emodel>  (1) 
-29.199409447002925

>  <r_i_glide_emodel_strain>  (1) 
0

>  <r_i_glide_energy>  (1) 
-21.466950520319276

>  <r_i_glide_erotb>  (1) 
0

>  <r_i_glide_esite>  (1) 
0

>  <r_i_glide_evdw>  (1) 
-20.327330463435519

>  <r_i_glide_gscore>  (1) 
-5.7135871933977898

>  <r_i_glide_gscore_strain>  (1) 
0

>  <r_i_glide_hbond>  (1) 
0

>  <r_i_glide_ligand_efficiency>  (1) 
-0.571358719339779

>  <r_i_glide_ligand_efficiency_ln>  (1) 
-1.7300348159138532

>  <r_i_glide_ligand_efficiency_sa>  (1) 
-1.2309550453978109

>  <r_i_glide_lipo>  (1) 
-1.798199275400991

>  <r_i_glide_metal>  (1) 
-0

>  <r_i_glide_rewards>  (1) 
-2.728078386292458

>  <r_lp_Energy>  (1) 
16.729797999999999

>  <r_lp_tautomer_probability>  (1) 
1

>  <s_epik_cmdline>  (1) 
J2VwaWtfcHl0aG9uJywgJy1waHQnLCAnMS4wJywgJy1waCcsICc3LjQnLCAnLXRuJywgJzgnLCAnLW1hJywgJzUwMCcsICctaW1hZScsICc8aW5maWxlLm1hZT4nLCAnLW9tYWUnLCAnPG91dGZpbGUubWFlPic=

>  <s_epik_input>  (1) 
TzFbQ0gyXVtDSDJdT2MoYzEyKVtjSF1bY0hdW2NIXVtjSF0y

>  <s_glide_docking_method>  (1) 
confgen

>  <s_i_glide_gridfile>  (1) 
gpcr_drd2_6luq_protein_autoprepared_prepared

>  <s_lp_Force_Field>  (1) 
S-OPLS

>  <s_lp_Variant>  (1) 
Pocket2Mol_46-1

>  <s_m_source_file>  (1) 
generated_generic_title2_ligand_Pocket2Mol_2026-06-23_prepared.sdf

>  <GenAI_Model>  (1) 
Pocket2Mol

>  <Protein>  (1) 
generic_title2

$$$$
Pocket2Mol_0
     RDKit          3D

  0  0  0  0  0  0  0  0  0  0999 V3000
M  V30 BEGIN CTAB
M  V30 COUNTS 21 23 0 0 1
M  V30 BEGIN ATOM
M  V30 1 C 12.118215 9.191238 -4.538336 0
M  V30 2 O 11.375410 7.918994 -4.598531 0
M  V30 3 C 11.092002 7.813908 -5.915792 0
M  V30 4 C 11.577563 8.787914 -6.694275 0
M  V30 5 C 11.375410 8.790227 -8.079718 0
M  V30 6 C 12.328334 9.828916 -5.985025 0
M  V30 7 C 10.348175 6.758999 -6.449041 0
M  V30 8 C 10.633536 7.748306 -8.690305 0
M  V30 9 N 10.432941 7.741111 -10.033278 0
M  V30 10 C 9.699389 6.721662 -10.517523 0
M  V30 11 C 10.098256 6.694854 -7.844347 0
M  V30 12 C 9.183271 5.704623 -9.702250 0
M  V30 13 N 9.380234 5.668690 -8.371099 0
M  V30 14 H 13.078430 9.027796 -4.048210 0
M  V30 15 H 11.558154 9.882302 -3.907019 0
M  V30 16 H 11.781772 9.586968 -8.684977 0
M  V30 17 H 13.375062 9.850555 -6.290131 0
M  V30 18 H 11.866816 10.810795 -6.091198 0
M  V30 19 H 9.965039 5.990227 -5.797626 0
M  V30 20 H 9.520179 6.717169 -11.582373 0
M  V30 21 H 8.598876 4.901987 -10.127126 0
M  V30 END ATOM
M  V30 BEGIN BOND
M  V30 1 1 2 1
M  V30 2 1 3 2
M  V30 3 1 4 3
M  V30 4 2 5 4
M  V30 5 1 6 1
M  V30 6 1 6 4
M  V30 7 2 7 3
M  V30 8 1 8 5
M  V30 9 2 9 8
M  V30 10 1 10 9
M  V30 11 1 11 7
M  V30 12 1 11 8
M  V30 13 2 12 10
M  V30 14 2 13 11
M  V30 15 1 13 12
M  V30 16 1 14 1
M  V30 17 1 15 1
M  V30 18 1 16 5
M  V30 19 1 17 6
M  V30 20 1 18 6
M  V30 21 1 19 7
M  V30 22 1 20 10
M  V30 23 1 21 12
M  V30 END BOND
M  V30 END CTAB
M  END
>  <i_epik_Tot_Q>  (1) 
0

>  <i_epik_Tot_abs_Q>  (1) 
0

>  <i_i_glide_confnum>  (1) 
1

>  <i_i_glide_lignum>  (1) 
1

>  <i_i_glide_posenum>  (1) 
12

>  <i_i_glide_rotatable_bonds>  (1) 
0

>  <i_lp_mmshare_version>  (1) 
72125

>  <i_m_source_file_index>  (1) 
1

>  <i_f3d_flags>  (1) 
0

>  <num_sample>  (1) 
100

>  <b_lp_Chiralities_Consistent>  (1) 
1

>  <r_epik_Charging_Adjusted_Penalty>  (1) 
0

>  <r_epik_Ionization_Penalty>  (1) 
2.4588925185764017e-06

>  <r_epik_Ionization_Penalty_Charging>  (1) 
0

>  <r_epik_Ionization_Penalty_Neutral>  (1) 
2.4588925185764017e-06

>  <r_epik_State_Penalty>  (1) 
-0

>  <r_glide_ring_energy>  (1) 
0

>  <r_i_docking_score>  (1) 
-5.6808968562867213

>  <r_i_glide_ecoul>  (1) 
-0.56783270406392361

>  <r_i_glide_eff_state_penalty>  (1) 
-0

>  <r_i_glide_einternal>  (1) 
0

>  <r_i_glide_emodel>  (1) 
-35.173880970318265

>  <r_i_glide_emodel_strain>  (1) 
0

>  <r_i_glide_energy>  (1) 
-26.103536301487971

>  <r_i_glide_erotb>  (1) 
0

>  <r_i_glide_esite>  (1) 
0

>  <r_i_glide_evdw>  (1) 
-25.535703597424046

>  <r_i_glide_gscore>  (1) 
-5.6808968562867213

>  <r_i_glide_gscore_strain>  (1) 
0

>  <r_i_glide_hbond>  (1) 
0

>  <r_i_glide_ligand_efficiency>  (1) 
-0.43699206586820932

>  <r_i_glide_ligand_efficiency_ln>  (1) 
-1.5935420918102099

>  <r_i_glide_ligand_efficiency_sa>  (1) 
-1.0275146027346749

>  <r_i_glide_lipo>  (1) 
-1.5998496763937675

>  <r_i_glide_metal>  (1) 
-0

>  <r_i_glide_rewards>  (1) 
-2.7190870944121621

>  <r_lp_Energy>  (1) 
22.769921999999998

>  <r_lp_tautomer_probability>  (1) 
1

>  <s_epik_cmdline>  (1) 
J2VwaWtfcHl0aG9uJywgJy1waHQnLCAnMS4wJywgJy1waCcsICc3LjQnLCAnLXRuJywgJzgnLCAnLW1hJywgJzUwMCcsICctaW1hZScsICc8aW5maWxlLm1hZT4nLCAnLW9tYWUnLCAnPG91dGZpbGUubWFlPic=

>  <s_epik_input>  (1) 
TzFbQ0gyXVtDSDJdYyhjMTIpW2NIXWMzYyhbY0hdMiluW2NIXVtjSF1uMw==

>  <s_glide_docking_method>  (1) 
confgen

>  <s_i_glide_gridfile>  (1) 
gpcr_drd2_6luq_protein_autoprepared_prepared

>  <s_lp_Force_Field>  (1) 
S-OPLS

>  <s_lp_Variant>  (1) 
Pocket2Mol_0-1

>  <s_m_source_file>  (1) 
generated_generic_title2_ligand_Pocket2Mol_2026-06-23_prepared.sdf

>  <GenAI_Model>  (1) 
Pocket2Mol

>  <Protein>  (1) 
generic_title2

$$$$
Pocket2Mol_73
     RDKit          3D

  0  0  0  0  0  0  0  0  0  0999 V3000
M  V30 BEGIN CTAB
M  V30 COUNTS 20 21 0 0 1
M  V30 BEGIN ATOM
M  V30 1 C 12.192155 9.189367 -4.430158 0
M  V30 2 O 11.375411 7.958295 -4.441421 0
M  V30 3 C 11.026106 7.866430 -5.743448 0
M  V30 4 C 11.586756 8.777479 -6.564456 0
M  V30 5 C 11.318249 8.790228 -7.943333 0
M  V30 6 C 12.478086 9.734078 -5.906319 0
M  V30 7 C 10.136788 6.895902 -6.230609 0
M  V30 8 C 10.422466 7.837262 -8.477147 0
M  V30 9 N 10.124058 7.855027 -9.847753 0
M  V30 10 C 9.822401 6.880811 -7.607351 0
M  V30 11 O 9.533538 6.679681 -10.334465 0
M  V30 12 H 13.125610 9.007327 -3.897296 0
M  V30 13 H 11.647074 9.938537 -3.852767 0
M  V30 14 H 11.776792 9.528872 -8.583703 0
M  V30 15 H 13.513610 9.591048 -6.218690 0
M  V30 16 H 12.160358 10.767048 -6.051742 0
M  V30 17 H 9.691044 6.176487 -5.560418 0
M  V30 18 H 10.803814 8.227595 -10.494222 0
M  V30 19 H 9.129624 6.146805 -7.992086 0
M  V30 20 H 8.595988 6.832584 -10.251160 0
M  V30 END ATOM
M  V30 BEGIN BOND
M  V30 1 1 2 1
M  V30 2 1 3 2
M  V30 3 2 4 3
M  V30 4 1 5 4
M  V30 5 1 6 1
M  V30 6 1 6 4
M  V30 7 1 7 3
M  V30 8 2 8 5
M  V30 9 1 9 8
M  V30 10 2 10 7
M  V30 11 1 10 8
M  V30 12 1 11 9
M  V30 13 1 12 1
M  V30 14 1 13 1
M  V30 15 1 14 5
M  V30 16 1 15 6
M  V30 17 1 16 6
M  V30 18 1 17 7
M  V30 19 1 18 9
M  V30 20 1 19 10
M  V30 21 1 20 11
M  V30 END BOND
M  V30 END CTAB
M  END
>  <i_epik_Tot_Q>  (1) 
0

>  <i_epik_Tot_abs_Q>  (1) 
0

>  <i_i_glide_confnum>  (1) 
1

>  <i_i_glide_lignum>  (1) 
80

>  <i_i_glide_posenum>  (1) 
6

>  <i_i_glide_rotatable_bonds>  (1) 
2

>  <i_lp_mmshare_version>  (1) 
72125

>  <i_m_source_file_index>  (1) 
74

>  <i_f3d_flags>  (1) 
0

>  <num_sample>  (1) 
100

>  <b_lp_Chiralities_Consistent>  (1) 
1

>  <r_epik_Charging_Adjusted_Penalty>  (1) 
0

>  <r_epik_Ionization_Penalty>  (1) 
0.00049506315318442675

>  <r_epik_Ionization_Penalty_Charging>  (1) 
0

>  <r_epik_Ionization_Penalty_Neutral>  (1) 
0.00049506315318442675

>  <r_epik_State_Penalty>  (1) 
-0

>  <r_glide_ring_energy>  (1) 
0

>  <r_i_docking_score>  (1) 
-5.6739946508446879

>  <r_i_glide_ecoul>  (1) 
-1.6418576076281939

>  <r_i_glide_eff_state_penalty>  (1) 
-0

>  <r_i_glide_einternal>  (1) 
1.3323194256617086

>  <r_i_glide_emodel>  (1) 
-31.308703541252342

>  <r_i_glide_emodel_strain>  (1) 
0.025761795454762648

>  <r_i_glide_energy>  (1) 
-22.676937865179539

>  <r_i_glide_erotb>  (1) 
0

>  <r_i_glide_esite>  (1) 
-0.07089014386292683

>  <r_i_glide_evdw>  (1) 
-21.035080257551346

>  <r_i_glide_gscore>  (1) 
-5.6739946508446879

>  <r_i_glide_gscore_strain>  (1) 
0

>  <r_i_glide_hbond>  (1) 
-0.12264642832394927

>  <r_i_glide_ligand_efficiency>  (1) 
-0.51581769553133527

>  <r_i_glide_ligand_efficiency_ln>  (1) 
-1.6698556592569178

>  <r_i_glide_ligand_efficiency_sa>  (1) 
-1.1471682852250347

>  <r_i_glide_lipo>  (1) 
-1.5420583976433342

>  <r_i_glide_metal>  (1) 
-0

>  <r_i_glide_rewards>  (1) 
-2.6403670269926818

>  <r_lp_Energy>  (1) 
14.863064999999999

>  <r_lp_tautomer_probability>  (1) 
1

>  <s_epik_Chemistry_Notes>  (1) 
This compound has a N-S or N-O group and may undergo hydrolysis at high or low pH.

>  <s_epik_cmdline>  (1) 
J2VwaWtfcHl0aG9uJywgJy1waHQnLCAnMS4wJywgJy1waCcsICc3LjQnLCAnLXRuJywgJzgnLCAnLW1hJywgJzUwMCcsICctaW1hZScsICc8aW5maWxlLm1hZT4nLCAnLW9tYWUnLCAnPG91dGZpbGUubWFlPic=

>  <s_epik_input>  (1) 
TzFbQ0gyXVtDSDJdYyhjMTIpW2NIXWMoW05IXVtPSF0pW2NIXVtjSF0y

>  <s_glide_docking_method>  (1) 
confgen

>  <s_i_glide_gridfile>  (1) 
gpcr_drd2_6luq_protein_autoprepared_prepared

>  <s_lp_Force_Field>  (1) 
S-OPLS

>  <s_lp_Variant>  (1) 
Pocket2Mol_73-1

>  <s_m_source_file>  (1) 
generated_generic_title2_ligand_Pocket2Mol_2026-06-23_prepared.sdf

>  <GenAI_Model>  (1) 
Pocket2Mol

>  <Protein>  (1) 
generic_title2

$$$$
Pocket2Mol_39
     RDKit          3D

  0  0  0  0  0  0  0  0  0  0999 V3000
M  V30 BEGIN CTAB
M  V30 COUNTS 14 15 0 0 1
M  V30 BEGIN ATOM
M  V30 1 C 11.161640 8.994462 -6.575667 0
M  V30 2 O 10.996752 7.691316 -6.151192 0
M  V30 3 C 11.375397 7.650526 -4.832740 0
M  V30 4 C 11.776231 8.924044 -4.416749 0
M  V30 5 C 12.203610 9.051243 -3.053863 0
M  V30 6 C 11.375408 6.554807 -3.996322 0
M  V30 7 C 11.634872 9.791396 -5.547327 0
M  V30 8 N 12.206072 7.953957 -2.230612 0
M  V30 9 C 11.802726 6.748044 -2.688768 0
M  V30 10 H 10.904209 9.190227 -7.607014 0
M  V30 11 H 12.531884 9.990262 -2.641976 0
M  V30 12 H 11.053466 5.590222 -4.345525 0
M  V30 13 H 11.854802 10.847432 -5.581701 0
M  V30 14 H 11.824921 5.927890 -1.986258 0
M  V30 END ATOM
M  V30 BEGIN BOND
M  V30 1 1 2 1
M  V30 2 1 3 2
M  V30 3 2 4 3
M  V30 4 1 5 4
M  V30 5 1 6 3
M  V30 6 2 7 1
M  V30 7 1 7 4
M  V30 8 2 8 5
M  V30 9 2 9 6
M  V30 10 1 9 8
M  V30 11 1 10 1
M  V30 12 1 11 5
M  V30 13 1 12 6
M  V30 14 1 13 7
M  V30 15 1 14 9
M  V30 END BOND
M  V30 END CTAB
M  END
>  <i_epik_Tot_Q>  (1) 
0

>  <i_epik_Tot_abs_Q>  (1) 
0

>  <i_i_glide_confnum>  (1) 
1

>  <i_i_glide_lignum>  (1) 
44

>  <i_i_glide_posenum>  (1) 
11

>  <i_i_glide_rotatable_bonds>  (1) 
0

>  <i_lp_mmshare_version>  (1) 
72125

>  <i_m_source_file_index>  (1) 
40

>  <i_f3d_flags>  (1) 
0

>  <num_sample>  (1) 
100

>  <b_lp_Chiralities_Consistent>  (1) 
1

>  <r_epik_Charging_Adjusted_Penalty>  (1) 
0

>  <r_epik_Ionization_Penalty>  (1) 
0.00075511756769225586

>  <r_epik_Ionization_Penalty_Charging>  (1) 
0

>  <r_epik_Ionization_Penalty_Neutral>  (1) 
0.00075511756769225586

>  <r_epik_State_Penalty>  (1) 
-0

>  <r_glide_ring_energy>  (1) 
0

>  <r_i_docking_score>  (1) 
-5.6636614553219049

>  <r_i_glide_ecoul>  (1) 
-1.083807960265841

>  <r_i_glide_eff_state_penalty>  (1) 
-0

>  <r_i_glide_einternal>  (1) 
0

>  <r_i_glide_emodel>  (1) 
-27.843931347049178

>  <r_i_glide_emodel_strain>  (1) 
0

>  <r_i_glide_energy>  (1) 
-20.373628697404133

>  <r_i_glide_erotb>  (1) 
0

>  <r_i_glide_esite>  (1) 
0

>  <r_i_glide_evdw>  (1) 
-19.289820737138292

>  <r_i_glide_gscore>  (1) 
-5.6636614553219049

>  <r_i_glide_gscore_strain>  (1) 
0

>  <r_i_glide_hbond>  (1) 
0

>  <r_i_glide_ligand_efficiency>  (1) 
-0.62929571725798938

>  <r_i_glide_ligand_efficiency_ln>  (1) 
-1.7714306012374668

>  <r_i_glide_ligand_efficiency_sa>  (1) 
-1.3089878413841889

>  <r_i_glide_lipo>  (1) 
-1.9865992244251149

>  <r_i_glide_metal>  (1) 
-0

>  <r_i_glide_rewards>  (1) 
-2.5499999999999998

>  <r_lp_Energy>  (1) 
12.667646999999999

>  <r_lp_tautomer_probability>  (1) 
1

>  <s_epik_cmdline>  (1) 
J2VwaWtfcHl0aG9uJywgJy1waHQnLCAnMS4wJywgJy1waCcsICc3LjQnLCAnLXRuJywgJzgnLCAnLW1hJywgJzUwMCcsICctaW1hZScsICc8aW5maWxlLm1hZT4nLCAnLW9tYWUnLCAnPG91dGZpbGUubWFlPic=

>  <s_epik_input>  (1) 
bzFbY0hdW2NIXWMoYzEyKVtjSF1uW2NIXVtjSF0y

>  <s_glide_docking_method>  (1) 
confgen

>  <s_i_glide_gridfile>  (1) 
gpcr_drd2_6luq_protein_autoprepared_prepared

>  <s_lp_Force_Field>  (1) 
S-OPLS

>  <s_lp_Variant>  (1) 
Pocket2Mol_39-1

>  <s_m_source_file>  (1) 
generated_generic_title2_ligand_Pocket2Mol_2026-06-23_prepared.sdf

>  <GenAI_Model>  (1) 
Pocket2Mol

>  <Protein>  (1) 
generic_title2

$$$$
Pocket2Mol_80
     RDKit          3D

  0  0  0  0  0  0  0  0  0  0999 V3000
M  V30 BEGIN CTAB
M  V30 COUNTS 19 20 0 0 1
M  V30 BEGIN ATOM
M  V30 1 C 12.013653 9.423452 -4.541997 0
M  V30 2 O 11.375503 8.103624 -4.385027 0
M  V30 3 C 11.003442 7.820008 -5.651533 0
M  V30 4 C 11.403796 8.700933 -6.588022 0
M  V30 5 C 11.097727 8.519208 -7.949293 0
M  V30 6 C 12.175356 9.837037 -6.073246 0
M  V30 7 C 10.343014 7.381832 -8.337745 0
M  V30 8 N 10.008307 7.155302 -9.759398 0 CHG=1
M  V30 9 O 10.392451 7.989318 -10.572647 0 CHG=-1
M  V30 10 O 9.375410 6.142109 -10.040257 0
M  V30 11 C 9.916900 6.459953 -7.344403 0
M  V30 12 C 10.253802 6.685259 -5.990883 0
M  V30 13 H 11.375627 10.149689 -4.036142 0
M  V30 14 H 12.976406 9.438617 -4.029918 0
M  V30 15 H 11.433141 9.234952 -8.685659 0
M  V30 16 H 13.216717 9.795133 -6.391500 0
M  V30 17 H 11.726052 10.800156 -6.314045 0
M  V30 18 H 9.339939 5.589041 -7.619800 0
M  V30 19 H 9.939387 5.990233 -5.226459 0
M  V30 END ATOM
M  V30 BEGIN BOND
M  V30 1 1 2 1
M  V30 2 1 3 2
M  V30 3 2 4 3
M  V30 4 1 5 4
M  V30 5 1 6 1
M  V30 6 1 6 4
M  V30 7 2 7 5
M  V30 8 1 8 7
M  V30 9 1 9 8
M  V30 10 2 10 8
M  V30 11 1 11 7
M  V30 12 1 12 3
M  V30 13 2 12 11
M  V30 14 1 13 1
M  V30 15 1 14 1
M  V30 16 1 15 5
M  V30 17 1 16 6
M  V30 18 1 17 6
M  V30 19 1 18 11
M  V30 20 1 19 12
M  V30 END BOND
M  V30 END CTAB
M  END
>  <i_epik_Tot_Q>  (1) 
0

>  <i_epik_Tot_abs_Q>  (1) 
2

>  <i_i_glide_confnum>  (1) 
1

>  <i_i_glide_lignum>  (1) 
87

>  <i_i_glide_posenum>  (1) 
150

>  <i_i_glide_rotatable_bonds>  (1) 
1

>  <i_lp_mmshare_version>  (1) 
72125

>  <i_m_source_file_index>  (1) 
81

>  <i_f3d_flags>  (1) 
0

>  <num_sample>  (1) 
100

>  <b_lp_Chiralities_Consistent>  (1) 
1

>  <r_epik_Charging_Adjusted_Penalty>  (1) 
0

>  <r_epik_Ionization_Penalty>  (1) 
0

>  <r_epik_Ionization_Penalty_Charging>  (1) 
0

>  <r_epik_Ionization_Penalty_Neutral>  (1) 
0

>  <r_epik_State_Penalty>  (1) 
-0

>  <r_glide_ring_energy>  (1) 
0

>  <r_i_docking_score>  (1) 
-5.6500006222886245

>  <r_i_glide_ecoul>  (1) 
-0.33791740216666777

>  <r_i_glide_eff_state_penalty>  (1) 
-0

>  <r_i_glide_einternal>  (1) 
0.0052172839625472811

>  <r_i_glide_emodel>  (1) 
-31.911856042666443

>  <r_i_glide_emodel_strain>  (1) 
0

>  <r_i_glide_energy>  (1) 
-22.548073349011808

>  <r_i_glide_erotb>  (1) 
0

>  <r_i_glide_esite>  (1) 
-0.19175053274904283

>  <r_i_glide_evdw>  (1) 
-22.210155946845141

>  <r_i_glide_gscore>  (1) 
-5.6500006222886245

>  <r_i_glide_gscore_strain>  (1) 
0

>  <r_i_glide_hbond>  (1) 
0

>  <r_i_glide_ligand_efficiency>  (1) 
-0.47083338519071871

>  <r_i_glide_ligand_efficiency_ln>  (1) 
-1.6212774659637827

>  <r_i_glide_ligand_efficiency_sa>  (1) 
-1.0779393637948296

>  <r_i_glide_lipo>  (1) 
-1.6470546818723244

>  <r_i_glide_metal>  (1) 
-0

>  <r_i_glide_rewards>  (1) 
-2.6499999999999999

>  <r_lp_Energy>  (1) 
14.797289999999998

>  <r_lp_tautomer_probability>  (1) 
1

>  <s_epik_cmdline>  (1) 
J2VwaWtfcHl0aG9uJywgJy1waHQnLCAnMS4wJywgJy1waCcsICc3LjQnLCAnLXRuJywgJzgnLCAnLW1hJywgJzUwMCcsICctaW1hZScsICc8aW5maWxlLm1hZT4nLCAnLW9tYWUnLCAnPG91dGZpbGUubWFlPic=

>  <s_epik_input>  (1) 
TzFbQ0gyXVtDSDJdYyhjMTIpW2NIXWMoW04rXShbTy1dKT1PKVtjSF1bY0hdMg==

>  <s_glide_docking_method>  (1) 
confgen

>  <s_i_glide_gridfile>  (1) 
gpcr_drd2_6luq_protein_autoprepared_prepared

>  <s_lp_Force_Field>  (1) 
S-OPLS

>  <s_lp_Variant>  (1) 
Pocket2Mol_80-1

>  <s_m_source_file>  (1) 
generated_generic_title2_ligand_Pocket2Mol_2026-06-23_prepared.sdf

>  <GenAI_Model>  (1) 
Pocket2Mol

>  <Protein>  (1) 
generic_title2

$$$$
Pocket2Mol_87
     RDKit          3D

  0  0  0  0  0  0  0  0  0  0999 V3000
M  V30 BEGIN CTAB
M  V30 COUNTS 21 22 0 0 1
M  V30 BEGIN ATOM
M  V30 1 C 9.764785 6.691144 -8.997207 0
M  V30 2 O 9.923241 8.039668 -8.678787 0
M  V30 3 C 9.345948 6.035488 -7.710057 0
M  V30 4 O 10.554973 5.882147 -7.021545 0
M  V30 5 C 11.042350 8.558334 -8.165631 0
M  V30 6 C 10.997786 6.884837 -6.202652 0
M  V30 7 C 11.259643 6.585806 -4.848471 0
M  V30 8 O 11.775410 9.308610 -8.802648 0
M  V30 9 C 11.262751 8.197732 -6.702201 0
M  V30 10 C 11.775436 9.184189 -5.809139 0
M  V30 11 C 11.775410 7.566983 -3.985080 0
M  V30 12 O 12.018740 10.447911 -6.245798 0
M  V30 13 C 12.024181 8.862422 -4.459575 0
M  V30 14 H 8.975495 6.602975 -9.743652 0
M  V30 15 H 10.671630 6.260806 -9.415508 0
M  V30 16 H 8.599874 6.606869 -7.152954 0
M  V30 17 H 8.930965 5.047361 -7.908306 0
M  V30 18 H 11.073223 5.590228 -4.475123 0
M  V30 19 H 11.974498 7.323906 -2.951475 0
M  V30 20 H 12.246271 11.055731 -5.561071 0
M  V30 21 H 12.413265 9.613401 -3.787898 0
M  V30 END ATOM
M  V30 BEGIN BOND
M  V30 1 1 2 1
M  V30 2 1 3 1
M  V30 3 1 4 3
M  V30 4 1 5 2
M  V30 5 1 6 4
M  V30 6 2 7 6
M  V30 7 2 8 5
M  V30 8 1 9 5
M  V30 9 1 9 6
M  V30 10 2 10 9
M  V30 11 1 11 7
M  V30 12 1 12 10
M  V30 13 1 13 10
M  V30 14 2 13 11
M  V30 15 1 14 1
M  V30 16 1 15 1
M  V30 17 1 16 3
M  V30 18 1 17 3
M  V30 19 1 18 7
M  V30 20 1 19 11
M  V30 21 1 20 12
M  V30 22 1 21 13
M  V30 END BOND
M  V30 END CTAB
M  END
>  <i_epik_Tot_Q>  (1) 
0

>  <i_epik_Tot_abs_Q>  (1) 
0

>  <i_i_glide_confnum>  (1) 
2

>  <i_i_glide_lignum>  (1) 
94

>  <i_i_glide_posenum>  (1) 
164

>  <i_i_glide_rotatable_bonds>  (1) 
1

>  <i_lp_mmshare_version>  (1) 
72125

>  <i_m_source_file_index>  (1) 
88

>  <i_f3d_flags>  (1) 
0

>  <num_sample>  (1) 
100

>  <b_lp_Chiralities_Consistent>  (1) 
1

>  <r_epik_Charging_Adjusted_Penalty>  (1) 
0.011568550508496497

>  <r_epik_Ionization_Penalty>  (1) 
0.011568550508503217

>  <r_epik_Ionization_Penalty_Charging>  (1) 
0

>  <r_epik_Ionization_Penalty_Neutral>  (1) 
0.011568550508503217

>  <r_epik_State_Penalty>  (1) 
0.011568550508496497

>  <r_glide_ring_energy>  (1) 
0.0013752515646527682

>  <r_i_docking_score>  (1) 
-5.6492933941117567

>  <r_i_glide_ecoul>  (1) 
-1.2426874635658591

>  <r_i_glide_eff_state_penalty>  (1) 
0.011568550508496497

>  <r_i_glide_einternal>  (1) 
0.061892655311859501

>  <r_i_glide_emodel>  (1) 
-27.441641205004046

>  <r_i_glide_emodel_strain>  (1) 
0.00043547114112385543

>  <r_i_glide_energy>  (1) 
-20.494184990369224

>  <r_i_glide_erotb>  (1) 
0

>  <r_i_glide_esite>  (1) 
0

>  <r_i_glide_evdw>  (1) 
-19.251497526803366

>  <r_i_glide_gscore>  (1) 
-5.6608619446202528

>  <r_i_glide_gscore_strain>  (1) 
0

>  <r_i_glide_hbond>  (1) 
0

>  <r_i_glide_ligand_efficiency>  (1) 
-0.43456103031628895

>  <r_i_glide_ligand_efficiency_ln>  (1) 
-1.584677039601595

>  <r_i_glide_ligand_efficiency_sa>  (1) 
-1.0217984245143621

>  <r_i_glide_lipo>  (1) 
-1.6261476992167927

>  <r_i_glide_metal>  (1) 
-0

>  <r_i_glide_rewards>  (1) 
-2.8857362495284131

>  <r_lp_Energy>  (1) 
16.036355

>  <s_epik_Chemistry_Notes>  (1) 
This compound has an ester and may undergo hydrolysis at high or low pH.

>  <s_epik_cmdline>  (1) 
J2VwaWtfcHl0aG9uJywgJy1waHQnLCAnMS4wJywgJy1waCcsICc3LjQnLCAnLXRuJywgJzgnLCAnLW1hJywgJzUwMCcsICctaW1hZScsICc8aW5maWxlLm1hZT4nLCAnLW9tYWUnLCAnPG91dGZpbGUubWFlPic=

>  <s_epik_input>  (1) 
TzFbQ0gyXVtDSDJdT0MoPU8pYyhjMTIpYyhbT0hdKVtjSF1bY0hdW2NIXTI=

>  <s_glide_docking_method>  (1) 
confgen

>  <s_i_glide_gridfile>  (1) 
gpcr_drd2_6luq_protein_autoprepared_prepared

>  <s_lp_Force_Field>  (1) 
S-OPLS

>  <s_lp_Variant>  (1) 
Pocket2Mol_87-1

>  <s_m_source_file>  (1) 
generated_generic_title2_ligand_Pocket2Mol_2026-06-23_prepared.sdf

>  <GenAI_Model>  (1) 
Pocket2Mol

>  <Protein>  (1) 
generic_title2

$$$$
Pocket2Mol_94
     RDKit          3D

  0  0  0  0  0  0  0  0  0  0999 V3000
M  V30 BEGIN CTAB
M  V30 COUNTS 24 25 0 0 1
M  V30 BEGIN ATOM
M  V30 1 C 11.430598 8.859490 -5.604741 0
M  V30 2 O 12.175410 9.190228 -6.838011 0
M  V30 3 C 11.524503 8.445645 -7.760189 0
M  V30 4 C 10.552459 7.643571 -7.283274 0
M  V30 5 C 9.787108 6.826706 -8.128403 0
M  V30 6 C 10.362441 7.699637 -5.839733 0
M  V30 7 C 11.821046 8.495310 -9.130833 0
M  V30 8 C 10.043620 6.839654 -9.516790 0
M  V30 9 N 9.236130 5.990227 -10.367431 0
M  V30 10 C 11.081333 7.689647 -10.025904 0
M  V30 11 C 9.375410 5.830992 -11.707051 0
M  V30 12 C 8.387160 4.879072 -12.369730 0
M  V30 13 O 10.229310 6.390334 -12.385025 0
M  V30 14 H 12.126540 8.588931 -4.810036 0
M  V30 15 H 10.919146 9.764579 -5.273973 0
M  V30 16 H 9.008721 6.197106 -7.721318 0
M  V30 17 H 9.346244 7.990234 -5.585025 0
M  V30 18 H 10.635259 6.756905 -5.363975 0
M  V30 19 H 12.602349 9.144902 -9.497997 0
M  V30 20 H 8.497854 5.473438 -9.912621 0
M  V30 21 H 11.309039 7.735970 -11.069019 0
M  V30 22 H 7.361997 5.180141 -12.152557 0
M  V30 23 H 8.521527 4.876685 -13.451822 0
M  V30 24 H 8.537690 3.862670 -12.004749 0
M  V30 END ATOM
M  V30 BEGIN BOND
M  V30 1 1 2 1
M  V30 2 1 3 2
M  V30 3 2 4 3
M  V30 4 1 5 4
M  V30 5 1 6 1
M  V30 6 1 6 4
M  V30 7 1 7 3
M  V30 8 2 8 5
M  V30 9 1 9 8
M  V30 10 2 10 7
M  V30 11 1 10 8
M  V30 12 1 11 9
M  V30 13 1 12 11
M  V30 14 2 13 11
M  V30 15 1 14 1
M  V30 16 1 15 1
M  V30 17 1 16 5
M  V30 18 1 17 6
M  V30 19 1 18 6
M  V30 20 1 19 7
M  V30 21 1 20 9
M  V30 22 1 21 10
M  V30 23 1 22 12
M  V30 24 1 23 12
M  V30 25 1 24 12
M  V30 END BOND
M  V30 END CTAB
M  END
>  <i_epik_Tot_Q>  (1) 
0

>  <i_epik_Tot_abs_Q>  (1) 
0

>  <i_i_glide_confnum>  (1) 
1

>  <i_i_glide_lignum>  (1) 
103

>  <i_i_glide_posenum>  (1) 
21

>  <i_i_glide_rotatable_bonds>  (1) 
2

>  <i_lp_mmshare_version>  (1) 
72125

>  <i_m_source_file_index>  (1) 
95

>  <i_f3d_flags>  (1) 
0

>  <num_sample>  (1) 
100

>  <b_lp_Chiralities_Consistent>  (1) 
1

>  <r_epik_Charging_Adjusted_Penalty>  (1) 
0

>  <r_epik_Ionization_Penalty>  (1) 
1.4103773659367358e-07

>  <r_epik_Ionization_Penalty_Charging>  (1) 
0

>  <r_epik_Ionization_Penalty_Neutral>  (1) 
1.4103773659367358e-07

>  <r_epik_State_Penalty>  (1) 
-0

>  <r_glide_ring_energy>  (1) 
0

>  <r_i_docking_score>  (1) 
-5.6338249418887036

>  <r_i_glide_ecoul>  (1) 
-1.2859500111846838

>  <r_i_glide_eff_state_penalty>  (1) 
-0

>  <r_i_glide_einternal>  (1) 
0.0034250349627402699

>  <r_i_glide_emodel>  (1) 
-34.570144976489438

>  <r_i_glide_emodel_strain>  (1) 
0

>  <r_i_glide_energy>  (1) 
-25.801633392341451

>  <r_i_glide_erotb>  (1) 
0

>  <r_i_glide_esite>  (1) 
-0.070475299554990919

>  <r_i_glide_evdw>  (1) 
-24.515683381156766

>  <r_i_glide_gscore>  (1) 
-5.6338249418887036

>  <r_i_glide_gscore_strain>  (1) 
0

>  <r_i_glide_hbond>  (1) 
0

>  <r_i_glide_ligand_efficiency>  (1) 
-0.43337114937605414

>  <r_i_glide_ligand_efficiency_ln>  (1) 
-1.5803380011828088

>  <r_i_glide_ligand_efficiency_sa>  (1) 
-1.0190006161853302

>  <r_i_glide_lipo>  (1) 
-1.231126307904165

>  <r_i_glide_metal>  (1) 
-0

>  <r_i_glide_rewards>  (1) 
-2.9135466636940071

>  <r_lp_Energy>  (1) 
14.229996

>  <r_lp_tautomer_probability>  (1) 
1

>  <s_epik_cmdline>  (1) 
J2VwaWtfcHl0aG9uJywgJy1waHQnLCAnMS4wJywgJy1waCcsICc3LjQnLCAnLXRuJywgJzgnLCAnLW1hJywgJzUwMCcsICctaW1hZScsICc8aW5maWxlLm1hZT4nLCAnLW9tYWUnLCAnPG91dGZpbGUubWFlPic=

>  <s_epik_input>  (1) 
TzFbQ0gyXVtDSDJdYyhjMTIpW2NIXWMoW2NIXVtjSF0yKVtOSF1DKD1PKVtDSDNd

>  <s_glide_docking_method>  (1) 
confgen

>  <s_i_glide_gridfile>  (1) 
gpcr_drd2_6luq_protein_autoprepared_prepared

>  <s_lp_Force_Field>  (1) 
S-OPLS

>  <s_lp_Variant>  (1) 
Pocket2Mol_94-1

>  <s_m_source_file>  (1) 
generated_generic_title2_ligand_Pocket2Mol_2026-06-23_prepared.sdf

>  <GenAI_Model>  (1) 
Pocket2Mol

>  <Protein>  (1) 
generic_title2

$$$$
Pocket2Mol_97
     RDKit          3D

  0  0  0  0  0  0  0  0  0  0999 V3000
M  V30 BEGIN CTAB
M  V30 COUNTS 24 25 0 0 1
M  V30 BEGIN ATOM
M  V30 1 C 9.177995 5.267706 -9.748415 0
M  V30 2 O 9.442633 4.981111 -8.385025 0
M  V30 3 C 9.657291 6.672220 -10.136429 0
M  V30 4 O 10.937600 6.905480 -9.585013 0
M  V30 5 C 9.067378 6.027221 -7.508084 0
M  V30 6 C 11.030571 7.456088 -8.325673 0
M  V30 7 C 12.033287 8.408422 -8.073576 0
M  V30 8 C 10.146503 7.073093 -7.278761 0
M  V30 9 C 12.993196 8.790227 -9.171830 0
M  V30 10 C 12.144376 9.004530 -6.800786 0
M  V30 11 C 11.263743 8.636997 -5.772215 0
M  V30 12 F 11.375456 9.209154 -4.549959 0
M  V30 13 C 10.271721 7.669942 -6.007663 0
M  V30 14 H 8.110732 5.166056 -9.949937 0
M  V30 15 H 9.687364 4.514953 -10.350371 0
M  V30 16 H 8.975411 7.459172 -9.825026 0
M  V30 17 H 9.721522 6.748420 -11.221789 0
M  V30 18 H 8.804702 5.590228 -6.548308 0
M  V30 19 H 8.175410 6.518340 -7.862821 0
M  V30 20 H 12.575404 9.590227 -9.781082 0
M  V30 21 H 13.939047 9.110230 -8.738599 0
M  V30 22 H 13.209500 7.946721 -9.825293 0
M  V30 23 H 12.912201 9.738356 -6.611930 0
M  V30 24 H 9.605493 7.382804 -5.212223 0
M  V30 END ATOM
M  V30 BEGIN BOND
M  V30 1 1 2 1
M  V30 2 1 3 1
M  V30 3 1 4 3
M  V30 4 1 5 2
M  V30 5 1 6 4
M  V30 6 2 7 6
M  V30 7 1 8 5
M  V30 8 1 8 6
M  V30 9 1 9 7
M  V30 10 1 10 7
M  V30 11 2 11 10
M  V30 12 1 12 11
M  V30 13 2 13 8
M  V30 14 1 13 11
M  V30 15 1 14 1
M  V30 16 1 15 1
M  V30 17 1 16 3
M  V30 18 1 17 3
M  V30 19 1 18 5
M  V30 20 1 19 5
M  V30 21 1 20 9
M  V30 22 1 21 9
M  V30 23 1 22 9
M  V30 24 1 23 10
M  V30 25 1 24 13
M  V30 END BOND
M  V30 END CTAB
M  END
>  <i_epik_Tot_Q>  (1) 
0

>  <i_epik_Tot_abs_Q>  (1) 
0

>  <i_i_glide_confnum>  (1) 
2

>  <i_i_glide_lignum>  (1) 
106

>  <i_i_glide_posenum>  (1) 
57

>  <i_i_glide_rotatable_bonds>  (1) 
0

>  <i_lp_mmshare_version>  (1) 
72125

>  <i_m_source_file_index>  (1) 
98

>  <i_f3d_flags>  (1) 
0

>  <num_sample>  (1) 
100

>  <b_lp_Chiralities_Consistent>  (1) 
1

>  <r_epik_Charging_Adjusted_Penalty>  (1) 
0

>  <r_epik_Ionization_Penalty>  (1) 
1.3261073421285308e-13

>  <r_epik_Ionization_Penalty_Charging>  (1) 
0

>  <r_epik_Ionization_Penalty_Neutral>  (1) 
1.3261073421285308e-13

>  <r_epik_State_Penalty>  (1) 
-0

>  <r_glide_ring_energy>  (1) 
1.7623001670689571

>  <r_i_docking_score>  (1) 
-5.6308082762991649

>  <r_i_glide_ecoul>  (1) 
-2.4600128466011077

>  <r_i_glide_eff_state_penalty>  (1) 
-0

>  <r_i_glide_einternal>  (1) 
0

>  <r_i_glide_emodel>  (1) 
-25.98677038385377

>  <r_i_glide_emodel_strain>  (1) 
0.035643452055207803

>  <r_i_glide_energy>  (1) 
-18.697017313586286

>  <r_i_glide_erotb>  (1) 
0

>  <r_i_glide_esite>  (1) 
0

>  <r_i_glide_evdw>  (1) 
-16.23700446698518

>  <r_i_glide_gscore>  (1) 
-5.6308082762991649

>  <r_i_glide_gscore_strain>  (1) 
0

>  <r_i_glide_hbond>  (1) 
0

>  <r_i_glide_ligand_efficiency>  (1) 
-0.43313909817685886

>  <r_i_glide_ligand_efficiency_ln>  (1) 
-1.5794917996559275

>  <r_i_glide_ligand_efficiency_sa>  (1) 
-1.018454986151335

>  <r_i_glide_lipo>  (1) 
-1.0293521921670916

>  <r_i_glide_metal>  (1) 
-0

>  <r_i_glide_rewards>  (1) 
-3.4206039337926484

>  <r_lp_Energy>  (1) 
15.481259999999999

>  <r_lp_tautomer_probability>  (1) 
1

>  <s_epik_cmdline>  (1) 
J2VwaWtfcHl0aG9uJywgJy1waHQnLCAnMS4wJywgJy1waCcsICc3LjQnLCAnLXRuJywgJzgnLCAnLW1hJywgJzUwMCcsICctaW1hZScsICc8aW5maWxlLm1hZT4nLCAnLW9tYWUnLCAnPG91dGZpbGUubWFlPic=

>  <s_epik_input>  (1) 
TzFbQ0gyXVtDSDJdT1tDSDJdYyhjMTIpW2NIXWMoRilbY0hdYzJbQ0gzXQ==

>  <s_glide_docking_method>  (1) 
confgen

>  <s_i_glide_gridfile>  (1) 
gpcr_drd2_6luq_protein_autoprepared_prepared

>  <s_lp_Force_Field>  (1) 
S-OPLS

>  <s_lp_Variant>  (1) 
Pocket2Mol_97-1

>  <s_m_source_file>  (1) 
generated_generic_title2_ligand_Pocket2Mol_2026-06-23_prepared.sdf

>  <GenAI_Model>  (1) 
Pocket2Mol

>  <Protein>  (1) 
generic_title2

$$$$
Pocket2Mol_98
     RDKit          3D

  0  0  0  0  0  0  0  0  0  0999 V3000
M  V30 BEGIN CTAB
M  V30 COUNTS 24 25 0 0 1
M  V30 BEGIN ATOM
M  V30 1 C 11.437596 8.852517 -5.603596 0
M  V30 2 O 12.175411 9.189673 -6.838903 0
M  V30 3 C 11.524364 8.445755 -7.760975 0
M  V30 4 C 10.555480 7.640684 -7.283540 0
M  V30 5 C 9.790067 6.823673 -8.128449 0
M  V30 6 C 10.368623 7.694016 -5.839667 0
M  V30 7 C 10.043596 6.839927 -9.517391 0
M  V30 8 N 9.236383 5.990297 -10.368132 0
M  V30 9 C 11.817740 8.499086 -9.132035 0
M  V30 10 C 11.078069 7.693544 -10.027044 0
M  V30 11 C 9.375819 5.831654 -11.707746 0
M  V30 12 O 10.229999 6.391108 -12.385207 0
M  V30 13 C 8.387581 4.880159 -12.371084 0
M  V30 14 H 12.138204 8.576867 -4.814775 0
M  V30 15 H 10.928256 9.755632 -5.264330 0
M  V30 16 H 9.014016 6.191431 -7.720802 0
M  V30 17 H 9.354328 7.989229 -5.585362 0
M  V30 18 H 10.639043 6.750132 -5.364725 0
M  V30 19 H 12.596707 9.151363 -9.499556 0
M  V30 20 H 11.303246 7.742781 -11.070546 0
M  V30 21 H 7.362462 5.185449 -12.158923 0
M  V30 22 H 8.526151 4.873997 -13.452683 0
M  V30 23 H 8.533545 3.864430 -12.002359 0
M  V30 24 H 8.498612 5.472660 -9.913386 0
M  V30 END ATOM
M  V30 BEGIN BOND
M  V30 1 1 2 1
M  V30 2 1 3 2
M  V30 3 2 4 3
M  V30 4 1 5 4
M  V30 5 1 6 1
M  V30 6 1 6 4
M  V30 7 2 7 5
M  V30 8 1 8 7
M  V30 9 1 9 3
M  V30 10 1 10 7
M  V30 11 2 10 9
M  V30 12 1 11 8
M  V30 13 2 12 11
M  V30 14 1 13 11
M  V30 15 1 14 1
M  V30 16 1 15 1
M  V30 17 1 16 5
M  V30 18 1 17 6
M  V30 19 1 18 6
M  V30 20 1 19 9
M  V30 21 1 20 10
M  V30 22 1 21 13
M  V30 23 1 22 13
M  V30 24 1 23 13
M  V30 25 1 24 8
M  V30 END BOND
M  V30 END CTAB
M  END
>  <i_epik_Tot_Q>  (1) 
0

>  <i_epik_Tot_abs_Q>  (1) 
0

>  <i_i_glide_confnum>  (1) 
1

>  <i_i_glide_lignum>  (1) 
107

>  <i_i_glide_posenum>  (1) 
21

>  <i_i_glide_rotatable_bonds>  (1) 
2

>  <i_lp_mmshare_version>  (1) 
72125

>  <i_m_source_file_index>  (1) 
99

>  <i_f3d_flags>  (1) 
0

>  <num_sample>  (1) 
100

>  <b_lp_Chiralities_Consistent>  (1) 
1

>  <r_epik_Charging_Adjusted_Penalty>  (1) 
0

>  <r_epik_Ionization_Penalty>  (1) 
1.4103773659367358e-07

>  <r_epik_Ionization_Penalty_Charging>  (1) 
0

>  <r_epik_Ionization_Penalty_Neutral>  (1) 
1.4103773659367358e-07

>  <r_epik_State_Penalty>  (1) 
-0

>  <r_glide_ring_energy>  (1) 
0

>  <r_i_docking_score>  (1) 
-5.6300885703258086

>  <r_i_glide_ecoul>  (1) 
-1.2823044554839298

>  <r_i_glide_eff_state_penalty>  (1) 
-0

>  <r_i_glide_einternal>  (1) 
0.044088096949212563

>  <r_i_glide_emodel>  (1) 
-34.563673472299421

>  <r_i_glide_emodel_strain>  (1) 
0

>  <r_i_glide_energy>  (1) 
-25.803958327235712

>  <r_i_glide_erotb>  (1) 
0

>  <r_i_glide_esite>  (1) 
-0.070449098536275553

>  <r_i_glide_evdw>  (1) 
-24.521653871751781

>  <r_i_glide_gscore>  (1) 
-5.6300885703258086

>  <r_i_glide_gscore_strain>  (1) 
0

>  <r_i_glide_hbond>  (1) 
0

>  <r_i_glide_ligand_efficiency>  (1) 
-0.43308373617890833

>  <r_i_glide_ligand_efficiency_ln>  (1) 
-1.5792899157296243

>  <r_i_glide_ligand_efficiency_sa>  (1) 
-1.0183248115651726

>  <r_i_glide_lipo>  (1) 
-1.2277308732417727

>  <r_i_glide_metal>  (1) 
-0

>  <r_i_glide_rewards>  (1) 
-2.9134802366375823

>  <r_lp_Energy>  (1) 
14.229996

>  <r_lp_tautomer_probability>  (1) 
1

>  <s_epik_cmdline>  (1) 
J2VwaWtfcHl0aG9uJywgJy1waHQnLCAnMS4wJywgJy1waCcsICc3LjQnLCAnLXRuJywgJzgnLCAnLW1hJywgJzUwMCcsICctaW1hZScsICc8aW5maWxlLm1hZT4nLCAnLW9tYWUnLCAnPG91dGZpbGUubWFlPic=

>  <s_epik_input>  (1) 
TzFbQ0gyXVtDSDJdYyhjMTIpW2NIXWMoW2NIXVtjSF0yKS9OPUMoXFtPSF0pW0NIM10=

>  <s_glide_docking_method>  (1) 
confgen

>  <s_i_glide_gridfile>  (1) 
gpcr_drd2_6luq_protein_autoprepared_prepared

>  <s_lp_Force_Field>  (1) 
S-OPLS

>  <s_lp_Variant>  (1) 
Pocket2Mol_98-1

>  <s_m_source_file>  (1) 
generated_generic_title2_ligand_Pocket2Mol_2026-06-23_prepared.sdf

>  <GenAI_Model>  (1) 
Pocket2Mol

>  <Protein>  (1) 
generic_title2

$$$$
Pocket2Mol_39
     RDKit          3D

  0  0  0  0  0  0  0  0  0  0999 V3000
M  V30 BEGIN CTAB
M  V30 COUNTS 14 15 0 0 1
M  V30 BEGIN ATOM
M  V30 1 C 12.175420 7.164400 -2.605993 0
M  V30 2 O 11.621830 6.390227 -3.609999 0
M  V30 3 C 11.375410 7.226710 -4.670901 0
M  V30 4 C 11.775410 8.530292 -4.344976 0
M  V30 5 C 11.584514 9.531919 -5.349333 0
M  V30 6 C 10.819832 6.895394 -5.891488 0
M  V30 7 C 12.292869 8.484193 -3.009253 0
M  V30 8 N 11.036421 9.190227 -6.557891 0
M  V30 9 C 10.662216 7.916749 -6.817519 0
M  V30 10 H 12.425185 6.643552 -1.692878 0
M  V30 11 H 11.857364 10.563512 -5.189473 0
M  V30 12 H 10.516490 5.885246 -6.113956 0
M  V30 13 H 12.688586 9.315159 -2.440861 0
M  V30 14 H 10.230341 7.722823 -7.788985 0
M  V30 END ATOM
M  V30 BEGIN BOND
M  V30 1 1 2 1
M  V30 2 1 3 2
M  V30 3 2 4 3
M  V30 4 1 5 4
M  V30 5 1 6 3
M  V30 6 2 7 1
M  V30 7 1 7 4
M  V30 8 2 8 5
M  V30 9 2 9 6
M  V30 10 1 9 8
M  V30 11 1 10 1
M  V30 12 1 11 5
M  V30 13 1 12 6
M  V30 14 1 13 7
M  V30 15 1 14 9
M  V30 END BOND
M  V30 END CTAB
M  END
>  <i_epik_Tot_Q>  (1) 
0

>  <i_epik_Tot_abs_Q>  (1) 
0

>  <i_i_glide_confnum>  (1) 
1

>  <i_i_glide_lignum>  (1) 
44

>  <i_i_glide_posenum>  (1) 
101

>  <i_i_glide_rotatable_bonds>  (1) 
0

>  <i_lp_mmshare_version>  (1) 
72125

>  <i_m_source_file_index>  (1) 
40

>  <i_f3d_flags>  (1) 
0

>  <num_sample>  (1) 
100

>  <b_lp_Chiralities_Consistent>  (1) 
1

>  <r_epik_Charging_Adjusted_Penalty>  (1) 
0

>  <r_epik_Ionization_Penalty>  (1) 
0.00075511756769225586

>  <r_epik_Ionization_Penalty_Charging>  (1) 
0

>  <r_epik_Ionization_Penalty_Neutral>  (1) 
0.00075511756769225586

>  <r_epik_State_Penalty>  (1) 
-0

>  <r_glide_ring_energy>  (1) 
0

>  <r_i_docking_score>  (1) 
-5.6293026667583836

>  <r_i_glide_ecoul>  (1) 
-0.66953753734858423

>  <r_i_glide_eff_state_penalty>  (1) 
-0

>  <r_i_glide_einternal>  (1) 
0

>  <r_i_glide_emodel>  (1) 
-27.835455168267565

>  <r_i_glide_emodel_strain>  (1) 
0

>  <r_i_glide_energy>  (1) 
-20.410471355433195

>  <r_i_glide_erotb>  (1) 
0

>  <r_i_glide_esite>  (1) 
0

>  <r_i_glide_evdw>  (1) 
-19.74093381808461

>  <r_i_glide_gscore>  (1) 
-5.6293026667583836

>  <r_i_glide_gscore_strain>  (1) 
0

>  <r_i_glide_hbond>  (1) 
0

>  <r_i_glide_ligand_efficiency>  (1) 
-0.62547807408426481

>  <r_i_glide_ligand_efficiency_ln>  (1) 
-1.7606841592117559

>  <r_i_glide_ligand_efficiency_sa>  (1) 
-1.3010468235763399

>  <r_i_glide_lipo>  (1) 
-1.8377278362603626

>  <r_i_glide_metal>  (1) 
-0

>  <r_i_glide_rewards>  (1) 
-2.7040975089915031

>  <r_lp_Energy>  (1) 
12.667646999999999

>  <r_lp_tautomer_probability>  (1) 
1

>  <s_epik_cmdline>  (1) 
J2VwaWtfcHl0aG9uJywgJy1waHQnLCAnMS4wJywgJy1waCcsICc3LjQnLCAnLXRuJywgJzgnLCAnLW1hJywgJzUwMCcsICctaW1hZScsICc8aW5maWxlLm1hZT4nLCAnLW9tYWUnLCAnPG91dGZpbGUubWFlPic=

>  <s_epik_input>  (1) 
bzFbY0hdW2NIXWMoYzEyKVtjSF1uW2NIXVtjSF0y

>  <s_glide_docking_method>  (1) 
confgen

>  <s_i_glide_gridfile>  (1) 
gpcr_drd2_6luq_protein_autoprepared_prepared

>  <s_lp_Force_Field>  (1) 
S-OPLS

>  <s_lp_Variant>  (1) 
Pocket2Mol_39-1

>  <s_m_source_file>  (1) 
generated_generic_title2_ligand_Pocket2Mol_2026-06-23_prepared.sdf

>  <GenAI_Model>  (1) 
Pocket2Mol

>  <Protein>  (1) 
generic_title2

$$$$
Pocket2Mol_74
     RDKit          3D

  0  0  0  0  0  0  0  0  0  0999 V3000
M  V30 BEGIN CTAB
M  V30 COUNTS 20 21 0 0 1
M  V30 BEGIN ATOM
M  V30 1 C 10.575411 6.790228 -5.644477 0
M  V30 2 O 10.707244 8.207230 -5.585026 0
M  V30 3 C 9.465601 6.414739 -6.622493 0
M  V30 4 O 9.274830 7.469940 -7.529576 0
M  V30 5 C 11.597805 8.821797 -6.392119 0
M  V30 6 C 10.345376 7.715905 -8.335277 0
M  V30 7 C 10.292216 7.326029 -9.685451 0
M  V30 8 O 12.421022 9.639060 -5.982256 0
M  V30 9 C 11.500371 8.382684 -7.833063 0
M  V30 10 C 12.575410 8.652937 -8.702721 0
M  V30 11 C 12.513906 8.256730 -10.048669 0
M  V30 12 C 11.375307 7.590227 -10.539162 0
M  V30 13 H 10.352168 6.395213 -4.653140 0
M  V30 14 H 11.519871 6.337463 -5.952325 0
M  V30 15 H 8.528410 6.265916 -6.089005 0
M  V30 16 H 9.687537 5.486356 -7.149650 0
M  V30 17 H 9.413636 6.824639 -10.066353 0
M  V30 18 H 13.454649 9.161893 -8.334535 0
M  V30 19 H 13.342981 8.465388 -10.708976 0
M  V30 20 H 11.330813 7.287566 -11.575185 0
M  V30 END ATOM
M  V30 BEGIN BOND
M  V30 1 1 2 1
M  V30 2 1 3 1
M  V30 3 1 4 3
M  V30 4 1 5 2
M  V30 5 1 6 4
M  V30 6 2 7 6
M  V30 7 2 8 5
M  V30 8 1 9 5
M  V30 9 1 9 6
M  V30 10 2 10 9
M  V30 11 1 11 10
M  V30 12 1 12 7
M  V30 13 2 12 11
M  V30 14 1 13 1
M  V30 15 1 14 1
M  V30 16 1 15 3
M  V30 17 1 16 3
M  V30 18 1 17 7
M  V30 19 1 18 10
M  V30 20 1 19 11
M  V30 21 1 20 12
M  V30 END BOND
M  V30 END CTAB
M  END
>  <i_epik_Tot_Q>  (1) 
0

>  <i_epik_Tot_abs_Q>  (1) 
0

>  <i_i_glide_confnum>  (1) 
4

>  <i_i_glide_lignum>  (1) 
81

>  <i_i_glide_posenum>  (1) 
115

>  <i_i_glide_rotatable_bonds>  (1) 
0

>  <i_lp_mmshare_version>  (1) 
72125

>  <i_m_source_file_index>  (1) 
75

>  <i_f3d_flags>  (1) 
0

>  <num_sample>  (1) 
100

>  <b_lp_Chiralities_Consistent>  (1) 
1

>  <r_epik_Charging_Adjusted_Penalty>  (1) 
0

>  <r_epik_Ionization_Penalty>  (1) 
6.5779134034160639e-16

>  <r_epik_Ionization_Penalty_Charging>  (1) 
0

>  <r_epik_Ionization_Penalty_Neutral>  (1) 
6.5779134034160639e-16

>  <r_epik_State_Penalty>  (1) 
-0

>  <r_glide_ring_energy>  (1) 
0.44236994610234265

>  <r_i_docking_score>  (1) 
-5.6236220864168178

>  <r_i_glide_ecoul>  (1) 
-1.3363020352723602

>  <r_i_glide_eff_state_penalty>  (1) 
-0

>  <r_i_glide_einternal>  (1) 
0

>  <r_i_glide_emodel>  (1) 
-30.33291965761795

>  <r_i_glide_emodel_strain>  (1) 
0

>  <r_i_glide_energy>  (1) 
-22.024728246836549

>  <r_i_glide_erotb>  (1) 
0

>  <r_i_glide_esite>  (1) 
0

>  <r_i_glide_evdw>  (1) 
-20.688426211564188

>  <r_i_glide_gscore>  (1) 
-5.6236220864168178

>  <r_i_glide_gscore_strain>  (1) 
0

>  <r_i_glide_hbond>  (1) 
0

>  <r_i_glide_ligand_efficiency>  (1) 
-0.46863517386806813

>  <r_i_glide_ligand_efficiency_ln>  (1) 
-1.6137080994002877

>  <r_i_glide_ligand_efficiency_sa>  (1) 
-1.0729067161764694

>  <r_i_glide_lipo>  (1) 
-1.0439531388423846

>  <r_i_glide_metal>  (1) 
-0

>  <r_i_glide_rewards>  (1) 
-3.3448023317053699

>  <r_lp_Energy>  (1) 
17.344456999999998

>  <r_lp_tautomer_probability>  (1) 
1

>  <s_epik_Chemistry_Notes>  (1) 
This compound has an ester and may undergo hydrolysis at high or low pH.

>  <s_epik_cmdline>  (1) 
J2VwaWtfcHl0aG9uJywgJy1waHQnLCAnMS4wJywgJy1waCcsICc3LjQnLCAnLXRuJywgJzgnLCAnLW1hJywgJzUwMCcsICctaW1hZScsICc8aW5maWxlLm1hZT4nLCAnLW9tYWUnLCAnPG91dGZpbGUubWFlPic=

>  <s_epik_input>  (1) 
TzFbQ0gyXVtDSDJdT0MoPU8pYyhjMTIpW2NIXVtjSF1bY0hdW2NIXTI=

>  <s_glide_docking_method>  (1) 
confgen

>  <s_i_glide_gridfile>  (1) 
gpcr_drd2_6luq_protein_autoprepared_prepared

>  <s_lp_Force_Field>  (1) 
S-OPLS

>  <s_lp_Variant>  (1) 
Pocket2Mol_74-1

>  <s_m_source_file>  (1) 
generated_generic_title2_ligand_Pocket2Mol_2026-06-23_prepared.sdf

>  <GenAI_Model>  (1) 
Pocket2Mol

>  <Protein>  (1) 
generic_title2

$$$$
Pocket2Mol_95
     RDKit          3D

  0  0  0  0  0  0  0  0  0  0999 V3000
M  V30 BEGIN CTAB
M  V30 COUNTS 23 24 0 0 1
M  V30 BEGIN ATOM
M  V30 1 C 12.473026 9.746304 -5.086466 0
M  V30 2 O 12.975410 9.481170 -6.385020 0
M  V30 3 C 12.133470 8.791150 -7.231685 0
M  V30 4 C 11.756630 8.525523 -4.522147 0
M  V30 5 O 10.679600 8.193170 -5.384619 0
M  V30 6 C 10.970998 8.156196 -6.730218 0
M  V30 7 C 10.100531 7.486035 -7.610616 0
M  V30 8 O 8.975414 6.884153 -7.099843 0
M  V30 9 C 10.389271 7.458910 -9.004629 0
M  V30 10 O 9.534421 6.862704 -9.883189 0
M  V30 11 C 12.430906 8.723513 -8.605743 0
M  V30 12 C 11.560072 8.065420 -9.488300 0
M  V30 13 C 8.541871 5.617674 -7.585030 0
M  V30 14 H 11.798412 10.603720 -5.126675 0
M  V30 15 H 13.311423 9.990215 -4.435307 0
M  V30 16 H 11.375410 8.766560 -3.531484 0
M  V30 17 H 12.422895 7.675038 -4.385021 0
M  V30 18 H 8.627056 7.015367 -9.625242 0
M  V30 19 H 13.324238 9.190227 -8.985819 0
M  V30 20 H 11.784862 8.036121 -10.543926 0
M  V30 21 H 7.852983 5.190345 -6.859358 0
M  V30 22 H 7.953977 5.692331 -8.497696 0
M  V30 23 H 9.372191 4.927721 -7.737825 0
M  V30 END ATOM
M  V30 BEGIN BOND
M  V30 1 1 2 1
M  V30 2 1 3 2
M  V30 3 1 4 1
M  V30 4 1 5 4
M  V30 5 2 6 3
M  V30 6 1 6 5
M  V30 7 1 7 6
M  V30 8 1 8 7
M  V30 9 2 9 7
M  V30 10 1 10 9
M  V30 11 1 11 3
M  V30 12 1 12 9
M  V30 13 2 12 11
M  V30 14 1 13 8
M  V30 15 1 14 1
M  V30 16 1 15 1
M  V30 17 1 16 4
M  V30 18 1 17 4
M  V30 19 1 18 10
M  V30 20 1 19 11
M  V30 21 1 20 12
M  V30 22 1 21 13
M  V30 23 1 22 13
M  V30 24 1 23 13
M  V30 END BOND
M  V30 END CTAB
M  END
>  <i_epik_Tot_Q>  (1) 
0

>  <i_epik_Tot_abs_Q>  (1) 
0

>  <i_i_glide_confnum>  (1) 
2

>  <i_i_glide_lignum>  (1) 
104

>  <i_i_glide_posenum>  (1) 
174

>  <i_i_glide_rotatable_bonds>  (1) 
2

>  <i_lp_mmshare_version>  (1) 
72125

>  <i_m_source_file_index>  (1) 
96

>  <i_f3d_flags>  (1) 
0

>  <num_sample>  (1) 
100

>  <b_lp_Chiralities_Consistent>  (1) 
1

>  <r_epik_Charging_Adjusted_Penalty>  (1) 
0

>  <r_epik_Ionization_Penalty>  (1) 
0.0014130578134093086

>  <r_epik_Ionization_Penalty_Charging>  (1) 
0

>  <r_epik_Ionization_Penalty_Neutral>  (1) 
0.0014130578134093086

>  <r_epik_State_Penalty>  (1) 
-0

>  <r_glide_ring_energy>  (1) 
0.003085301398031638

>  <r_i_docking_score>  (1) 
-5.617288535661161

>  <r_i_glide_ecoul>  (1) 
-3.2014379237984301

>  <r_i_glide_eff_state_penalty>  (1) 
-0

>  <r_i_glide_einternal>  (1) 
2.0509759685151243

>  <r_i_glide_emodel>  (1) 
-27.333080546378667

>  <r_i_glide_emodel_strain>  (1) 
0.68717392488647278

>  <r_i_glide_energy>  (1) 
-21.663348111917514

>  <r_i_glide_erotb>  (1) 
0

>  <r_i_glide_esite>  (1) 
0

>  <r_i_glide_evdw>  (1) 
-18.461910188119084

>  <r_i_glide_gscore>  (1) 
-5.617288535661161

>  <r_i_glide_gscore_strain>  (1) 
0

>  <r_i_glide_hbond>  (1) 
-0.16

>  <r_i_glide_ligand_efficiency>  (1) 
-0.43209911812778162

>  <r_i_glide_ligand_efficiency_ln>  (1) 
-1.575699392167808

>  <r_i_glide_ligand_efficiency_sa>  (1) 
-1.0160096449874023

>  <r_i_glide_lipo>  (1) 
-1.5022741442503875

>  <r_i_glide_metal>  (1) 
-0

>  <r_i_glide_rewards>  (1) 
-2.5517031934350554

>  <r_lp_Energy>  (1) 
25.525124999999999

>  <r_lp_tautomer_probability>  (1) 
1

>  <s_epik_cmdline>  (1) 
J2VwaWtfcHl0aG9uJywgJy1waHQnLCAnMS4wJywgJy1waCcsICc3LjQnLCAnLXRuJywgJzgnLCAnLW1hJywgJzUwMCcsICctaW1hZScsICc8aW5maWxlLm1hZT4nLCAnLW9tYWUnLCAnPG91dGZpbGUubWFlPic=

>  <s_epik_input>  (1) 
TzFbQ0gyXVtDSDJdT2MoYzEyKWMoT1tDSDNdKWMoW09IXSlbY0hdW2NIXTI=

>  <s_glide_docking_method>  (1) 
confgen

>  <s_i_glide_gridfile>  (1) 
gpcr_drd2_6luq_protein_autoprepared_prepared

>  <s_lp_Force_Field>  (1) 
S-OPLS

>  <s_lp_Variant>  (1) 
Pocket2Mol_95-1

>  <s_m_source_file>  (1) 
generated_generic_title2_ligand_Pocket2Mol_2026-06-23_prepared.sdf

>  <GenAI_Model>  (1) 
Pocket2Mol

>  <Protein>  (1) 
generic_title2

$$$$
Pocket2Mol_56
     RDKit          3D

  0  0  0  0  0  0  0  0  0  0999 V3000
M  V30 BEGIN CTAB
M  V30 COUNTS 19 20 0 0 1
M  V30 BEGIN ATOM
M  V30 1 C 10.162755 6.764762 -7.090595 0
M  V30 2 O 10.975389 6.302087 -6.020998 0
M  V30 3 C 11.369509 7.254020 -5.109871 0
M  V30 4 C 11.375410 8.630572 -5.461045 0
M  V30 5 C 11.775429 9.590232 -4.516972 0
M  V30 6 C 11.775408 6.857971 -3.819416 0
M  V30 7 C 12.177823 7.825244 -2.878513 0
M  V30 8 N 10.984988 9.041733 -6.742552 0
M  V30 9 C 10.836795 7.980209 -7.724366 0
M  V30 10 C 12.175508 9.190235 -3.225923 0
M  V30 11 H 10.048420 5.965909 -7.823568 0
M  V30 12 H 9.164707 7.011402 -6.722958 0
M  V30 13 H 11.775366 10.636228 -4.785061 0
M  V30 14 H 11.774687 5.811972 -3.551383 0
M  V30 15 H 12.486513 7.520322 -1.889461 0
M  V30 16 H 11.176668 9.982904 -7.050571 0
M  V30 17 H 11.816497 7.711177 -8.121151 0
M  V30 18 H 10.237973 8.346688 -8.558898 0
M  V30 19 H 12.482343 9.931083 -2.502101 0
M  V30 END ATOM
M  V30 BEGIN BOND
M  V30 1 1 2 1
M  V30 2 1 3 2
M  V30 3 1 4 3
M  V30 4 2 5 4
M  V30 5 2 6 3
M  V30 6 1 7 6
M  V30 7 1 8 4
M  V30 8 1 9 1
M  V30 9 1 9 8
M  V30 10 1 10 5
M  V30 11 2 10 7
M  V30 12 1 11 1
M  V30 13 1 12 1
M  V30 14 1 13 5
M  V30 15 1 14 6
M  V30 16 1 15 7
M  V30 17 1 16 8
M  V30 18 1 17 9
M  V30 19 1 18 9
M  V30 20 1 19 10
M  V30 END BOND
M  V30 END CTAB
M  END
>  <i_epik_Tot_Q>  (1) 
0

>  <i_epik_Tot_abs_Q>  (1) 
0

>  <i_i_glide_confnum>  (1) 
1

>  <i_i_glide_lignum>  (1) 
63

>  <i_i_glide_posenum>  (1) 
104

>  <i_i_glide_rotatable_bonds>  (1) 
0

>  <i_lp_mmshare_version>  (1) 
72125

>  <i_m_source_file_index>  (1) 
57

>  <i_f3d_flags>  (1) 
0

>  <num_sample>  (1) 
100

>  <b_lp_Chiralities_Consistent>  (1) 
1

>  <r_epik_Charging_Adjusted_Penalty>  (1) 
0

>  <r_epik_Ionization_Penalty>  (1) 
0.00026422915675488977

>  <r_epik_Ionization_Penalty_Charging>  (1) 
0

>  <r_epik_Ionization_Penalty_Neutral>  (1) 
0.00026422915675488977

>  <r_epik_State_Penalty>  (1) 
-0

>  <r_glide_ring_energy>  (1) 
0

>  <r_i_docking_score>  (1) 
-5.6131123735672253

>  <r_i_glide_ecoul>  (1) 
-0.14955878915544862

>  <r_i_glide_eff_state_penalty>  (1) 
-0

>  <r_i_glide_einternal>  (1) 
0

>  <r_i_glide_emodel>  (1) 
-28.495400685130772

>  <r_i_glide_emodel_strain>  (1) 
0

>  <r_i_glide_energy>  (1) 
-20.716287473904188

>  <r_i_glide_erotb>  (1) 
0

>  <r_i_glide_esite>  (1) 
0

>  <r_i_glide_evdw>  (1) 
-20.566728684748739

>  <r_i_glide_gscore>  (1) 
-5.6131123735672253

>  <r_i_glide_gscore_strain>  (1) 
0

>  <r_i_glide_hbond>  (1) 
0

>  <r_i_glide_ligand_efficiency>  (1) 
-0.5613112373567225

>  <r_i_glide_ligand_efficiency_ln>  (1) 
-1.6996117330858869

>  <r_i_glide_ligand_efficiency_sa>  (1) 
-1.2093084016660438

>  <r_i_glide_lipo>  (1) 
-1.9889298555984447

>  <r_i_glide_metal>  (1) 
-0

>  <r_i_glide_rewards>  (1) 
-2.5734122653580256

>  <r_lp_Energy>  (1) 
15.245389999999999

>  <r_lp_tautomer_probability>  (1) 
1

>  <s_epik_cmdline>  (1) 
J2VwaWtfcHl0aG9uJywgJy1waHQnLCAnMS4wJywgJy1waCcsICc3LjQnLCAnLXRuJywgJzgnLCAnLW1hJywgJzUwMCcsICctaW1hZScsICc8aW5maWxlLm1hZT4nLCAnLW9tYWUnLCAnPG91dGZpbGUubWFlPic=

>  <s_epik_input>  (1) 
TzFbQ0gyXVtDSDJdW05IXWMoYzEyKVtjSF1bY0hdW2NIXVtjSF0y

>  <s_glide_docking_method>  (1) 
confgen

>  <s_i_glide_gridfile>  (1) 
gpcr_drd2_6luq_protein_autoprepared_prepared

>  <s_lp_Force_Field>  (1) 
S-OPLS

>  <s_lp_Variant>  (1) 
Pocket2Mol_56-1

>  <s_m_source_file>  (1) 
generated_generic_title2_ligand_Pocket2Mol_2026-06-23_prepared.sdf

>  <GenAI_Model>  (1) 
Pocket2Mol

>  <Protein>  (1) 
generic_title2

$$$$
Pocket2Mol_87
     RDKit          3D

  0  0  0  0  0  0  0  0  0  0999 V3000
M  V30 BEGIN CTAB
M  V30 COUNTS 21 22 0 0 1
M  V30 BEGIN ATOM
M  V30 1 C 9.708387 6.532338 -8.915477 0
M  V30 2 O 9.947677 7.899065 -8.734841 0
M  V30 3 C 9.274113 5.998256 -7.585025 0
M  V30 4 O 10.507598 5.837029 -6.951570 0
M  V30 5 C 11.047184 8.464607 -8.198030 0
M  V30 6 C 10.975407 6.853335 -6.173932 0
M  V30 7 C 11.239957 6.596318 -4.811489 0
M  V30 8 O 11.764414 9.237982 -8.827864 0
M  V30 9 C 11.258727 8.141590 -6.720149 0
M  V30 10 C 11.791002 9.149325 -5.862326 0
M  V30 11 C 11.775410 7.598446 -3.985019 0
M  V30 12 O 12.060906 10.390231 -6.344009 0
M  V30 13 C 12.039980 8.871895 -4.504859 0
M  V30 14 H 8.901928 6.421440 -9.640207 0
M  V30 15 H 10.575410 6.008192 -9.310907 0
M  V30 16 H 8.581845 6.653996 -7.051827 0
M  V30 17 H 8.802159 5.022496 -7.697997 0
M  V30 18 H 11.039124 5.616704 -4.402923 0
M  V30 19 H 11.976238 7.388414 -2.944733 0
M  V30 20 H 11.938721 10.435351 -7.283072 0
M  V30 21 H 12.444678 9.640747 -3.863261 0
M  V30 END ATOM
M  V30 BEGIN BOND
M  V30 1 1 2 1
M  V30 2 1 3 1
M  V30 3 1 4 3
M  V30 4 1 5 2
M  V30 5 1 6 4
M  V30 6 2 7 6
M  V30 7 2 8 5
M  V30 8 1 9 5
M  V30 9 1 9 6
M  V30 10 2 10 9
M  V30 11 1 11 7
M  V30 12 1 12 10
M  V30 13 1 13 10
M  V30 14 2 13 11
M  V30 15 1 14 1
M  V30 16 1 15 1
M  V30 17 1 16 3
M  V30 18 1 17 3
M  V30 19 1 18 7
M  V30 20 1 19 11
M  V30 21 1 20 12
M  V30 22 1 21 13
M  V30 END BOND
M  V30 END CTAB
M  END
>  <i_epik_Tot_Q>  (1) 
0

>  <i_epik_Tot_abs_Q>  (1) 
0

>  <i_i_glide_confnum>  (1) 
2

>  <i_i_glide_lignum>  (1) 
94

>  <i_i_glide_posenum>  (1) 
170

>  <i_i_glide_rotatable_bonds>  (1) 
1

>  <i_lp_mmshare_version>  (1) 
72125

>  <i_m_source_file_index>  (1) 
88

>  <i_f3d_flags>  (1) 
0

>  <num_sample>  (1) 
100

>  <b_lp_Chiralities_Consistent>  (1) 
1

>  <r_epik_Charging_Adjusted_Penalty>  (1) 
0.011568550508496497

>  <r_epik_Ionization_Penalty>  (1) 
0.011568550508503217

>  <r_epik_Ionization_Penalty_Charging>  (1) 
0

>  <r_epik_Ionization_Penalty_Neutral>  (1) 
0.011568550508503217

>  <r_epik_State_Penalty>  (1) 
0.011568550508496497

>  <r_glide_ring_energy>  (1) 
0.0013752515646527682

>  <r_i_docking_score>  (1) 
-5.6031960090230264

>  <r_i_glide_ecoul>  (1) 
-0.88748387828948361

>  <r_i_glide_eff_state_penalty>  (1) 
0.011568550508496497

>  <r_i_glide_einternal>  (1) 
0.03643317963027326

>  <r_i_glide_emodel>  (1) 
-26.642354361436869

>  <r_i_glide_emodel_strain>  (1) 
0

>  <r_i_glide_energy>  (1) 
-19.738562831663906

>  <r_i_glide_erotb>  (1) 
0

>  <r_i_glide_esite>  (1) 
0

>  <r_i_glide_evdw>  (1) 
-18.851078953374422

>  <r_i_glide_gscore>  (1) 
-5.6147645595315225

>  <r_i_glide_gscore_strain>  (1) 
0

>  <r_i_glide_hbond>  (1) 
0

>  <r_i_glide_ligand_efficiency>  (1) 
-0.43101507761715585

>  <r_i_glide_ligand_efficiency_ln>  (1) 
-1.5717463131125224

>  <r_i_glide_ligand_efficiency_sa>  (1) 
-1.0134607029318734

>  <r_i_glide_lipo>  (1) 
-1.6086695921600418

>  <r_i_glide_metal>  (1) 
-0

>  <r_i_glide_rewards>  (1) 
-2.9304184379593368

>  <r_lp_Energy>  (1) 
16.036355

>  <s_epik_Chemistry_Notes>  (1) 
This compound has an ester and may undergo hydrolysis at high or low pH.

>  <s_epik_cmdline>  (1) 
J2VwaWtfcHl0aG9uJywgJy1waHQnLCAnMS4wJywgJy1waCcsICc3LjQnLCAnLXRuJywgJzgnLCAnLW1hJywgJzUwMCcsICctaW1hZScsICc8aW5maWxlLm1hZT4nLCAnLW9tYWUnLCAnPG91dGZpbGUubWFlPic=

>  <s_epik_input>  (1) 
TzFbQ0gyXVtDSDJdT0MoPU8pYyhjMTIpYyhbT0hdKVtjSF1bY0hdW2NIXTI=

>  <s_glide_docking_method>  (1) 
confgen

>  <s_i_glide_gridfile>  (1) 
gpcr_drd2_6luq_protein_autoprepared_prepared

>  <s_lp_Force_Field>  (1) 
S-OPLS

>  <s_lp_Variant>  (1) 
Pocket2Mol_87-1

>  <s_m_source_file>  (1) 
generated_generic_title2_ligand_Pocket2Mol_2026-06-23_prepared.sdf

>  <GenAI_Model>  (1) 
Pocket2Mol

>  <Protein>  (1) 
generic_title2

$$$$
Pocket2Mol_39
     RDKit          3D

  0  0  0  0  0  0  0  0  0  0999 V3000
M  V30 BEGIN CTAB
M  V30 COUNTS 14 15 0 0 1
M  V30 BEGIN ATOM
M  V30 1 C 9.775409 7.614496 -7.570540 0
M  V30 2 O 10.374940 8.790227 -7.169690 0
M  V30 3 C 10.988505 8.540083 -5.968209 0
M  V30 4 C 10.792909 7.204124 -5.611749 0
M  V30 5 C 11.375410 6.773696 -4.375833 0
M  V30 6 C 11.701479 9.431201 -5.184831 0
M  V30 7 C 10.009125 6.609654 -6.652265 0
M  V30 8 N 12.094211 7.660520 -3.606152 0
M  V30 9 C 12.240954 8.947643 -3.997207 0
M  V30 10 H 9.230079 7.652912 -8.504956 0
M  V30 11 H 11.273760 5.759985 -4.018836 0
M  V30 12 H 11.832508 10.459503 -5.484886 0
M  V30 13 H 9.667124 5.590228 -6.697833 0
M  V30 14 H 12.808073 9.593249 -3.342791 0
M  V30 END ATOM
M  V30 BEGIN BOND
M  V30 1 1 2 1
M  V30 2 1 3 2
M  V30 3 2 4 3
M  V30 4 1 5 4
M  V30 5 1 6 3
M  V30 6 2 7 1
M  V30 7 1 7 4
M  V30 8 2 8 5
M  V30 9 2 9 6
M  V30 10 1 9 8
M  V30 11 1 10 1
M  V30 12 1 11 5
M  V30 13 1 12 6
M  V30 14 1 13 7
M  V30 15 1 14 9
M  V30 END BOND
M  V30 END CTAB
M  END
>  <i_epik_Tot_Q>  (1) 
0

>  <i_epik_Tot_abs_Q>  (1) 
0

>  <i_i_glide_confnum>  (1) 
1

>  <i_i_glide_lignum>  (1) 
44

>  <i_i_glide_posenum>  (1) 
178

>  <i_i_glide_rotatable_bonds>  (1) 
0

>  <i_lp_mmshare_version>  (1) 
72125

>  <i_m_source_file_index>  (1) 
40

>  <i_f3d_flags>  (1) 
0

>  <num_sample>  (1) 
100

>  <b_lp_Chiralities_Consistent>  (1) 
1

>  <r_epik_Charging_Adjusted_Penalty>  (1) 
0

>  <r_epik_Ionization_Penalty>  (1) 
0.00075511756769225586

>  <r_epik_Ionization_Penalty_Charging>  (1) 
0

>  <r_epik_Ionization_Penalty_Neutral>  (1) 
0.00075511756769225586

>  <r_epik_State_Penalty>  (1) 
-0

>  <r_glide_ring_energy>  (1) 
0

>  <r_i_docking_score>  (1) 
-5.6030545698435725

>  <r_i_glide_ecoul>  (1) 
-1.7098797037757754

>  <r_i_glide_eff_state_penalty>  (1) 
-0

>  <r_i_glide_einternal>  (1) 
0

>  <r_i_glide_emodel>  (1) 
-28.228440125643814

>  <r_i_glide_emodel_strain>  (1) 
0

>  <r_i_glide_energy>  (1) 
-20.838077243011163

>  <r_i_glide_erotb>  (1) 
0

>  <r_i_glide_esite>  (1) 
0

>  <r_i_glide_evdw>  (1) 
-19.128197539235387

>  <r_i_glide_gscore>  (1) 
-5.6030545698435725

>  <r_i_glide_gscore_strain>  (1) 
0

>  <r_i_glide_hbond>  (1) 
0

>  <r_i_glide_ligand_efficiency>  (1) 
-0.62256161887150807

>  <r_i_glide_ligand_efficiency_ln>  (1) 
-1.7524745085350808

>  <r_i_glide_ligand_efficiency_sa>  (1) 
-1.2949803522676291

>  <r_i_glide_lipo>  (1) 
-1.6200083517963402

>  <r_i_glide_metal>  (1) 
-0

>  <r_i_glide_rewards>  (1) 
-2.770154385519096

>  <r_lp_Energy>  (1) 
12.667646999999999

>  <r_lp_tautomer_probability>  (1) 
1

>  <s_epik_cmdline>  (1) 
J2VwaWtfcHl0aG9uJywgJy1waHQnLCAnMS4wJywgJy1waCcsICc3LjQnLCAnLXRuJywgJzgnLCAnLW1hJywgJzUwMCcsICctaW1hZScsICc8aW5maWxlLm1hZT4nLCAnLW9tYWUnLCAnPG91dGZpbGUubWFlPic=

>  <s_epik_input>  (1) 
bzFbY0hdW2NIXWMoYzEyKVtjSF1uW2NIXVtjSF0y

>  <s_glide_docking_method>  (1) 
confgen

>  <s_i_glide_gridfile>  (1) 
gpcr_drd2_6luq_protein_autoprepared_prepared

>  <s_lp_Force_Field>  (1) 
S-OPLS

>  <s_lp_Variant>  (1) 
Pocket2Mol_39-1

>  <s_m_source_file>  (1) 
generated_generic_title2_ligand_Pocket2Mol_2026-06-23_prepared.sdf

>  <GenAI_Model>  (1) 
Pocket2Mol

>  <Protein>  (1) 
generic_title2

$$$$
Pocket2Mol_96
     RDKit          3D

  0  0  0  0  0  0  0  0  0  0999 V3000
M  V30 BEGIN CTAB
M  V30 COUNTS 20 21 0 0 1
M  V30 BEGIN ATOM
M  V30 1 C 9.357797 5.404478 -9.690669 0
M  V30 2 O 9.775410 6.669849 -10.117780 0
M  V30 3 C 8.722070 5.509147 -8.354046 0
M  V30 4 O 9.873167 5.445608 -7.602791 0
M  V30 5 C 10.671187 7.590227 -9.636823 0
M  V30 6 C 10.422975 6.613150 -7.188094 0
M  V30 7 C 10.628479 6.790227 -5.804146 0
M  V30 8 O 11.265044 8.361154 -10.385016 0
M  V30 9 C 10.834704 7.646030 -8.105708 0
M  V30 10 C 11.225568 7.959303 -5.313880 0
M  V30 11 C 11.636116 8.961722 -6.198099 0
M  V30 12 F 12.215053 10.084799 -5.719604 0
M  V30 13 C 11.451433 8.804656 -7.580568 0
M  V30 14 H 8.618805 5.053083 -10.410707 0
M  V30 15 H 10.175253 4.684171 -9.704510 0
M  V30 16 H 8.175410 6.425640 -8.191791 0
M  V30 17 H 8.084275 4.653002 -8.134033 0
M  V30 18 H 10.325174 6.014984 -5.115126 0
M  V30 19 H 11.375499 8.083603 -4.252155 0
M  V30 20 H 11.775413 9.589351 -8.249239 0
M  V30 END ATOM
M  V30 BEGIN BOND
M  V30 1 1 2 1
M  V30 2 1 3 1
M  V30 3 1 4 3
M  V30 4 1 5 2
M  V30 5 1 6 4
M  V30 6 1 7 6
M  V30 7 2 8 5
M  V30 8 1 9 5
M  V30 9 2 9 6
M  V30 10 2 10 7
M  V30 11 1 11 10
M  V30 12 1 12 11
M  V30 13 1 13 9
M  V30 14 2 13 11
M  V30 15 1 14 1
M  V30 16 1 15 1
M  V30 17 1 16 3
M  V30 18 1 17 3
M  V30 19 1 18 7
M  V30 20 1 19 10
M  V30 21 1 20 13
M  V30 END BOND
M  V30 END CTAB
M  END
>  <i_epik_Tot_Q>  (1) 
0

>  <i_epik_Tot_abs_Q>  (1) 
0

>  <i_i_glide_confnum>  (1) 
2

>  <i_i_glide_lignum>  (1) 
105

>  <i_i_glide_posenum>  (1) 
363

>  <i_i_glide_rotatable_bonds>  (1) 
0

>  <i_lp_mmshare_version>  (1) 
72125

>  <i_m_source_file_index>  (1) 
97

>  <i_f3d_flags>  (1) 
0

>  <num_sample>  (1) 
100

>  <b_lp_Chiralities_Consistent>  (1) 
1

>  <r_epik_Charging_Adjusted_Penalty>  (1) 
0

>  <r_epik_Ionization_Penalty>  (1) 
0

>  <r_epik_Ionization_Penalty_Charging>  (1) 
0

>  <r_epik_Ionization_Penalty_Neutral>  (1) 
0

>  <r_epik_State_Penalty>  (1) 
-0

>  <r_glide_ring_energy>  (1) 
0.0013675176162265368

>  <r_i_docking_score>  (1) 
-5.5939688663816716

>  <r_i_glide_ecoul>  (1) 
-1.659645930669621

>  <r_i_glide_eff_state_penalty>  (1) 
-0

>  <r_i_glide_einternal>  (1) 
0

>  <r_i_glide_emodel>  (1) 
-29.481825119850498

>  <r_i_glide_emodel_strain>  (1) 
0.033285615914216748

>  <r_i_glide_energy>  (1) 
-20.742847627440629

>  <r_i_glide_erotb>  (1) 
0

>  <r_i_glide_esite>  (1) 
-0.010266618830843177

>  <r_i_glide_evdw>  (1) 
-19.083201696771006

>  <r_i_glide_gscore>  (1) 
-5.5939688663816716

>  <r_i_glide_gscore_strain>  (1) 
0

>  <r_i_glide_hbond>  (1) 
0

>  <r_i_glide_ligand_efficiency>  (1) 
-0.43030529741397472

>  <r_i_glide_ligand_efficiency_ln>  (1) 
-1.5691580175391107

>  <r_i_glide_ligand_efficiency_sa>  (1) 
-1.011791772119476

>  <r_i_glide_lipo>  (1) 
-1.2714809606955508

>  <r_i_glide_metal>  (1) 
-0

>  <r_i_glide_rewards>  (1) 
-3.1091143124162843

>  <r_lp_Energy>  (1) 
17.467690999999999

>  <r_lp_tautomer_probability>  (1) 
1

>  <s_epik_Chemistry_Notes>  (1) 
This compound has an ester and may undergo hydrolysis at high or low pH.

>  <s_epik_cmdline>  (1) 
J2VwaWtfcHl0aG9uJywgJy1waHQnLCAnMS4wJywgJy1waCcsICc3LjQnLCAnLXRuJywgJzgnLCAnLW1hJywgJzUwMCcsICctaW1hZScsICc8aW5maWxlLm1hZT4nLCAnLW9tYWUnLCAnPG91dGZpbGUubWFlPic=

>  <s_epik_input>  (1) 
TzFbQ0gyXVtDSDJdT0MoPU8pYyhjMTIpW2NIXWMoRilbY0hdW2NIXTI=

>  <s_glide_docking_method>  (1) 
confgen

>  <s_i_glide_gridfile>  (1) 
gpcr_drd2_6luq_protein_autoprepared_prepared

>  <s_lp_Force_Field>  (1) 
S-OPLS

>  <s_lp_Variant>  (1) 
Pocket2Mol_96-1

>  <s_m_source_file>  (1) 
generated_generic_title2_ligand_Pocket2Mol_2026-06-23_prepared.sdf

>  <GenAI_Model>  (1) 
Pocket2Mol

>  <Protein>  (1) 
generic_title2

$$$$
Pocket2Mol_68
     RDKit          3D

  0  0  0  0  0  0  0  0  0  0999 V3000
M  V30 BEGIN CTAB
M  V30 COUNTS 19 20 0 0 1
M  V30 BEGIN ATOM
M  V30 1 C 9.499032 6.536380 -7.359948 0
M  V30 2 O 10.437248 6.098629 -6.387985 0
M  V30 3 C 10.975725 7.087942 -5.599186 0
M  V30 4 C 10.087331 7.731008 -8.109745 0
M  V30 5 O 10.287130 8.790227 -7.185645 0
M  V30 6 C 10.901197 8.444080 -6.001581 0
M  V30 7 C 11.610503 6.750420 -4.385476 0
M  V30 8 C 12.175285 7.758476 -3.578259 0
M  V30 9 C 11.456250 9.446763 -5.187065 0
M  V30 10 O 11.375861 10.746698 -5.572243 0
M  V30 11 C 12.096675 9.105895 -3.977765 0
M  V30 12 H 8.567989 6.812662 -6.867984 0
M  V30 13 H 9.278764 5.717689 -8.045363 0
M  V30 14 H 9.404114 8.066656 -8.890519 0
M  V30 15 H 11.030147 7.467989 -8.590870 0
M  V30 16 H 11.668361 5.716754 -4.077296 0
M  V30 17 H 12.664750 7.497361 -2.651777 0
M  V30 18 H 11.736557 11.362243 -4.955160 0
M  V30 19 H 12.526414 9.876908 -3.355940 0
M  V30 END ATOM
M  V30 BEGIN BOND
M  V30 1 1 2 1
M  V30 2 1 3 2
M  V30 3 1 4 1
M  V30 4 1 5 4
M  V30 5 1 6 3
M  V30 6 1 6 5
M  V30 7 2 7 3
M  V30 8 1 8 7
M  V30 9 2 9 6
M  V30 10 1 10 9
M  V30 11 2 11 8
M  V30 12 1 11 9
M  V30 13 1 12 1
M  V30 14 1 13 1
M  V30 15 1 14 4
M  V30 16 1 15 4
M  V30 17 1 16 7
M  V30 18 1 17 8
M  V30 19 1 18 10
M  V30 20 1 19 11
M  V30 END BOND
M  V30 END CTAB
M  END
>  <i_epik_Tot_Q>  (1) 
0

>  <i_epik_Tot_abs_Q>  (1) 
0

>  <i_i_glide_confnum>  (1) 
2

>  <i_i_glide_lignum>  (1) 
75

>  <i_i_glide_posenum>  (1) 
329

>  <i_i_glide_rotatable_bonds>  (1) 
1

>  <i_lp_mmshare_version>  (1) 
72125

>  <i_m_source_file_index>  (1) 
69

>  <i_f3d_flags>  (1) 
0

>  <num_sample>  (1) 
100

>  <b_lp_Chiralities_Consistent>  (1) 
1

>  <r_epik_Charging_Adjusted_Penalty>  (1) 
0.0030607566555237334

>  <r_epik_Ionization_Penalty>  (1) 
0.0030607566555237659

>  <r_epik_Ionization_Penalty_Charging>  (1) 
0

>  <r_epik_Ionization_Penalty_Neutral>  (1) 
0.0030607566555237659

>  <r_epik_State_Penalty>  (1) 
0.0030607566555237334

>  <r_glide_ring_energy>  (1) 
0.0030878583902879796

>  <r_i_docking_score>  (1) 
-5.5871213515892366

>  <r_i_glide_ecoul>  (1) 
-0.76836173998626933

>  <r_i_glide_eff_state_penalty>  (1) 
0.0030607566555237334

>  <r_i_glide_einternal>  (1) 
0.020115452806602319

>  <r_i_glide_emodel>  (1) 
-26.925416938516531

>  <r_i_glide_emodel_strain>  (1) 
0

>  <r_i_glide_energy>  (1) 
-19.653399049605927

>  <r_i_glide_erotb>  (1) 
0

>  <r_i_glide_esite>  (1) 
0

>  <r_i_glide_evdw>  (1) 
-18.885037309619658

>  <r_i_glide_gscore>  (1) 
-5.5901821082447603

>  <r_i_glide_gscore_strain>  (1) 
0

>  <r_i_glide_hbond>  (1) 
0

>  <r_i_glide_ligand_efficiency>  (1) 
-0.50792012287174881

>  <r_i_glide_ligand_efficiency_ln>  (1) 
-1.6442888620837059

>  <r_i_glide_ligand_efficiency_sa>  (1) 
-1.1296042408662899

>  <r_i_glide_lipo>  (1) 
-1.732775476170489

>  <r_i_glide_metal>  (1) 
-0

>  <r_i_glide_rewards>  (1) 
-2.7979005055953476

>  <r_lp_Energy>  (1) 
16.942557999999998

>  <r_lp_tautomer_probability>  (1) 
0.99999999996300004

>  <s_epik_cmdline>  (1) 
J2VwaWtfcHl0aG9uJywgJy1waHQnLCAnMS4wJywgJy1waCcsICc3LjQnLCAnLXRuJywgJzgnLCAnLW1hJywgJzUwMCcsICctaW1hZScsICc8aW5maWxlLm1hZT4nLCAnLW9tYWUnLCAnPG91dGZpbGUubWFlPic=

>  <s_epik_input>  (1) 
TzFbQ0gyXVtDSDJdT2MoYzEyKWMoW09IXSlbY0hdW2NIXVtjSF0y

>  <s_glide_docking_method>  (1) 
confgen

>  <s_i_glide_gridfile>  (1) 
gpcr_drd2_6luq_protein_autoprepared_prepared

>  <s_lp_Force_Field>  (1) 
S-OPLS

>  <s_lp_Variant>  (1) 
Pocket2Mol_68-1

>  <s_m_source_file>  (1) 
generated_generic_title2_ligand_Pocket2Mol_2026-06-23_prepared.sdf

>  <GenAI_Model>  (1) 
Pocket2Mol

>  <Protein>  (1) 
generic_title2

$$$$
Pocket2Mol_47
     RDKit          3D

  0  0  0  0  0  0  0  0  0  0999 V3000
M  V30 BEGIN CTAB
M  V30 COUNTS 16 17 0 0 1
M  V30 BEGIN ATOM
M  V30 1 C 9.775408 8.227607 -7.484950 0
M  V30 2 O 10.546541 9.097711 -6.759696 0
M  V30 3 C 11.089275 8.630659 -5.586707 0
M  V30 4 C 10.975412 7.260405 -5.244590 0
M  V30 5 C 11.535211 6.789503 -4.041170 0
M  V30 6 C 11.758588 9.516635 -4.722633 0
M  V30 7 C 12.315723 9.041599 -3.518225 0
M  V30 8 O 10.320062 6.390251 -6.083694 0
M  V30 9 C 12.204466 7.679070 -3.178345 0
M  V30 10 C 9.666777 6.928489 -7.160339 0
M  V30 11 H 9.280539 8.702012 -8.320324 0
M  V30 12 H 11.448868 5.745732 -3.778972 0
M  V30 13 H 11.841436 10.560311 -4.982930 0
M  V30 14 H 12.828117 9.721885 -2.854543 0
M  V30 15 H 12.631905 7.316145 -2.255025 0
M  V30 16 H 9.071437 6.202751 -7.694832 0
M  V30 END ATOM
M  V30 BEGIN BOND
M  V30 1 1 2 1
M  V30 2 1 3 2
M  V30 3 1 4 3
M  V30 4 2 5 4
M  V30 5 2 6 3
M  V30 6 1 7 6
M  V30 7 1 8 4
M  V30 8 1 9 5
M  V30 9 2 9 7
M  V30 10 2 10 1
M  V30 11 1 10 8
M  V30 12 1 11 1
M  V30 13 1 12 5
M  V30 14 1 13 6
M  V30 15 1 14 7
M  V30 16 1 15 9
M  V30 17 1 16 10
M  V30 END BOND
M  V30 END CTAB
M  END
>  <i_epik_Tot_Q>  (1) 
0

>  <i_epik_Tot_abs_Q>  (1) 
0

>  <i_i_glide_confnum>  (1) 
1

>  <i_i_glide_lignum>  (1) 
53

>  <i_i_glide_posenum>  (1) 
367

>  <i_i_glide_rotatable_bonds>  (1) 
0

>  <i_lp_mmshare_version>  (1) 
72125

>  <i_m_source_file_index>  (1) 
48

>  <i_f3d_flags>  (1) 
0

>  <num_sample>  (1) 
100

>  <b_lp_Chiralities_Consistent>  (1) 
1

>  <r_epik_Charging_Adjusted_Penalty>  (1) 
0

>  <r_epik_Ionization_Penalty>  (1) 
0

>  <r_epik_Ionization_Penalty_Charging>  (1) 
0

>  <r_epik_Ionization_Penalty_Neutral>  (1) 
0

>  <r_epik_State_Penalty>  (1) 
-0

>  <r_glide_ring_energy>  (1) 
0

>  <r_i_docking_score>  (1) 
-5.584898267796798

>  <r_i_glide_ecoul>  (1) 
-0.94381179243363744

>  <r_i_glide_eff_state_penalty>  (1) 
-0

>  <r_i_glide_einternal>  (1) 
0

>  <r_i_glide_emodel>  (1) 
-28.36388511872655

>  <r_i_glide_emodel_strain>  (1) 
2.3060664489094052e-11

>  <r_i_glide_energy>  (1) 
-21.098983953330745

>  <r_i_glide_erotb>  (1) 
0

>  <r_i_glide_esite>  (1) 
0

>  <r_i_glide_evdw>  (1) 
-20.155172160897106

>  <r_i_glide_gscore>  (1) 
-5.584898267796798

>  <r_i_glide_gscore_strain>  (1) 
0

>  <r_i_glide_hbond>  (1) 
0

>  <r_i_glide_ligand_efficiency>  (1) 
-0.55848982677967984

>  <r_i_glide_ligand_efficiency_ln>  (1) 
-1.6910686963507306

>  <r_i_glide_ligand_efficiency_sa>  (1) 
-1.20322985684404

>  <r_i_glide_lipo>  (1) 
-1.7725453653738092

>  <r_i_glide_metal>  (1) 
-0

>  <r_i_glide_rewards>  (1) 
-2.6630225255130879

>  <r_lp_Energy>  (1) 
24.726983000000001

>  <r_lp_tautomer_probability>  (1) 
1

>  <s_epik_cmdline>  (1) 
J2VwaWtfcHl0aG9uJywgJy1waHQnLCAnMS4wJywgJy1waCcsICc3LjQnLCAnLXRuJywgJzgnLCAnLW1hJywgJzUwMCcsICctaW1hZScsICc8aW5maWxlLm1hZT4nLCAnLW9tYWUnLCAnPG91dGZpbGUubWFlPic=

>  <s_epik_input>  (1) 
TzFbQ0hdPVtDSF1PYyhjMTIpW2NIXVtjSF1bY0hdW2NIXTI=

>  <s_glide_docking_method>  (1) 
confgen

>  <s_i_glide_gridfile>  (1) 
gpcr_drd2_6luq_protein_autoprepared_prepared

>  <s_lp_Force_Field>  (1) 
S-OPLS

>  <s_lp_Variant>  (1) 
Pocket2Mol_47-1

>  <s_m_source_file>  (1) 
generated_generic_title2_ligand_Pocket2Mol_2026-06-23_prepared.sdf

>  <GenAI_Model>  (1) 
Pocket2Mol

>  <Protein>  (1) 
generic_title2

$$$$
Pocket2Mol_75
     RDKit          3D

  0  0  0  0  0  0  0  0  0  0999 V3000
M  V30 BEGIN CTAB
M  V30 COUNTS 17 18 0 0 1
M  V30 BEGIN ATOM
M  V30 1 C 12.116980 9.254502 -4.691457 0
M  V30 2 O 11.375403 8.100128 -4.591606 0
M  V30 3 C 10.968420 7.765655 -5.858923 0
M  V30 4 C 11.467845 8.703885 -6.770026 0
M  V30 5 C 11.154286 8.497809 -8.141008 0
M  V30 6 C 10.358437 7.383749 -8.545698 0
M  V30 7 C 12.204392 9.667799 -6.006064 0
M  V30 8 N 10.046273 7.173496 -9.976550 0 CHG=1
M  V30 9 C 9.869864 6.475802 -7.573384 0
M  V30 10 O 10.485433 7.990192 -10.779110 0 CHG=-1
M  V30 11 C 10.182236 6.674407 -6.220435 0
M  V30 12 O 9.375191 6.189209 -10.274053 0
M  V30 13 H 12.507282 9.646598 -3.764777 0
M  V30 14 H 11.523564 9.190867 -8.880926 0
M  V30 15 H 12.720303 10.533562 -6.384966 0
M  V30 16 H 9.262097 5.632407 -7.870839 0
M  V30 17 H 9.820901 5.990227 -5.467254 0
M  V30 END ATOM
M  V30 BEGIN BOND
M  V30 1 1 2 1
M  V30 2 1 3 2
M  V30 3 1 4 3
M  V30 4 2 5 4
M  V30 5 1 6 5
M  V30 6 2 7 1
M  V30 7 1 7 4
M  V30 8 1 8 6
M  V30 9 2 9 6
M  V30 10 1 10 8
M  V30 11 2 11 3
M  V30 12 1 11 9
M  V30 13 2 12 8
M  V30 14 1 13 1
M  V30 15 1 14 5
M  V30 16 1 15 7
M  V30 17 1 16 9
M  V30 18 1 17 11
M  V30 END BOND
M  V30 END CTAB
M  END
>  <i_epik_Tot_Q>  (1) 
0

>  <i_epik_Tot_abs_Q>  (1) 
2

>  <i_i_glide_confnum>  (1) 
1

>  <i_i_glide_lignum>  (1) 
82

>  <i_i_glide_posenum>  (1) 
302

>  <i_i_glide_rotatable_bonds>  (1) 
1

>  <i_lp_mmshare_version>  (1) 
72125

>  <i_m_source_file_index>  (1) 
76

>  <i_f3d_flags>  (1) 
0

>  <num_sample>  (1) 
100

>  <b_lp_Chiralities_Consistent>  (1) 
1

>  <r_epik_Charging_Adjusted_Penalty>  (1) 
0

>  <r_epik_Ionization_Penalty>  (1) 
0

>  <r_epik_Ionization_Penalty_Charging>  (1) 
0

>  <r_epik_Ionization_Penalty_Neutral>  (1) 
0

>  <r_epik_State_Penalty>  (1) 
-0

>  <r_glide_ring_energy>  (1) 
0

>  <r_i_docking_score>  (1) 
-5.5827800882684731

>  <r_i_glide_ecoul>  (1) 
-0.53090309670030222

>  <r_i_glide_eff_state_penalty>  (1) 
-0

>  <r_i_glide_einternal>  (1) 
0.0013463096052377388

>  <r_i_glide_emodel>  (1) 
-31.330496589359804

>  <r_i_glide_emodel_strain>  (1) 
0

>  <r_i_glide_energy>  (1) 
-22.244540663459841

>  <r_i_glide_erotb>  (1) 
0

>  <r_i_glide_esite>  (1) 
-0.1734841762543966

>  <r_i_glide_evdw>  (1) 
-21.713637566759537

>  <r_i_glide_gscore>  (1) 
-5.5827800882684731

>  <r_i_glide_gscore_strain>  (1) 
0

>  <r_i_glide_hbond>  (1) 
0

>  <r_i_glide_ligand_efficiency>  (1) 
-0.46523167402237275

>  <r_i_glide_ligand_efficiency_ln>  (1) 
-1.6019884172817351

>  <r_i_glide_ligand_efficiency_sa>  (1) 
-1.0651146466806782

>  <r_i_glide_lipo>  (1) 
-1.5939785691710542

>  <r_i_glide_metal>  (1) 
-0

>  <r_i_glide_rewards>  (1) 
-2.6499999999999999

>  <r_lp_Energy>  (1) 
17.097996999999999

>  <r_lp_tautomer_probability>  (1) 
1

>  <s_epik_cmdline>  (1) 
J2VwaWtfcHl0aG9uJywgJy1waHQnLCAnMS4wJywgJy1waCcsICc3LjQnLCAnLXRuJywgJzgnLCAnLW1hJywgJzUwMCcsICctaW1hZScsICc8aW5maWxlLm1hZT4nLCAnLW9tYWUnLCAnPG91dGZpbGUubWFlPic=

>  <s_epik_input>  (1) 
bzFbY0hdW2NIXWMoYzEyKVtjSF1jKFtOK10oW08tXSk9TylbY0hdW2NIXTI=

>  <s_glide_docking_method>  (1) 
confgen

>  <s_i_glide_gridfile>  (1) 
gpcr_drd2_6luq_protein_autoprepared_prepared

>  <s_lp_Force_Field>  (1) 
S-OPLS

>  <s_lp_Variant>  (1) 
Pocket2Mol_75-1

>  <s_m_source_file>  (1) 
generated_generic_title2_ligand_Pocket2Mol_2026-06-23_prepared.sdf

>  <GenAI_Model>  (1) 
Pocket2Mol

>  <Protein>  (1) 
generic_title2

$$$$
Pocket2Mol_92
     RDKit          3D

  0  0  0  0  0  0  0  0  0  0999 V3000
M  V30 BEGIN CTAB
M  V30 COUNTS 26 27 0 0 1
M  V30 BEGIN ATOM
M  V30 1 C 10.115721 8.236022 -8.882865 0
M  V30 2 O 10.245838 6.838274 -9.122396 0
M  V30 3 C 9.375327 8.584970 -7.581918 0
M  V30 4 O 10.287860 8.671739 -6.506207 0
M  V30 5 C 10.290607 5.979963 -7.988018 0
M  V30 6 C 10.585522 7.417818 -5.904921 0 CFG=2
M  V30 7 C 11.375415 7.597884 -4.621698 0
M  V30 8 C 11.267131 6.463627 -6.896312 0
M  V30 9 C 11.476271 6.541395 -3.696032 0
M  V30 10 N 11.928019 8.818998 -4.422137 0
M  V30 11 C 12.575396 9.015467 -3.253828 0
M  V30 12 C 12.716419 8.026127 -2.265464 0
M  V30 13 C 12.162562 6.761338 -2.494490 0
M  V30 14 H 9.571801 8.653457 -9.730821 0
M  V30 15 H 11.100022 8.706154 -8.894951 0
M  V30 16 H 8.574829 7.889950 -7.362508 0
M  V30 17 H 8.897183 9.556442 -7.676523 0
M  V30 18 H 9.289227 5.824537 -7.585016 0
M  V30 19 H 10.575410 4.996111 -8.353451 0
M  V30 20 H 12.164442 6.911263 -7.323507 0
M  V30 21 H 11.607327 5.589422 -6.345599 0
M  V30 22 H 11.017365 5.590175 -3.900397 0
M  V30 23 H 12.996718 9.990531 -3.104921 0
M  V30 24 H 13.245000 8.239221 -1.348309 0
M  V30 25 H 12.252613 5.976584 -1.757490 0
M  V30 26 H 9.644086 6.969657 -5.584414 0
M  V30 END ATOM
M  V30 BEGIN BOND
M  V30 1 1 2 1
M  V30 2 1 3 1
M  V30 3 1 4 3
M  V30 4 1 5 2
M  V30 5 1 6 4
M  V30 6 1 7 6
M  V30 7 1 8 5
M  V30 8 1 8 6
M  V30 9 1 9 7
M  V30 10 2 10 7
M  V30 11 1 11 10
M  V30 12 2 12 11
M  V30 13 2 13 9
M  V30 14 1 13 12
M  V30 15 1 14 1
M  V30 16 1 15 1
M  V30 17 1 16 3
M  V30 18 1 17 3
M  V30 19 1 18 5
M  V30 20 1 19 5
M  V30 21 1 20 8
M  V30 22 1 21 8
M  V30 23 1 22 9
M  V30 24 1 23 11
M  V30 25 1 24 12
M  V30 26 1 25 13
M  V30 27 1 6 26 CFG=1
M  V30 END BOND
M  V30 END CTAB
M  END
>  <i_epik_Tot_Q>  (1) 
0

>  <i_epik_Tot_abs_Q>  (1) 
0

>  <i_i_glide_confnum>  (1) 
1

>  <i_i_glide_lignum>  (1) 
101

>  <i_i_glide_posenum>  (1) 
196

>  <i_i_glide_rotatable_bonds>  (1) 
1

>  <i_lp_mmshare_version>  (1) 
72125

>  <i_m_source_file_index>  (1) 
93

>  <i_f3d_flags>  (1) 
0

>  <num_sample>  (1) 
100

>  <b_lp_Chiralities_Consistent>  (1) 
1

>  <r_epik_Charging_Adjusted_Penalty>  (1) 
0.0037896276157117258

>  <r_epik_Ionization_Penalty>  (1) 
0.0037896276174286705

>  <r_epik_Ionization_Penalty_Charging>  (1) 
0

>  <r_epik_Ionization_Penalty_Neutral>  (1) 
0.0037896276174286705

>  <r_epik_State_Penalty>  (1) 
0.0037896276157117258

>  <r_glide_ring_energy>  (1) 
0

>  <r_i_docking_score>  (1) 
-5.5808737722478057

>  <r_i_glide_ecoul>  (1) 
-2.3886964790036496

>  <r_i_glide_eff_state_penalty>  (1) 
0.0037896276157117258

>  <r_i_glide_einternal>  (1) 
0.7524784523639001

>  <r_i_glide_emodel>  (1) 
-33.111877046329219

>  <r_i_glide_emodel_strain>  (1) 
0.32524959367759188

>  <r_i_glide_energy>  (1) 
-24.959297117505795

>  <r_i_glide_erotb>  (1) 
0.4895878840251785

>  <r_i_glide_esite>  (1) 
0

>  <r_i_glide_evdw>  (1) 
-22.570600638502146

>  <r_i_glide_gscore>  (1) 
-5.5846633998635173

>  <r_i_glide_gscore_strain>  (1) 
0

>  <r_i_glide_hbond>  (1) 
0

>  <r_i_glide_ligand_efficiency>  (1) 
-0.42929798248060042

>  <r_i_glide_ligand_efficiency_ln>  (1) 
-1.565484727172038

>  <r_i_glide_ligand_efficiency_sa>  (1) 
-1.0094232375751739

>  <r_i_glide_lipo>  (1) 
-1.7944134662323878

>  <r_i_glide_metal>  (1) 
-0

>  <r_i_glide_rewards>  (1) 
-2.7930033138806545

>  <r_lp_Energy>  (1) 
20.663057999999999

>  <s_epik_cmdline>  (1) 
J2VwaWtfcHl0aG9uJywgJy1waHQnLCAnMS4wJywgJy1waCcsICc3LjQnLCAnLXRuJywgJzgnLCAnLW1hJywgJzUwMCcsICctaW1hZScsICc8aW5maWxlLm1hZT4nLCAnLW9tYWUnLCAnPG91dGZpbGUubWFlPic=

>  <s_epik_input>  (1) 
W0NIMl0xW0NIMl1PW0NIMl1bQ0gyXU8vQzE9QzJcW0NIXT1bQ0hdW0NIXT1bQ0hdW05IXTI=

>  <s_glide_docking_method>  (1) 
confgen

>  <s_i_glide_gridfile>  (1) 
gpcr_drd2_6luq_protein_autoprepared_prepared

>  <s_lp_Force_Field>  (1) 
S-OPLS

>  <s_lp_Variant>  (1) 
Pocket2Mol_92-2

>  <s_m_source_file>  (1) 
generated_generic_title2_ligand_Pocket2Mol_2026-06-23_prepared.sdf

>  <GenAI_Model>  (1) 
Pocket2Mol

>  <Protein>  (1) 
generic_title2

$$$$
Pocket2Mol_86
     RDKit          3D

  0  0  0  0  0  0  0  0  0  0999 V3000
M  V30 BEGIN CTAB
M  V30 COUNTS 25 26 0 0 1
M  V30 BEGIN ATOM
M  V30 1 C 12.276343 9.550820 -4.103520 0
M  V30 2 O 11.775412 8.175474 -3.941657 0
M  V30 3 C 11.375410 7.880173 -5.196989 0
M  V30 4 C 11.644369 8.810690 -6.132590 0
M  V30 5 C 11.292235 8.626660 -7.480240 0
M  V30 6 C 12.328951 10.000804 -5.635004 0
M  V30 7 C 10.727468 6.685886 -5.525740 0
M  V30 8 C 10.628840 7.427131 -7.864249 0
M  V30 9 N 10.258146 7.203343 -9.219792 0
M  V30 10 C 10.349335 6.449947 -6.865113 0
M  V30 11 C 10.197918 8.390227 -10.064348 0
M  V30 12 C 9.312051 6.114995 -9.457053 0
M  V30 13 H 11.576031 10.184993 -3.558160 0
M  V30 14 H 13.250669 9.656250 -3.625349 0
M  V30 15 H 11.527334 9.387452 -8.207270 0
M  V30 16 H 13.347452 10.055614 -6.020488 0
M  V30 17 H 11.775539 10.917374 -5.838785 0
M  V30 18 H 10.519713 5.952212 -4.762579 0
M  V30 19 H 9.851067 5.530248 -7.121917 0
M  V30 20 H 11.198034 8.759180 -10.292651 0
M  V30 21 H 9.710713 8.162320 -11.012882 0
M  V30 22 H 9.616811 9.179667 -9.584952 0
M  V30 23 H 9.784703 5.142774 -9.317549 0
M  V30 24 H 8.453996 6.184989 -8.787551 0
M  V30 25 H 8.929312 6.146740 -10.477462 0
M  V30 END ATOM
M  V30 BEGIN BOND
M  V30 1 1 2 1
M  V30 2 1 3 2
M  V30 3 2 4 3
M  V30 4 1 5 4
M  V30 5 1 6 1
M  V30 6 1 6 4
M  V30 7 1 7 3
M  V30 8 2 8 5
M  V30 9 1 9 8
M  V30 10 2 10 7
M  V30 11 1 10 8
M  V30 12 1 11 9
M  V30 13 1 12 9
M  V30 14 1 13 1
M  V30 15 1 14 1
M  V30 16 1 15 5
M  V30 17 1 16 6
M  V30 18 1 17 6
M  V30 19 1 18 7
M  V30 20 1 19 10
M  V30 21 1 20 11
M  V30 22 1 21 11
M  V30 23 1 22 11
M  V30 24 1 23 12
M  V30 25 1 24 12
M  V30 26 1 25 12
M  V30 END BOND
M  V30 END CTAB
M  END
>  <i_epik_Tot_Q>  (1) 
0

>  <i_epik_Tot_abs_Q>  (1) 
0

>  <i_i_glide_confnum>  (1) 
1

>  <i_i_glide_lignum>  (1) 
93

>  <i_i_glide_posenum>  (1) 
96

>  <i_i_glide_rotatable_bonds>  (1) 
1

>  <i_lp_mmshare_version>  (1) 
72125

>  <i_m_source_file_index>  (1) 
87

>  <i_f3d_flags>  (1) 
0

>  <num_sample>  (1) 
100

>  <b_lp_Chiralities_Consistent>  (1) 
1

>  <r_epik_Charging_Adjusted_Penalty>  (1) 
0.017477600144237933

>  <r_epik_Ionization_Penalty>  (1) 
0.017477600144237951

>  <r_epik_Ionization_Penalty_Charging>  (1) 
0

>  <r_epik_Ionization_Penalty_Neutral>  (1) 
0.017477600144237951

>  <r_epik_State_Penalty>  (1) 
0.017477600144237933

>  <r_glide_ring_energy>  (1) 
0

>  <r_i_docking_score>  (1) 
-5.5790320538454914

>  <r_i_glide_ecoul>  (1) 
-0.36998222801910741

>  <r_i_glide_eff_state_penalty>  (1) 
0.017477600144237933

>  <r_i_glide_einternal>  (1) 
0.097292736877611308

>  <r_i_glide_emodel>  (1) 
-30.281394138818371

>  <r_i_glide_emodel_strain>  (1) 
0

>  <r_i_glide_energy>  (1) 
-21.544565479193153

>  <r_i_glide_erotb>  (1) 
0

>  <r_i_glide_esite>  (1) 
-0.056256841931642099

>  <r_i_glide_evdw>  (1) 
-21.174583251174045

>  <r_i_glide_gscore>  (1) 
-5.5965096539897292

>  <r_i_glide_gscore_strain>  (1) 
0

>  <r_i_glide_hbond>  (1) 
0

>  <r_i_glide_ligand_efficiency>  (1) 
-0.46491933782045763

>  <r_i_glide_ligand_efficiency_ln>  (1) 
-1.6009129123114056

>  <r_i_glide_ligand_efficiency_sa>  (1) 
-1.0643995752830835

>  <r_i_glide_lipo>  (1) 
-1.7839716528444012

>  <r_i_glide_metal>  (1) 
-0

>  <r_i_glide_rewards>  (1) 
-2.6420546624521175

>  <r_lp_Energy>  (1) 
28.069341999999999

>  <r_lp_tautomer_probability>  (1) 
1

>  <s_epik_cmdline>  (1) 
J2VwaWtfcHl0aG9uJywgJy1waHQnLCAnMS4wJywgJy1waCcsICc3LjQnLCAnLXRuJywgJzgnLCAnLW1hJywgJzUwMCcsICctaW1hZScsICc8aW5maWxlLm1hZT4nLCAnLW9tYWUnLCAnPG91dGZpbGUubWFlPic=

>  <s_epik_input>  (1) 
TzFbQ0gyXVtDSDJdYyhjMTIpW2NIXWMoTihbQ0gzXSlbQ0gzXSlbY0hdW2NIXTI=

>  <s_glide_docking_method>  (1) 
confgen

>  <s_i_glide_gridfile>  (1) 
gpcr_drd2_6luq_protein_autoprepared_prepared

>  <s_lp_Force_Field>  (1) 
S-OPLS

>  <s_lp_Variant>  (1) 
Pocket2Mol_86-1

>  <s_m_source_file>  (1) 
generated_generic_title2_ligand_Pocket2Mol_2026-06-23_prepared.sdf

>  <GenAI_Model>  (1) 
Pocket2Mol

>  <Protein>  (1) 
generic_title2

$$$$
Pocket2Mol_64
     RDKit          3D

  0  0  0  0  0  0  0  0  0  0999 V3000
M  V30 BEGIN CTAB
M  V30 COUNTS 16 17 0 0 1
M  V30 BEGIN ATOM
M  V30 1 C 11.775246 9.040337 -4.963444 0
M  V30 2 O 10.877254 8.029417 -5.185082 0
M  V30 3 C 10.629244 7.676828 -6.492821 0
M  V30 4 C 11.377672 8.263295 -7.542231 0
M  V30 5 C 11.122375 7.897488 -8.878334 0
M  V30 6 C 9.628895 6.732620 -6.789012 0
M  V30 7 C 9.375642 6.369426 -8.126416 0
M  V30 8 O 12.351479 9.190226 -7.259544 0
M  V30 9 C 12.482500 9.595664 -5.960348 0
M  V30 10 F 11.838409 8.456372 -9.882848 0
M  V30 11 C 10.122913 6.951028 -9.169785 0
M  V30 12 H 11.840175 9.321599 -3.923025 0
M  V30 13 H 9.053105 6.287142 -5.991201 0
M  V30 14 H 8.605189 5.647436 -8.352719 0
M  V30 15 H 13.202292 10.390066 -5.843718 0
M  V30 16 H 9.925583 6.672543 -10.194460 0
M  V30 END ATOM
M  V30 BEGIN BOND
M  V30 1 1 2 1
M  V30 2 1 3 2
M  V30 3 1 4 3
M  V30 4 2 5 4
M  V30 5 2 6 3
M  V30 6 1 7 6
M  V30 7 1 8 4
M  V30 8 2 9 1
M  V30 9 1 9 8
M  V30 10 1 10 5
M  V30 11 1 11 5
M  V30 12 2 11 7
M  V30 13 1 12 1
M  V30 14 1 13 6
M  V30 15 1 14 7
M  V30 16 1 15 9
M  V30 17 1 16 11
M  V30 END BOND
M  V30 END CTAB
M  END
>  <i_epik_Tot_Q>  (1) 
0

>  <i_epik_Tot_abs_Q>  (1) 
0

>  <i_i_glide_confnum>  (1) 
1

>  <i_i_glide_lignum>  (1) 
71

>  <i_i_glide_posenum>  (1) 
248

>  <i_i_glide_rotatable_bonds>  (1) 
0

>  <i_lp_mmshare_version>  (1) 
72125

>  <i_m_source_file_index>  (1) 
65

>  <i_f3d_flags>  (1) 
0

>  <num_sample>  (1) 
100

>  <b_lp_Chiralities_Consistent>  (1) 
1

>  <r_epik_Charging_Adjusted_Penalty>  (1) 
0

>  <r_epik_Ionization_Penalty>  (1) 
0

>  <r_epik_Ionization_Penalty_Charging>  (1) 
0

>  <r_epik_Ionization_Penalty_Neutral>  (1) 
0

>  <r_epik_State_Penalty>  (1) 
-0

>  <r_glide_ring_energy>  (1) 
0

>  <r_i_docking_score>  (1) 
-5.5725223835065165

>  <r_i_glide_ecoul>  (1) 
-0.67852352638365832

>  <r_i_glide_eff_state_penalty>  (1) 
-0

>  <r_i_glide_einternal>  (1) 
0

>  <r_i_glide_emodel>  (1) 
-27.088202221315623

>  <r_i_glide_emodel_strain>  (1) 
0

>  <r_i_glide_energy>  (1) 
-19.855933028863717

>  <r_i_glide_erotb>  (1) 
0

>  <r_i_glide_esite>  (1) 
0

>  <r_i_glide_evdw>  (1) 
-19.17740950248006

>  <r_i_glide_gscore>  (1) 
-5.5725223835065165

>  <r_i_glide_gscore_strain>  (1) 
0

>  <r_i_glide_hbond>  (1) 
0

>  <r_i_glide_ligand_efficiency>  (1) 
-0.50659294395513788

>  <r_i_glide_ligand_efficiency_ln>  (1) 
-1.6399923882636942

>  <r_i_glide_ligand_efficiency_sa>  (1) 
-1.1266526213791239

>  <r_i_glide_lipo>  (1) 
-1.2423640806441831

>  <r_i_glide_metal>  (1) 
-0

>  <r_i_glide_rewards>  (1) 
-3.2695092987807817

>  <r_lp_Energy>  (1) 
23.975801000000001

>  <r_lp_tautomer_probability>  (1) 
1

>  <s_epik_cmdline>  (1) 
J2VwaWtfcHl0aG9uJywgJy1waHQnLCAnMS4wJywgJy1waCcsICc3LjQnLCAnLXRuJywgJzgnLCAnLW1hJywgJzUwMCcsICctaW1hZScsICc8aW5maWxlLm1hZT4nLCAnLW9tYWUnLCAnPG91dGZpbGUubWFlPic=

>  <s_epik_input>  (1) 
TzFbQ0hdPVtDSF1PYyhjMTIpYyhGKVtjSF1bY0hdW2NIXTI=

>  <s_glide_docking_method>  (1) 
confgen

>  <s_i_glide_gridfile>  (1) 
gpcr_drd2_6luq_protein_autoprepared_prepared

>  <s_lp_Force_Field>  (1) 
S-OPLS

>  <s_lp_Variant>  (1) 
Pocket2Mol_64-1

>  <s_m_source_file>  (1) 
generated_generic_title2_ligand_Pocket2Mol_2026-06-23_prepared.sdf

>  <GenAI_Model>  (1) 
Pocket2Mol

>  <Protein>  (1) 
generic_title2

$$$$
Pocket2Mol_76
     RDKit          3D

  0  0  0  0  0  0  0  0  0  0999 V3000
M  V30 BEGIN CTAB
M  V30 COUNTS 20 21 0 0 1
M  V30 BEGIN ATOM
M  V30 1 C 9.087305 5.202297 -9.034303 0
M  V30 2 O 8.995085 5.990227 -7.859315 0
M  V30 3 C 9.983204 6.934220 -7.693564 0
M  V30 4 C 9.375410 6.099522 -10.241114 0
M  V30 5 O 10.575410 6.823768 -10.049377 0
M  V30 6 C 10.781150 7.351357 -8.794795 0
M  V30 7 C 10.204188 7.490243 -6.419717 0
M  V30 8 C 11.217373 8.450544 -6.233671 0
M  V30 9 C 11.797765 8.310853 -8.600208 0
M  V30 10 O 12.575408 8.709311 -9.655844 0
M  V30 11 O 11.433449 8.985840 -4.997735 0
M  V30 12 C 12.012816 8.856800 -7.319975 0
M  V30 13 H 9.864839 4.448336 -8.909253 0
M  V30 14 H 8.143497 4.675325 -9.174920 0
M  V30 15 H 9.465707 5.498537 -11.145968 0
M  V30 16 H 8.575410 6.809988 -10.412185 0
M  V30 17 H 9.596520 7.175489 -5.585024 0
M  V30 18 H 13.193728 9.409542 -9.483240 0
M  V30 19 H 10.939580 8.554933 -4.318864 0
M  V30 20 H 12.789088 9.589666 -7.168539 0
M  V30 END ATOM
M  V30 BEGIN BOND
M  V30 1 1 2 1
M  V30 2 1 3 2
M  V30 3 1 4 1
M  V30 4 1 5 4
M  V30 5 1 6 3
M  V30 6 1 6 5
M  V30 7 2 7 3
M  V30 8 1 8 7
M  V30 9 2 9 6
M  V30 10 1 10 9
M  V30 11 1 11 8
M  V30 12 2 12 8
M  V30 13 1 12 9
M  V30 14 1 13 1
M  V30 15 1 14 1
M  V30 16 1 15 4
M  V30 17 1 16 4
M  V30 18 1 17 7
M  V30 19 1 18 10
M  V30 20 1 19 11
M  V30 21 1 20 12
M  V30 END BOND
M  V30 END CTAB
M  END
>  <i_epik_Tot_Q>  (1) 
0

>  <i_epik_Tot_abs_Q>  (1) 
0

>  <i_i_glide_confnum>  (1) 
1

>  <i_i_glide_lignum>  (1) 
83

>  <i_i_glide_posenum>  (1) 
388

>  <i_i_glide_rotatable_bonds>  (1) 
2

>  <i_lp_mmshare_version>  (1) 
72125

>  <i_m_source_file_index>  (1) 
77

>  <i_f3d_flags>  (1) 
0

>  <num_sample>  (1) 
100

>  <b_lp_Chiralities_Consistent>  (1) 
1

>  <r_epik_Charging_Adjusted_Penalty>  (1) 
0

>  <r_epik_Ionization_Penalty>  (1) 
0.012400157081266662

>  <r_epik_Ionization_Penalty_Charging>  (1) 
0

>  <r_epik_Ionization_Penalty_Neutral>  (1) 
0.012400157081266662

>  <r_epik_State_Penalty>  (1) 
-0

>  <r_glide_ring_energy>  (1) 
0

>  <r_i_docking_score>  (1) 
-5.5540089153928793

>  <r_i_glide_ecoul>  (1) 
-3.4639721840527833

>  <r_i_glide_eff_state_penalty>  (1) 
-0

>  <r_i_glide_einternal>  (1) 
0.11570778025763248

>  <r_i_glide_emodel>  (1) 
-34.34770962006106

>  <r_i_glide_emodel_strain>  (1) 
0

>  <r_i_glide_energy>  (1) 
-24.343714387521121

>  <r_i_glide_erotb>  (1) 
0

>  <r_i_glide_esite>  (1) 
0

>  <r_i_glide_evdw>  (1) 
-20.879742203468339

>  <r_i_glide_gscore>  (1) 
-5.5540089153928793

>  <r_i_glide_gscore_strain>  (1) 
0

>  <r_i_glide_hbond>  (1) 
-0.32000000000000001

>  <r_i_glide_ligand_efficiency>  (1) 
-0.46283407628273993

>  <r_i_glide_ligand_efficiency_ln>  (1) 
-1.5937324793852801

>  <r_i_glide_ligand_efficiency_sa>  (1) 
-1.0596255181197354

>  <r_i_glide_lipo>  (1) 
-0.9751791118923645

>  <r_i_glide_metal>  (1) 
-0

>  <r_i_glide_rewards>  (1) 
-2.6952468657191808

>  <r_lp_Energy>  (1) 
12.367407

>  <r_lp_tautomer_probability>  (1) 
1

>  <s_epik_cmdline>  (1) 
J2VwaWtfcHl0aG9uJywgJy1waHQnLCAnMS4wJywgJy1waCcsICc3LjQnLCAnLXRuJywgJzgnLCAnLW1hJywgJzUwMCcsICctaW1hZScsICc8aW5maWxlLm1hZT4nLCAnLW9tYWUnLCAnPG91dGZpbGUubWFlPic=

>  <s_epik_input>  (1) 
TzFbQ0gyXVtDSDJdT2MoYzEyKWMoW09IXSlbY0hdYyhbY0hdMilbT0hd

>  <s_glide_docking_method>  (1) 
confgen

>  <s_i_glide_gridfile>  (1) 
gpcr_drd2_6luq_protein_autoprepared_prepared

>  <s_lp_Force_Field>  (1) 
S-OPLS

>  <s_lp_Variant>  (1) 
Pocket2Mol_76-1

>  <s_m_source_file>  (1) 
generated_generic_title2_ligand_Pocket2Mol_2026-06-23_prepared.sdf

>  <GenAI_Model>  (1) 
Pocket2Mol

>  <Protein>  (1) 
generic_title2

$$$$
Pocket2Mol_91
     RDKit          3D

  0  0  0  0  0  0  0  0  0  0999 V3000
M  V30 BEGIN CTAB
M  V30 COUNTS 21 22 0 0 1
M  V30 BEGIN ATOM
M  V30 1 C 11.642826 7.774300 -7.933893 0
M  V30 2 O 11.066473 8.986507 -7.481217 0
M  V30 3 C 10.798554 6.620138 -7.418176 0
M  V30 4 O 10.232705 6.953682 -6.171173 0
M  V30 5 C 11.519893 9.590227 -6.361613 0
M  V30 6 C 11.086880 7.377016 -5.185025 0
M  V30 7 C 11.343786 6.554327 -4.089960 0
M  V30 8 O 11.775410 10.788127 -6.302033 0
M  V30 9 C 11.699590 8.653054 -5.218901 0
M  V30 10 C 12.175410 7.020520 -3.063518 0
M  V30 11 C 12.503201 9.036005 -4.125125 0
M  V30 12 N 12.448341 6.207481 -1.985025 0
M  V30 13 N 12.738658 8.243013 -3.059789 0
M  V30 14 H 11.678238 7.762407 -9.023321 0
M  V30 15 H 12.672940 7.688319 -7.585034 0
M  V30 16 H 9.974830 6.430175 -8.106835 0
M  V30 17 H 11.375410 5.698608 -7.344512 0
M  V30 18 H 10.897186 5.584903 -4.030635 0
M  V30 19 H 12.992374 9.990424 -4.116048 0
M  V30 20 H 12.027784 5.291240 -1.895336 0
M  V30 21 H 13.010713 6.530345 -1.213837 0
M  V30 END ATOM
M  V30 BEGIN BOND
M  V30 1 1 2 1
M  V30 2 1 3 1
M  V30 3 1 4 3
M  V30 4 1 5 2
M  V30 5 1 6 4
M  V30 6 1 7 6
M  V30 7 2 8 5
M  V30 8 1 9 5
M  V30 9 2 9 6
M  V30 10 2 10 7
M  V30 11 1 11 9
M  V30 12 1 12 10
M  V30 13 1 13 10
M  V30 14 2 13 11
M  V30 15 1 14 1
M  V30 16 1 15 1
M  V30 17 1 16 3
M  V30 18 1 17 3
M  V30 19 1 18 7
M  V30 20 1 19 11
M  V30 21 1 20 12
M  V30 22 1 21 12
M  V30 END BOND
M  V30 END CTAB
M  END
>  <i_epik_Tot_Q>  (1) 
0

>  <i_epik_Tot_abs_Q>  (1) 
0

>  <i_i_glide_confnum>  (1) 
1

>  <i_i_glide_lignum>  (1) 
99

>  <i_i_glide_posenum>  (1) 
93

>  <i_i_glide_rotatable_bonds>  (1) 
0

>  <i_lp_mmshare_version>  (1) 
72125

>  <i_m_source_file_index>  (1) 
92

>  <i_f3d_flags>  (1) 
0

>  <num_sample>  (1) 
100

>  <b_lp_Chiralities_Consistent>  (1) 
1

>  <r_epik_Charging_Adjusted_Penalty>  (1) 
0.47186222519243537

>  <r_epik_Ionization_Penalty>  (1) 
0.4718627144316776

>  <r_epik_Ionization_Penalty_Charging>  (1) 
0

>  <r_epik_Ionization_Penalty_Neutral>  (1) 
0.4718627144316776

>  <r_epik_State_Penalty>  (1) 
0.47186222519243537

>  <r_glide_ring_energy>  (1) 
0

>  <r_i_docking_score>  (1) 
-5.5512430409816425

>  <r_i_glide_ecoul>  (1) 
-1.4285615636864053

>  <r_i_glide_eff_state_penalty>  (1) 
0.47186222519243537

>  <r_i_glide_einternal>  (1) 
0

>  <r_i_glide_emodel>  (1) 
-30.49330324100783

>  <r_i_glide_emodel_strain>  (1) 
0

>  <r_i_glide_energy>  (1) 
-21.141019161135638

>  <r_i_glide_erotb>  (1) 
0

>  <r_i_glide_esite>  (1) 
0

>  <r_i_glide_evdw>  (1) 
-19.712457597449234

>  <r_i_glide_gscore>  (1) 
-6.0231052661740776

>  <r_i_glide_gscore_strain>  (1) 
0

>  <r_i_glide_hbond>  (1) 
0

>  <r_i_glide_ligand_efficiency>  (1) 
-0.42701869546012633

>  <r_i_glide_ligand_efficiency_ln>  (1) 
-1.5571730435280207

>  <r_i_glide_ligand_efficiency_sa>  (1) 
-1.0040638709406615

>  <r_i_glide_lipo>  (1) 
-1.7884336428451686

>  <r_i_glide_metal>  (1) 
-0

>  <r_i_glide_rewards>  (1) 
-3.0347645089034865

>  <r_lp_Energy>  (1) 
11.927572999999999

>  <s_epik_Chemistry_Notes>  (1) 
This compound has an ester and may undergo hydrolysis at high or low pH.

>  <s_epik_cmdline>  (1) 
J2VwaWtfcHl0aG9uJywgJy1waHQnLCAnMS4wJywgJy1waCcsICc3LjQnLCAnLXRuJywgJzgnLCAnLW1hJywgJzUwMCcsICctaW1hZScsICc8aW5maWxlLm1hZT4nLCAnLW9tYWUnLCAnPG91dGZpbGUubWFlPic=

>  <s_epik_input>  (1) 
TzFbQ0gyXVtDSDJdT0MoPU8pYyhjMTIpW2NIXW5jKFtjSF0yKVtOSDJd

>  <s_glide_docking_method>  (1) 
confgen

>  <s_i_glide_gridfile>  (1) 
gpcr_drd2_6luq_protein_autoprepared_prepared

>  <s_lp_Force_Field>  (1) 
S-OPLS

>  <s_lp_Variant>  (1) 
Pocket2Mol_91-2

>  <s_m_source_file>  (1) 
generated_generic_title2_ligand_Pocket2Mol_2026-06-23_prepared.sdf

>  <GenAI_Model>  (1) 
Pocket2Mol

>  <Protein>  (1) 
generic_title2

$$$$
Pocket2Mol_87
     RDKit          3D

  0  0  0  0  0  0  0  0  0  0999 V3000
M  V30 BEGIN CTAB
M  V30 COUNTS 21 22 0 0 1
M  V30 BEGIN ATOM
M  V30 1 C 8.424369 5.218281 -9.723911 0
M  V30 2 O 9.470603 5.885505 -10.360150 0
M  V30 3 C 8.947435 4.790227 -8.393646 0
M  V30 4 O 8.758206 5.936559 -7.640516 0
M  V30 5 C 9.919325 7.152517 -10.169955 0
M  V30 6 C 9.773266 6.845133 -7.554170 0
M  V30 7 C 10.219241 7.208269 -6.268724 0
M  V30 8 O 10.045009 7.943024 -11.104082 0
M  V30 9 C 10.357015 7.473041 -8.718743 0
M  V30 10 C 11.380178 8.454921 -8.517843 0
M  V30 11 C 11.222036 8.171220 -6.102259 0
M  V30 12 O 11.976119 9.069678 -9.585025 0
M  V30 13 C 11.798925 8.790225 -7.216813 0
M  V30 14 H 7.524450 5.825330 -9.654127 0
M  V30 15 H 8.176758 4.344574 -10.325724 0
M  V30 16 H 8.317477 4.001779 -7.985024 0
M  V30 17 H 9.979704 4.435706 -8.414155 0
M  V30 18 H 9.775406 6.744102 -5.400104 0
M  V30 19 H 11.550494 8.438522 -5.108810 0
M  V30 20 H 12.740284 9.592757 -9.385187 0
M  V30 21 H 12.572431 9.529085 -7.074687 0
M  V30 END ATOM
M  V30 BEGIN BOND
M  V30 1 1 2 1
M  V30 2 1 3 1
M  V30 3 1 4 3
M  V30 4 1 5 2
M  V30 5 1 6 4
M  V30 6 2 7 6
M  V30 7 2 8 5
M  V30 8 1 9 5
M  V30 9 1 9 6
M  V30 10 2 10 9
M  V30 11 1 11 7
M  V30 12 1 12 10
M  V30 13 1 13 10
M  V30 14 2 13 11
M  V30 15 1 14 1
M  V30 16 1 15 1
M  V30 17 1 16 3
M  V30 18 1 17 3
M  V30 19 1 18 7
M  V30 20 1 19 11
M  V30 21 1 20 12
M  V30 22 1 21 13
M  V30 END BOND
M  V30 END CTAB
M  END
>  <i_epik_Tot_Q>  (1) 
0

>  <i_epik_Tot_abs_Q>  (1) 
0

>  <i_i_glide_confnum>  (1) 
1

>  <i_i_glide_lignum>  (1) 
94

>  <i_i_glide_posenum>  (1) 
383

>  <i_i_glide_rotatable_bonds>  (1) 
1

>  <i_lp_mmshare_version>  (1) 
72125

>  <i_m_source_file_index>  (1) 
88

>  <i_f3d_flags>  (1) 
0

>  <num_sample>  (1) 
100

>  <b_lp_Chiralities_Consistent>  (1) 
1

>  <r_epik_Charging_Adjusted_Penalty>  (1) 
0.011568550508496497

>  <r_epik_Ionization_Penalty>  (1) 
0.011568550508503217

>  <r_epik_Ionization_Penalty_Charging>  (1) 
0

>  <r_epik_Ionization_Penalty_Neutral>  (1) 
0.011568550508503217

>  <r_epik_State_Penalty>  (1) 
0.011568550508496497

>  <r_glide_ring_energy>  (1) 
0

>  <r_i_docking_score>  (1) 
-5.5468075090032656

>  <r_i_glide_ecoul>  (1) 
-2.5244108062379826

>  <r_i_glide_eff_state_penalty>  (1) 
0.011568550508496497

>  <r_i_glide_einternal>  (1) 
0.053010174543988597

>  <r_i_glide_emodel>  (1) 
-31.40078375618188

>  <r_i_glide_emodel_strain>  (1) 
0

>  <r_i_glide_energy>  (1) 
-24.574797735816986

>  <r_i_glide_erotb>  (1) 
0

>  <r_i_glide_esite>  (1) 
-0.081207701313502759

>  <r_i_glide_evdw>  (1) 
-22.050386929579002

>  <r_i_glide_gscore>  (1) 
-5.5583760595117617

>  <r_i_glide_gscore_strain>  (1) 
0

>  <r_i_glide_hbond>  (1) 
-0.1986280164135622

>  <r_i_glide_ligand_efficiency>  (1) 
-0.42667750069255889

>  <r_i_glide_ligand_efficiency_ln>  (1) 
-1.5559288373602407

>  <r_i_glide_ligand_efficiency_sa>  (1) 
-1.0032616078484113

>  <r_i_glide_lipo>  (1) 
-0.9849561578085787

>  <r_i_glide_metal>  (1) 
-0

>  <r_i_glide_rewards>  (1) 
-2.8124032165614694

>  <r_lp_Energy>  (1) 
16.036355

>  <s_epik_Chemistry_Notes>  (1) 
This compound has an ester and may undergo hydrolysis at high or low pH.

>  <s_epik_cmdline>  (1) 
J2VwaWtfcHl0aG9uJywgJy1waHQnLCAnMS4wJywgJy1waCcsICc3LjQnLCAnLXRuJywgJzgnLCAnLW1hJywgJzUwMCcsICctaW1hZScsICc8aW5maWxlLm1hZT4nLCAnLW9tYWUnLCAnPG91dGZpbGUubWFlPic=

>  <s_epik_input>  (1) 
TzFbQ0gyXVtDSDJdT0MoPU8pYyhjMTIpYyhbT0hdKVtjSF1bY0hdW2NIXTI=

>  <s_glide_docking_method>  (1) 
confgen

>  <s_i_glide_gridfile>  (1) 
gpcr_drd2_6luq_protein_autoprepared_prepared

>  <s_lp_Force_Field>  (1) 
S-OPLS

>  <s_lp_Variant>  (1) 
Pocket2Mol_87-1

>  <s_m_source_file>  (1) 
generated_generic_title2_ligand_Pocket2Mol_2026-06-23_prepared.sdf

>  <GenAI_Model>  (1) 
Pocket2Mol

>  <Protein>  (1) 
generic_title2

$$$$
Pocket2Mol_56
     RDKit          3D

  0  0  0  0  0  0  0  0  0  0999 V3000
M  V30 BEGIN CTAB
M  V30 COUNTS 19 20 0 0 1
M  V30 BEGIN ATOM
M  V30 1 C 9.775388 8.290528 -7.349715 0
M  V30 2 O 10.682024 9.166266 -6.693879 0
M  V30 3 C 11.195000 8.705159 -5.502862 0
M  V30 4 C 11.226655 7.315448 -5.216148 0
M  V30 5 C 11.752143 6.864430 -3.985312 0
M  V30 6 C 11.688716 9.621838 -4.563278 0
M  V30 7 C 12.205822 9.169792 -3.333412 0
M  V30 8 N 10.739785 6.390228 -6.146115 0
M  V30 9 C 10.425661 6.913145 -7.465521 0
M  V30 10 C 12.239002 7.792104 -3.044960 0
M  V30 11 H 8.837969 8.238065 -6.792124 0
M  V30 12 H 9.537681 8.687428 -8.336962 0
M  V30 13 H 11.775856 5.808048 -3.762239 0
M  V30 14 H 11.663411 10.678258 -4.785015 0
M  V30 15 H 12.575410 9.880950 -2.610203 0
M  V30 16 H 10.886392 5.398494 -6.013980 0
M  V30 17 H 9.750152 6.222471 -7.971529 0
M  V30 18 H 11.337496 6.969836 -8.060603 0
M  V30 19 H 12.636487 7.447038 -2.101795 0
M  V30 END ATOM
M  V30 BEGIN BOND
M  V30 1 1 2 1
M  V30 2 1 3 2
M  V30 3 1 4 3
M  V30 4 2 5 4
M  V30 5 2 6 3
M  V30 6 1 7 6
M  V30 7 1 8 4
M  V30 8 1 9 1
M  V30 9 1 9 8
M  V30 10 1 10 5
M  V30 11 2 10 7
M  V30 12 1 11 1
M  V30 13 1 12 1
M  V30 14 1 13 5
M  V30 15 1 14 6
M  V30 16 1 15 7
M  V30 17 1 16 8
M  V30 18 1 17 9
M  V30 19 1 18 9
M  V30 20 1 19 10
M  V30 END BOND
M  V30 END CTAB
M  END
>  <i_epik_Tot_Q>  (1) 
0

>  <i_epik_Tot_abs_Q>  (1) 
0

>  <i_i_glide_confnum>  (1) 
2

>  <i_i_glide_lignum>  (1) 
63

>  <i_i_glide_posenum>  (1) 
363

>  <i_i_glide_rotatable_bonds>  (1) 
0

>  <i_lp_mmshare_version>  (1) 
72125

>  <i_m_source_file_index>  (1) 
57

>  <i_f3d_flags>  (1) 
0

>  <num_sample>  (1) 
100

>  <b_lp_Chiralities_Consistent>  (1) 
1

>  <r_epik_Charging_Adjusted_Penalty>  (1) 
0

>  <r_epik_Ionization_Penalty>  (1) 
0.00026422915675488977

>  <r_epik_Ionization_Penalty_Charging>  (1) 
0

>  <r_epik_Ionization_Penalty_Neutral>  (1) 
0.00026422915675488977

>  <r_epik_State_Penalty>  (1) 
-0

>  <r_glide_ring_energy>  (1) 
0.0081755235135999062

>  <r_i_docking_score>  (1) 
-5.5426641625811222

>  <r_i_glide_ecoul>  (1) 
-1.5468303935609409

>  <r_i_glide_eff_state_penalty>  (1) 
-0

>  <r_i_glide_einternal>  (1) 
0

>  <r_i_glide_emodel>  (1) 
-29.686628084828016

>  <r_i_glide_emodel_strain>  (1) 
0

>  <r_i_glide_energy>  (1) 
-22.005147803839918

>  <r_i_glide_erotb>  (1) 
0

>  <r_i_glide_esite>  (1) 
0

>  <r_i_glide_evdw>  (1) 
-20.458317410278976

>  <r_i_glide_gscore>  (1) 
-5.5426641625811222

>  <r_i_glide_gscore_strain>  (1) 
0

>  <r_i_glide_hbond>  (1) 
0

>  <r_i_glide_ligand_efficiency>  (1) 
-0.55426641625811224

>  <r_i_glide_ligand_efficiency_ln>  (1) 
-1.6782805004295205

>  <r_i_glide_ligand_efficiency_sa>  (1) 
-1.1941307947061293

>  <r_i_glide_lipo>  (1) 
-1.8880849296642386

>  <r_i_glide_metal>  (1) 
-0

>  <r_i_glide_rewards>  (1) 
-2.3996388033687928

>  <r_lp_Energy>  (1) 
15.245389999999999

>  <r_lp_tautomer_probability>  (1) 
1

>  <s_epik_cmdline>  (1) 
J2VwaWtfcHl0aG9uJywgJy1waHQnLCAnMS4wJywgJy1waCcsICc3LjQnLCAnLXRuJywgJzgnLCAnLW1hJywgJzUwMCcsICctaW1hZScsICc8aW5maWxlLm1hZT4nLCAnLW9tYWUnLCAnPG91dGZpbGUubWFlPic=

>  <s_epik_input>  (1) 
TzFbQ0gyXVtDSDJdW05IXWMoYzEyKVtjSF1bY0hdW2NIXVtjSF0y

>  <s_glide_docking_method>  (1) 
confgen

>  <s_i_glide_gridfile>  (1) 
gpcr_drd2_6luq_protein_autoprepared_prepared

>  <s_lp_Force_Field>  (1) 
S-OPLS

>  <s_lp_Variant>  (1) 
Pocket2Mol_56-1

>  <s_m_source_file>  (1) 
generated_generic_title2_ligand_Pocket2Mol_2026-06-23_prepared.sdf

>  <GenAI_Model>  (1) 
Pocket2Mol

>  <Protein>  (1) 
generic_title2

$$$$
Pocket2Mol_52
     RDKit          3D

  0  0  0  0  0  0  0  0  0  0999 V3000
M  V30 BEGIN CTAB
M  V30 COUNTS 15 16 0 0 1
M  V30 BEGIN ATOM
M  V30 1 C 10.977985 7.590230 -10.449735 0
M  V30 2 O 10.083621 6.775284 -9.685443 0
M  V30 3 C 10.327474 7.141724 -8.370799 0
M  V30 4 C 11.277480 8.088636 -8.379660 0
M  V30 5 C 11.704682 8.637245 -7.151922 0
M  V30 6 C 9.748210 6.669661 -7.216342 0
M  V30 7 C 11.735738 8.421766 -9.634844 0
M  V30 8 N 11.155039 8.201738 -5.948650 0 CHG=1
M  V30 9 O 11.543777 8.701493 -4.829774 0 CHG=-1
M  V30 10 C 10.175392 7.209429 -5.985344 0
M  V30 11 H 10.927304 7.439216 -11.518236 0
M  V30 12 H 12.458840 9.402485 -7.053256 0
M  V30 13 H 8.984738 5.906199 -7.252358 0
M  V30 14 H 12.494545 9.157238 -9.862671 0
M  V30 15 H 9.791690 6.912724 -5.021468 0
M  V30 END ATOM
M  V30 BEGIN BOND
M  V30 1 1 2 1
M  V30 2 1 3 2
M  V30 3 1 4 3
M  V30 4 2 5 4
M  V30 5 2 6 3
M  V30 6 2 7 1
M  V30 7 1 7 4
M  V30 8 1 8 5
M  V30 9 1 9 8
M  V30 10 1 10 6
M  V30 11 2 10 8
M  V30 12 1 11 1
M  V30 13 1 12 5
M  V30 14 1 13 6
M  V30 15 1 14 7
M  V30 16 1 15 10
M  V30 END BOND
M  V30 END CTAB
M  END
>  <i_epik_Tot_Q>  (1) 
0

>  <i_epik_Tot_abs_Q>  (1) 
2

>  <i_i_glide_confnum>  (1) 
1

>  <i_i_glide_lignum>  (1) 
59

>  <i_i_glide_posenum>  (1) 
335

>  <i_i_glide_rotatable_bonds>  (1) 
0

>  <i_lp_mmshare_version>  (1) 
72125

>  <i_m_source_file_index>  (1) 
53

>  <i_f3d_flags>  (1) 
0

>  <num_sample>  (1) 
100

>  <b_lp_Chiralities_Consistent>  (1) 
1

>  <r_epik_Charging_Adjusted_Penalty>  (1) 
1.0992902245007022e-07

>  <r_epik_Ionization_Penalty>  (1) 
1.0992902245007022e-07

>  <r_epik_Ionization_Penalty_Charging>  (1) 
1.0992902245007022e-07

>  <r_epik_Ionization_Penalty_Neutral>  (1) 
0

>  <r_epik_State_Penalty>  (1) 
-0

>  <r_glide_ring_energy>  (1) 
0

>  <r_i_docking_score>  (1) 
-5.5354266086623447

>  <r_i_glide_ecoul>  (1) 
-2.8346013290848164

>  <r_i_glide_eff_state_penalty>  (1) 
-0

>  <r_i_glide_einternal>  (1) 
0

>  <r_i_glide_emodel>  (1) 
-26.67969409515451

>  <r_i_glide_emodel_strain>  (1) 
0

>  <r_i_glide_energy>  (1) 
-18.890384485526404

>  <r_i_glide_erotb>  (1) 
0

>  <r_i_glide_esite>  (1) 
0

>  <r_i_glide_evdw>  (1) 
-16.055783156441588

>  <r_i_glide_gscore>  (1) 
-5.5354266086623447

>  <r_i_glide_gscore_strain>  (1) 
0

>  <r_i_glide_hbond>  (1) 
0

>  <r_i_glide_ligand_efficiency>  (1) 
-0.55354266086623449

>  <r_i_glide_ligand_efficiency_ln>  (1) 
-1.6760890189945288

>  <r_i_glide_ligand_efficiency_sa>  (1) 
-1.1925715109827701

>  <r_i_glide_lipo>  (1) 
-0.95356976783435898

>  <r_i_glide_metal>  (1) 
-0

>  <r_i_glide_rewards>  (1) 
-3.3538774836431839

>  <r_lp_Energy>  (1) 
10.75684

>  <r_lp_tautomer_probability>  (1) 
1

>  <s_epik_cmdline>  (1) 
J2VwaWtfcHl0aG9uJywgJy1waHQnLCAnMS4wJywgJy1waCcsICc3LjQnLCAnLXRuJywgJzgnLCAnLW1hJywgJzUwMCcsICctaW1hZScsICc8aW5maWxlLm1hZT4nLCAnLW9tYWUnLCAnPG91dGZpbGUubWFlPic=

>  <s_epik_input>  (1) 
bzFbY0hdW2NIXWMoYzEyKVtjSF1bbitdKFtPLV0pW2NIXVtjSF0y

>  <s_glide_docking_method>  (1) 
confgen

>  <s_i_glide_gridfile>  (1) 
gpcr_drd2_6luq_protein_autoprepared_prepared

>  <s_lp_Force_Field>  (1) 
S-OPLS

>  <s_lp_Variant>  (1) 
Pocket2Mol_52-1

>  <s_m_source_file>  (1) 
generated_generic_title2_ligand_Pocket2Mol_2026-06-23_prepared.sdf

>  <GenAI_Model>  (1) 
Pocket2Mol

>  <Protein>  (1) 
generic_title2

$$$$
Pocket2Mol_93
     RDKit          3D

  0  0  0  0  0  0  0  0  0  0999 V3000
M  V30 BEGIN CTAB
M  V30 COUNTS 23 25 0 0 1
M  V30 BEGIN ATOM
M  V30 1 C 11.621477 8.949955 -5.019336 0
M  V30 2 O 10.740971 7.773691 -5.185025 0
M  V30 3 C 10.654251 7.668269 -6.527426 0
M  V30 4 C 11.375410 8.564933 -7.231192 0
M  V30 5 C 11.381938 8.562930 -8.638515 0
M  V30 6 C 10.602650 7.603486 -9.326360 0
M  V30 7 O 10.588081 7.590230 -10.700844 0
M  V30 8 C 12.130175 9.527058 -6.416456 0
M  V30 9 C 9.834019 6.657485 -8.580915 0
M  V30 10 O 9.059795 5.712934 -9.222029 0
M  V30 11 C 9.866968 6.696319 -7.168769 0
M  V30 12 C 9.412979 7.025002 -11.258784 0
M  V30 13 C 9.158271 5.643850 -10.640751 0
M  V30 14 H 11.065308 9.720215 -4.483361 0
M  V30 15 H 12.466991 8.680907 -4.385024 0
M  V30 16 H 11.966223 9.288074 -9.186124 0
M  V30 17 H 13.206751 9.430683 -6.559089 0
M  V30 18 H 11.798069 10.550976 -6.591430 0
M  V30 19 H 9.291418 5.990228 -6.589257 0
M  V30 20 H 8.575408 7.699048 -11.086235 0
M  V30 21 H 9.535847 6.941023 -12.338621 0
M  V30 22 H 8.224621 5.234982 -11.027071 0
M  V30 23 H 9.938991 4.940491 -10.923522 0
M  V30 END ATOM
M  V30 BEGIN BOND
M  V30 1 1 2 1
M  V30 2 1 3 2
M  V30 3 1 4 3
M  V30 4 2 5 4
M  V30 5 1 6 5
M  V30 6 1 7 6
M  V30 7 1 8 1
M  V30 8 1 8 4
M  V30 9 2 9 6
M  V30 10 1 10 9
M  V30 11 2 11 3
M  V30 12 1 11 9
M  V30 13 1 12 7
M  V30 14 1 13 10
M  V30 15 1 13 12
M  V30 16 1 14 1
M  V30 17 1 15 1
M  V30 18 1 16 5
M  V30 19 1 17 8
M  V30 20 1 18 8
M  V30 21 1 19 11
M  V30 22 1 20 12
M  V30 23 1 21 12
M  V30 24 1 22 13
M  V30 25 1 23 13
M  V30 END BOND
M  V30 END CTAB
M  END
>  <i_epik_Tot_Q>  (1) 
0

>  <i_epik_Tot_abs_Q>  (1) 
0

>  <i_i_glide_confnum>  (1) 
1

>  <i_i_glide_lignum>  (1) 
102

>  <i_i_glide_posenum>  (1) 
277

>  <i_i_glide_rotatable_bonds>  (1) 
0

>  <i_lp_mmshare_version>  (1) 
72125

>  <i_m_source_file_index>  (1) 
94

>  <i_f3d_flags>  (1) 
0

>  <num_sample>  (1) 
100

>  <b_lp_Chiralities_Consistent>  (1) 
1

>  <r_epik_Charging_Adjusted_Penalty>  (1) 
0

>  <r_epik_Ionization_Penalty>  (1) 
0

>  <r_epik_Ionization_Penalty_Charging>  (1) 
0

>  <r_epik_Ionization_Penalty_Neutral>  (1) 
0

>  <r_epik_State_Penalty>  (1) 
-0

>  <r_glide_ring_energy>  (1) 
0

>  <r_i_docking_score>  (1) 
-5.5351624532842623

>  <r_i_glide_ecoul>  (1) 
-0.020149562993252823

>  <r_i_glide_eff_state_penalty>  (1) 
-0

>  <r_i_glide_einternal>  (1) 
0

>  <r_i_glide_emodel>  (1) 
-33.385369337724377

>  <r_i_glide_emodel_strain>  (1) 
0.00089060232099313907

>  <r_i_glide_energy>  (1) 
-24.107106093051716

>  <r_i_glide_erotb>  (1) 
0

>  <r_i_glide_esite>  (1) 
0

>  <r_i_glide_evdw>  (1) 
-24.086956530058462

>  <r_i_glide_gscore>  (1) 
-5.5351624532842623

>  <r_i_glide_gscore_strain>  (1) 
0

>  <r_i_glide_hbond>  (1) 
0

>  <r_i_glide_ligand_efficiency>  (1) 
-0.4257817271757125

>  <r_i_glide_ligand_efficiency_ln>  (1) 
-1.5526622956645977

>  <r_i_glide_ligand_efficiency_sa>  (1) 
-1.0011553445059089

>  <r_i_glide_lipo>  (1) 
-1.3516706864537862

>  <r_i_glide_metal>  (1) 
-0

>  <r_i_glide_rewards>  (1) 
-2.9761215058785648

>  <r_lp_Energy>  (1) 
18.084001999999998

>  <r_lp_tautomer_probability>  (1) 
1

>  <s_epik_cmdline>  (1) 
J2VwaWtfcHl0aG9uJywgJy1waHQnLCAnMS4wJywgJy1waCcsICc3LjQnLCAnLXRuJywgJzgnLCAnLW1hJywgJzUwMCcsICctaW1hZScsICc8aW5maWxlLm1hZT4nLCAnLW9tYWUnLCAnPG91dGZpbGUubWFlPic=

>  <s_epik_input>  (1) 
TzFbQ0gyXVtDSDJdYyhjMTIpW2NIXWMzYyhbY0hdMilPW0NIMl1bQ0gyXU8z

>  <s_glide_docking_method>  (1) 
confgen

>  <s_i_glide_gridfile>  (1) 
gpcr_drd2_6luq_protein_autoprepared_prepared

>  <s_lp_Force_Field>  (1) 
S-OPLS

>  <s_lp_Variant>  (1) 
Pocket2Mol_93-1

>  <s_m_source_file>  (1) 
generated_generic_title2_ligand_Pocket2Mol_2026-06-23_prepared.sdf

>  <GenAI_Model>  (1) 
Pocket2Mol

>  <Protein>  (1) 
generic_title2

$$$$
Pocket2Mol_59
     RDKit          3D

  0  0  0  0  0  0  0  0  0  0999 V3000
M  V30 BEGIN CTAB
M  V30 COUNTS 17 18 0 0 1
M  V30 BEGIN ATOM
M  V30 1 C 10.892245 7.783189 -10.332859 0
M  V30 2 O 10.175410 6.803804 -9.494100 0
M  V30 3 C 10.519386 7.204245 -8.251422 0
M  V30 4 C 11.351086 8.242613 -8.175720 0
M  V30 5 C 11.775410 8.753717 -6.935809 0
M  V30 6 N 11.338000 8.171548 -5.760097 0 CHG=1
M  V30 7 C 11.775409 8.791297 -9.464567 0
M  V30 8 O 11.721981 8.623736 -4.619004 0 CHG=-1
M  V30 9 C 10.477852 7.084133 -5.843949 0
M  V30 10 C 10.054738 6.592279 -7.100485 0
M  V30 11 H 10.153085 8.340294 -10.909865 0
M  V30 12 H 11.516200 7.252231 -11.052472 0
M  V30 13 H 12.443837 9.590227 -6.805817 0
M  V30 14 H 11.484416 9.834636 -9.585024 0
M  V30 15 H 12.847230 8.666300 -9.622468 0
M  V30 16 H 10.175411 6.671415 -4.893698 0
M  V30 17 H 9.380325 5.751405 -7.163648 0
M  V30 END ATOM
M  V30 BEGIN BOND
M  V30 1 1 2 1
M  V30 2 1 3 2
M  V30 3 2 4 3
M  V30 4 1 5 4
M  V30 5 2 6 5
M  V30 6 1 7 1
M  V30 7 1 7 4
M  V30 8 1 8 6
M  V30 9 1 9 6
M  V30 10 1 10 3
M  V30 11 2 10 9
M  V30 12 1 11 1
M  V30 13 1 12 1
M  V30 14 1 13 5
M  V30 15 1 14 7
M  V30 16 1 15 7
M  V30 17 1 16 9
M  V30 18 1 17 10
M  V30 END BOND
M  V30 END CTAB
M  END
>  <i_epik_Tot_Q>  (1) 
0

>  <i_epik_Tot_abs_Q>  (1) 
2

>  <i_i_glide_confnum>  (1) 
1

>  <i_i_glide_lignum>  (1) 
66

>  <i_i_glide_posenum>  (1) 
168

>  <i_i_glide_rotatable_bonds>  (1) 
0

>  <i_lp_mmshare_version>  (1) 
72125

>  <i_m_source_file_index>  (1) 
60

>  <i_f3d_flags>  (1) 
0

>  <num_sample>  (1) 
100

>  <b_lp_Chiralities_Consistent>  (1) 
1

>  <r_epik_Charging_Adjusted_Penalty>  (1) 
1.5203065777176405e-06

>  <r_epik_Ionization_Penalty>  (1) 
1.5203065777176405e-06

>  <r_epik_Ionization_Penalty_Charging>  (1) 
1.5203065777176405e-06

>  <r_epik_Ionization_Penalty_Neutral>  (1) 
0

>  <r_epik_State_Penalty>  (1) 
-0

>  <r_glide_ring_energy>  (1) 
0

>  <r_i_docking_score>  (1) 
-5.5238271351806709

>  <r_i_glide_ecoul>  (1) 
-1.8105363252816307

>  <r_i_glide_eff_state_penalty>  (1) 
-0

>  <r_i_glide_einternal>  (1) 
0

>  <r_i_glide_emodel>  (1) 
-26.865481586887302

>  <r_i_glide_emodel_strain>  (1) 
0

>  <r_i_glide_energy>  (1) 
-18.800171304529979

>  <r_i_glide_erotb>  (1) 
0

>  <r_i_glide_esite>  (1) 
0

>  <r_i_glide_evdw>  (1) 
-16.989634979248347

>  <r_i_glide_gscore>  (1) 
-5.5238271351806709

>  <r_i_glide_gscore_strain>  (1) 
0

>  <r_i_glide_hbond>  (1) 
0

>  <r_i_glide_ligand_efficiency>  (1) 
-0.55238271351806711

>  <r_i_glide_ligand_efficiency_ln>  (1) 
-1.6725767783845047

>  <r_i_glide_ligand_efficiency_sa>  (1) 
-1.1900724801772677

>  <r_i_glide_lipo>  (1) 
-1.0797183521712477

>  <r_i_glide_metal>  (1) 
-0

>  <r_i_glide_rewards>  (1) 
-3.3230465852547617

>  <r_lp_Energy>  (1) 
12.910414999999999

>  <r_lp_tautomer_probability>  (1) 
1

>  <s_epik_cmdline>  (1) 
J2VwaWtfcHl0aG9uJywgJy1waHQnLCAnMS4wJywgJy1waCcsICc3LjQnLCAnLXRuJywgJzgnLCAnLW1hJywgJzUwMCcsICctaW1hZScsICc8aW5maWxlLm1hZT4nLCAnLW9tYWUnLCAnPG91dGZpbGUubWFlPic=

>  <s_epik_input>  (1) 
TzFbQ0gyXVtDSDJdYyhjMTIpW2NIXVtuK10oW08tXSlbY0hdW2NIXTI=

>  <s_glide_docking_method>  (1) 
confgen

>  <s_i_glide_gridfile>  (1) 
gpcr_drd2_6luq_protein_autoprepared_prepared

>  <s_lp_Force_Field>  (1) 
S-OPLS

>  <s_lp_Variant>  (1) 
Pocket2Mol_59-1

>  <s_m_source_file>  (1) 
generated_generic_title2_ligand_Pocket2Mol_2026-06-23_prepared.sdf

>  <GenAI_Model>  (1) 
Pocket2Mol

>  <Protein>  (1) 
generic_title2

$$$$
Pocket2Mol_70
     RDKit          3D

  0  0  0  0  0  0  0  0  0  0999 V3000
M  V30 BEGIN CTAB
M  V30 COUNTS 20 21 0 0 1
M  V30 BEGIN ATOM
M  V30 1 C 9.375517 6.663579 -10.915526 0
M  V30 2 O 10.573506 7.191798 -10.360370 0
M  V30 3 C 10.574403 7.380939 -8.995903 0
M  V30 4 C 9.764139 6.577175 -8.151379 0
M  V30 5 C 9.775904 6.790218 -6.759355 0
M  V30 6 C 11.390866 8.382727 -8.433159 0
M  V30 7 C 11.395265 8.590641 -7.039686 0
M  V30 8 C 8.875782 5.490665 -8.738802 0
M  V30 9 F 12.175410 9.557968 -6.501578 0
M  V30 10 C 10.589205 7.795248 -6.205337 0
M  V30 11 C 9.004134 5.332891 -10.256133 0
M  V30 12 H 8.575405 7.391661 -10.786842 0
M  V30 13 H 9.512975 6.528405 -11.988484 0
M  V30 14 H 9.156835 6.182475 -6.115360 0
M  V30 15 H 12.009998 8.995453 -9.071756 0
M  V30 16 H 9.078188 4.541199 -8.242896 0
M  V30 17 H 7.844883 5.748839 -8.494628 0
M  V30 18 H 10.594434 7.956618 -5.138591 0
M  V30 19 H 8.080282 4.931776 -10.673567 0
M  V30 20 H 9.775866 4.599714 -10.479994 0
M  V30 END ATOM
M  V30 BEGIN BOND
M  V30 1 1 2 1
M  V30 2 1 3 2
M  V30 3 2 4 3
M  V30 4 1 5 4
M  V30 5 1 6 3
M  V30 6 2 7 6
M  V30 7 1 8 4
M  V30 8 1 9 7
M  V30 9 2 10 5
M  V30 10 1 10 7
M  V30 11 1 11 1
M  V30 12 1 11 8
M  V30 13 1 12 1
M  V30 14 1 13 1
M  V30 15 1 14 5
M  V30 16 1 15 6
M  V30 17 1 16 8
M  V30 18 1 17 8
M  V30 19 1 18 10
M  V30 20 1 19 11
M  V30 21 1 20 11
M  V30 END BOND
M  V30 END CTAB
M  END
>  <i_epik_Tot_Q>  (1) 
0

>  <i_epik_Tot_abs_Q>  (1) 
0

>  <i_i_glide_confnum>  (1) 
2

>  <i_i_glide_lignum>  (1) 
77

>  <i_i_glide_posenum>  (1) 
249

>  <i_i_glide_rotatable_bonds>  (1) 
0

>  <i_lp_mmshare_version>  (1) 
72125

>  <i_m_source_file_index>  (1) 
71

>  <i_f3d_flags>  (1) 
0

>  <num_sample>  (1) 
100

>  <b_lp_Chiralities_Consistent>  (1) 
1

>  <r_epik_Charging_Adjusted_Penalty>  (1) 
0

>  <r_epik_Ionization_Penalty>  (1) 
0

>  <r_epik_Ionization_Penalty_Charging>  (1) 
0

>  <r_epik_Ionization_Penalty_Neutral>  (1) 
0

>  <r_epik_State_Penalty>  (1) 
-0

>  <r_glide_ring_energy>  (1) 
0.00062641908125231891

>  <r_i_docking_score>  (1) 
-5.5161715660124351

>  <r_i_glide_ecoul>  (1) 
-1.5482945184720078

>  <r_i_glide_eff_state_penalty>  (1) 
-0

>  <r_i_glide_einternal>  (1) 
0

>  <r_i_glide_emodel>  (1) 
-29.196786909035676

>  <r_i_glide_emodel_strain>  (1) 
6.8171755103207943e-06

>  <r_i_glide_energy>  (1) 
-22.122715311705658

>  <r_i_glide_erotb>  (1) 
0

>  <r_i_glide_esite>  (1) 
0

>  <r_i_glide_evdw>  (1) 
-20.574420793233649

>  <r_i_glide_gscore>  (1) 
-5.5161715660124351

>  <r_i_glide_gscore_strain>  (1) 
0

>  <r_i_glide_hbond>  (1) 
0

>  <r_i_glide_ligand_efficiency>  (1) 
-0.50147014236476684

>  <r_i_glide_ligand_efficiency_ln>  (1) 
-1.6234083522737699

>  <r_i_glide_ligand_efficiency_sa>  (1) 
-1.1152596126342018

>  <r_i_glide_lipo>  (1) 
-0.70520634857995002

>  <r_i_glide_metal>  (1) 
-0

>  <r_i_glide_rewards>  (1) 
-3.5499999999999998

>  <r_lp_Energy>  (1) 
13.183325999999999

>  <r_lp_tautomer_probability>  (1) 
1

>  <s_epik_cmdline>  (1) 
J2VwaWtfcHl0aG9uJywgJy1waHQnLCAnMS4wJywgJy1waCcsICc3LjQnLCAnLXRuJywgJzgnLCAnLW1hJywgJzUwMCcsICctaW1hZScsICc8aW5maWxlLm1hZT4nLCAnLW9tYWUnLCAnPG91dGZpbGUubWFlPic=

>  <s_epik_input>  (1) 
TzFbQ0gyXVtDSDJdW0NIMl1jKGMxMilbY0hdW2NIXWMoRilbY0hdMg==

>  <s_glide_docking_method>  (1) 
confgen

>  <s_i_glide_gridfile>  (1) 
gpcr_drd2_6luq_protein_autoprepared_prepared

>  <s_lp_Force_Field>  (1) 
S-OPLS

>  <s_lp_Variant>  (1) 
Pocket2Mol_70-1

>  <s_m_source_file>  (1) 
generated_generic_title2_ligand_Pocket2Mol_2026-06-23_prepared.sdf

>  <GenAI_Model>  (1) 
Pocket2Mol

>  <Protein>  (1) 
generic_title2

$$$$
Pocket2Mol_27
     RDKit          3D

  0  0  0  0  0  0  0  0  0  0999 V3000
M  V30 BEGIN CTAB
M  V30 COUNTS 15 15 0 0 1
M  V30 BEGIN ATOM
M  V30 1 C 11.375410 6.457608 -4.115983 0
M  V30 2 O 11.292126 7.621596 -4.979359 0
M  V30 3 C 11.775421 8.857630 -4.564648 0
M  V30 4 C 11.578954 9.955768 -5.585021 0
M  V30 5 C 12.050504 6.723653 -2.785024 0
M  V30 6 C 12.357643 9.018516 -3.359702 0
M  V30 7 C 12.500890 7.925551 -2.452973 0
M  V30 8 H 10.369696 6.077902 -3.936274 0
M  V30 9 H 11.917788 5.674838 -4.643932 0
M  V30 10 H 11.036702 10.790228 -5.140895 0
M  V30 11 H 12.540750 10.316078 -5.950455 0
M  V30 12 H 11.003158 9.590227 -6.435632 0
M  V30 13 H 12.153615 5.891345 -2.103742 0
M  V30 14 H 12.722174 9.990227 -3.073031 0
M  V30 15 H 12.975409 8.079161 -1.494861 0
M  V30 END ATOM
M  V30 BEGIN BOND
M  V30 1 1 2 1
M  V30 2 1 3 2
M  V30 3 1 4 3
M  V30 4 1 5 1
M  V30 5 2 6 3
M  V30 6 2 7 5
M  V30 7 1 7 6
M  V30 8 1 8 1
M  V30 9 1 9 1
M  V30 10 1 10 4
M  V30 11 1 11 4
M  V30 12 1 12 4
M  V30 13 1 13 5
M  V30 14 1 14 6
M  V30 15 1 15 7
M  V30 END BOND
M  V30 END CTAB
M  END
>  <i_epik_Tot_Q>  (1) 
0

>  <i_epik_Tot_abs_Q>  (1) 
0

>  <i_i_glide_confnum>  (1) 
1

>  <i_i_glide_lignum>  (1) 
31

>  <i_i_glide_posenum>  (1) 
18

>  <i_i_glide_rotatable_bonds>  (1) 
0

>  <i_lp_mmshare_version>  (1) 
72125

>  <i_m_source_file_index>  (1) 
28

>  <i_f3d_flags>  (1) 
0

>  <num_sample>  (1) 
100

>  <b_lp_Chiralities_Consistent>  (1) 
1

>  <r_epik_Charging_Adjusted_Penalty>  (1) 
0

>  <r_epik_Ionization_Penalty>  (1) 
0

>  <r_epik_Ionization_Penalty_Charging>  (1) 
0

>  <r_epik_Ionization_Penalty_Neutral>  (1) 
0

>  <r_epik_State_Penalty>  (1) 
-0

>  <r_glide_ring_energy>  (1) 
0

>  <r_i_docking_score>  (1) 
-5.5118605907015619

>  <r_i_glide_ecoul>  (1) 
-0.8712455093098429

>  <r_i_glide_eff_state_penalty>  (1) 
-0

>  <r_i_glide_einternal>  (1) 
0

>  <r_i_glide_emodel>  (1) 
-24.768724453600292

>  <r_i_glide_emodel_strain>  (1) 
0

>  <r_i_glide_energy>  (1) 
-18.726556879700858

>  <r_i_glide_erotb>  (1) 
0

>  <r_i_glide_esite>  (1) 
0

>  <r_i_glide_evdw>  (1) 
-17.855311370391014

>  <r_i_glide_gscore>  (1) 
-5.5118605907015619

>  <r_i_glide_gscore_strain>  (1) 
0

>  <r_i_glide_hbond>  (1) 
0

>  <r_i_glide_ligand_efficiency>  (1) 
-0.78740865581450881

>  <r_i_glide_ligand_efficiency_ln>  (1) 
-1.8710212843623526

>  <r_i_glide_ligand_efficiency_sa>  (1) 
-1.5062585712924654

>  <r_i_glide_lipo>  (1) 
-1.888408195785535

>  <r_i_glide_metal>  (1) 
-0

>  <r_i_glide_rewards>  (1) 
-2.6000000000000001

>  <r_lp_Energy>  (1) 
4.7929789999999999

>  <r_lp_tautomer_probability>  (1) 
1

>  <s_epik_cmdline>  (1) 
J2VwaWtfcHl0aG9uJywgJy1waHQnLCAnMS4wJywgJy1waCcsICc3LjQnLCAnLXRuJywgJzgnLCAnLW1hJywgJzUwMCcsICctaW1hZScsICc8aW5maWxlLm1hZT4nLCAnLW9tYWUnLCAnPG91dGZpbGUubWFlPic=

>  <s_epik_input>  (1) 
TzFbQ0gyXVtDSF09W0NIXVtDSF09QzFbQ0gzXQ==

>  <s_glide_docking_method>  (1) 
confgen

>  <s_i_glide_gridfile>  (1) 
gpcr_drd2_6luq_protein_autoprepared_prepared

>  <s_lp_Force_Field>  (1) 
S-OPLS

>  <s_lp_Variant>  (1) 
Pocket2Mol_27-1

>  <s_m_source_file>  (1) 
generated_generic_title2_ligand_Pocket2Mol_2026-06-23_prepared.sdf

>  <GenAI_Model>  (1) 
Pocket2Mol

>  <Protein>  (1) 
generic_title2

$$$$
Pocket2Mol_43
     RDKit          3D

  0  0  0  0  0  0  0  0  0  0999 V3000
M  V30 BEGIN CTAB
M  V30 COUNTS 16 17 0 0 1
M  V30 BEGIN ATOM
M  V30 1 C 10.535200 7.379183 -7.155802 0
M  V30 2 O 10.889224 8.754930 -6.662652 0
M  V30 3 C 11.364134 8.526151 -5.382932 0
M  V30 4 C 11.375404 7.244956 -5.041181 0
M  V30 5 C 11.775410 6.794402 -3.776864 0
M  V30 6 C 11.775410 9.525569 -4.491921 0
M  V30 7 C 12.205771 9.139640 -3.194164 0
M  V30 8 C 12.203965 7.759642 -2.832819 0
M  V30 9 N 10.939393 6.501316 -6.045442 0
M  V30 10 H 9.460732 7.284982 -7.326061 0
M  V30 11 H 11.101655 7.119584 -8.050689 0
M  V30 12 H 11.761941 5.743155 -3.530072 0
M  V30 13 H 11.757279 10.563925 -4.785024 0
M  V30 14 H 12.527142 9.886665 -2.483217 0
M  V30 15 H 12.524543 7.453634 -1.848010 0
M  V30 16 H 10.323234 5.732258 -5.817190 0
M  V30 END ATOM
M  V30 BEGIN BOND
M  V30 1 1 2 1
M  V30 2 1 3 2
M  V30 3 1 4 3
M  V30 4 2 5 4
M  V30 5 2 6 3
M  V30 6 1 7 6
M  V30 7 1 8 5
M  V30 8 2 8 7
M  V30 9 1 9 1
M  V30 10 1 9 4
M  V30 11 1 10 1
M  V30 12 1 11 1
M  V30 13 1 12 5
M  V30 14 1 13 6
M  V30 15 1 14 7
M  V30 16 1 15 8
M  V30 17 1 16 9
M  V30 END BOND
M  V30 END CTAB
M  END
>  <i_epik_Tot_Q>  (1) 
0

>  <i_epik_Tot_abs_Q>  (1) 
0

>  <i_i_glide_confnum>  (1) 
1

>  <i_i_glide_lignum>  (1) 
48

>  <i_i_glide_posenum>  (1) 
317

>  <i_i_glide_rotatable_bonds>  (1) 
0

>  <i_lp_mmshare_version>  (1) 
72125

>  <i_m_source_file_index>  (1) 
44

>  <i_f3d_flags>  (1) 
0

>  <num_sample>  (1) 
100

>  <b_lp_Chiralities_Consistent>  (1) 
1

>  <r_epik_Charging_Adjusted_Penalty>  (1) 
0

>  <r_epik_Ionization_Penalty>  (1) 
3.929707007381515e-06

>  <r_epik_Ionization_Penalty_Charging>  (1) 
0

>  <r_epik_Ionization_Penalty_Neutral>  (1) 
3.929707007381515e-06

>  <r_epik_State_Penalty>  (1) 
-0

>  <r_glide_ring_energy>  (1) 
0

>  <r_i_docking_score>  (1) 
-5.4949737355644448

>  <r_i_glide_ecoul>  (1) 
-1.8494162310811677

>  <r_i_glide_eff_state_penalty>  (1) 
-0

>  <r_i_glide_einternal>  (1) 
0

>  <r_i_glide_emodel>  (1) 
-27.736485791940318

>  <r_i_glide_emodel_strain>  (1) 
0

>  <r_i_glide_energy>  (1) 
-20.660898225968758

>  <r_i_glide_erotb>  (1) 
0

>  <r_i_glide_esite>  (1) 
0

>  <r_i_glide_evdw>  (1) 
-18.81148199488759

>  <r_i_glide_gscore>  (1) 
-5.4949737355644448

>  <r_i_glide_gscore_strain>  (1) 
0

>  <r_i_glide_hbond>  (1) 
0

>  <r_i_glide_ligand_efficiency>  (1) 
-0.61055263728493836

>  <r_i_glide_ligand_efficiency_ln>  (1) 
-1.7186699284485685

>  <r_i_glide_ligand_efficiency_sa>  (1) 
-1.2700006639380772

>  <r_i_glide_lipo>  (1) 
-1.7229319596226016

>  <r_i_glide_metal>  (1) 
-0

>  <r_i_glide_rewards>  (1) 
-2.5540552415352886

>  <r_lp_Energy>  (1) 
10.457737999999999

>  <r_lp_tautomer_probability>  (1) 
1

>  <s_epik_Chemistry_Notes>  (1) 
This compound contains an acetal/aminal-like group ( X-CH(R)-Y where X, Y are N, S, or O) that may be acid/base labile, releasing an aldehyde.

>  <s_epik_cmdline>  (1) 
J2VwaWtfcHl0aG9uJywgJy1waHQnLCAnMS4wJywgJy1waCcsICc3LjQnLCAnLXRuJywgJzgnLCAnLW1hJywgJzUwMCcsICctaW1hZScsICc8aW5maWxlLm1hZT4nLCAnLW9tYWUnLCAnPG91dGZpbGUubWFlPic=

>  <s_epik_input>  (1) 
TzFbQ0gyXVtOSF1jKGMxMilbY0hdW2NIXVtjSF1bY0hdMg==

>  <s_glide_docking_method>  (1) 
confgen

>  <s_i_glide_gridfile>  (1) 
gpcr_drd2_6luq_protein_autoprepared_prepared

>  <s_lp_Force_Field>  (1) 
S-OPLS

>  <s_lp_Variant>  (1) 
Pocket2Mol_43-1

>  <s_m_source_file>  (1) 
generated_generic_title2_ligand_Pocket2Mol_2026-06-23_prepared.sdf

>  <GenAI_Model>  (1) 
Pocket2Mol

>  <Protein>  (1) 
generic_title2

$$$$
Pocket2Mol_98
     RDKit          3D

  0  0  0  0  0  0  0  0  0  0999 V3000
M  V30 BEGIN CTAB
M  V30 COUNTS 24 25 0 0 1
M  V30 BEGIN ATOM
M  V30 1 C 12.067363 9.341952 -4.494110 0
M  V30 2 O 11.375414 8.041197 -4.440525 0
M  V30 3 C 11.040566 7.847248 -5.733704 0
M  V30 4 C 11.459395 8.794487 -6.595062 0
M  V30 5 C 11.188897 8.711273 -7.970608 0
M  V30 6 C 12.207327 9.895556 -5.985063 0
M  V30 7 C 10.453602 7.607989 -8.463155 0
M  V30 8 N 10.175402 7.548883 -9.882073 0
M  V30 9 C 10.307886 6.737038 -6.171261 0
M  V30 10 C 10.004339 6.605194 -7.543880 0
M  V30 11 C 9.571132 6.524989 -10.540146 0
M  V30 12 O 9.206577 5.479725 -10.012562 0
M  V30 13 C 9.367529 6.726288 -12.033564 0
M  V30 14 H 11.490223 10.042173 -3.890073 0
M  V30 15 H 13.047420 9.253900 -4.023883 0
M  V30 16 H 11.535785 9.482251 -8.643366 0
M  V30 17 H 13.241193 9.917321 -6.331517 0
M  V30 18 H 11.723048 10.860078 -6.134307 0
M  V30 19 H 9.977089 5.990227 -5.465423 0
M  V30 20 H 9.436209 5.758294 -7.867523 0
M  V30 21 H 10.245065 7.191827 -12.481777 0
M  V30 22 H 9.198060 5.770904 -12.530704 0
M  V30 23 H 8.501779 7.364904 -12.210224 0
M  V30 24 H 10.457858 8.347206 -10.427867 0
M  V30 END ATOM
M  V30 BEGIN BOND
M  V30 1 1 2 1
M  V30 2 1 3 2
M  V30 3 2 4 3
M  V30 4 1 5 4
M  V30 5 1 6 1
M  V30 6 1 6 4
M  V30 7 2 7 5
M  V30 8 1 8 7
M  V30 9 1 9 3
M  V30 10 1 10 7
M  V30 11 2 10 9
M  V30 12 1 11 8
M  V30 13 2 12 11
M  V30 14 1 13 11
M  V30 15 1 14 1
M  V30 16 1 15 1
M  V30 17 1 16 5
M  V30 18 1 17 6
M  V30 19 1 18 6
M  V30 20 1 19 9
M  V30 21 1 20 10
M  V30 22 1 21 13
M  V30 23 1 22 13
M  V30 24 1 23 13
M  V30 25 1 24 8
M  V30 END BOND
M  V30 END CTAB
M  END
>  <i_epik_Tot_Q>  (1) 
0

>  <i_epik_Tot_abs_Q>  (1) 
0

>  <i_i_glide_confnum>  (1) 
1

>  <i_i_glide_lignum>  (1) 
107

>  <i_i_glide_posenum>  (1) 
370

>  <i_i_glide_rotatable_bonds>  (1) 
2

>  <i_lp_mmshare_version>  (1) 
72125

>  <i_m_source_file_index>  (1) 
99

>  <i_f3d_flags>  (1) 
0

>  <num_sample>  (1) 
100

>  <b_lp_Chiralities_Consistent>  (1) 
1

>  <r_epik_Charging_Adjusted_Penalty>  (1) 
0

>  <r_epik_Ionization_Penalty>  (1) 
1.4103773659367358e-07

>  <r_epik_Ionization_Penalty_Charging>  (1) 
0

>  <r_epik_Ionization_Penalty_Neutral>  (1) 
1.4103773659367358e-07

>  <r_epik_State_Penalty>  (1) 
-0

>  <r_glide_ring_energy>  (1) 
0

>  <r_i_docking_score>  (1) 
-5.477869602446785

>  <r_i_glide_ecoul>  (1) 
0.97692269644631735

>  <r_i_glide_eff_state_penalty>  (1) 
-0

>  <r_i_glide_einternal>  (1) 
0.78181525088004911

>  <r_i_glide_emodel>  (1) 
-31.735641382644697

>  <r_i_glide_emodel_strain>  (1) 
0

>  <r_i_glide_energy>  (1) 
-23.58221952882268

>  <r_i_glide_erotb>  (1) 
0

>  <r_i_glide_esite>  (1) 
-0.13997650774490866

>  <r_i_glide_evdw>  (1) 
-24.559142225268996

>  <r_i_glide_gscore>  (1) 
-5.477869602446785

>  <r_i_glide_gscore_strain>  (1) 
0

>  <r_i_glide_hbond>  (1) 
0

>  <r_i_glide_ligand_efficiency>  (1) 
-0.42137458480359885

>  <r_i_glide_ligand_efficiency_ln>  (1) 
-1.5365911414650124

>  <r_i_glide_ligand_efficiency_sa>  (1) 
-0.99079267777263413

>  <r_i_glide_lipo>  (1) 
-1.6556069322834828

>  <r_i_glide_metal>  (1) 
-0

>  <r_i_glide_rewards>  (1) 
-2.6008674556218905

>  <r_lp_Energy>  (1) 
14.229996

>  <r_lp_tautomer_probability>  (1) 
1

>  <s_epik_cmdline>  (1) 
J2VwaWtfcHl0aG9uJywgJy1waHQnLCAnMS4wJywgJy1waCcsICc3LjQnLCAnLXRuJywgJzgnLCAnLW1hJywgJzUwMCcsICctaW1hZScsICc8aW5maWxlLm1hZT4nLCAnLW9tYWUnLCAnPG91dGZpbGUubWFlPic=

>  <s_epik_input>  (1) 
TzFbQ0gyXVtDSDJdYyhjMTIpW2NIXWMoW2NIXVtjSF0yKS9OPUMoXFtPSF0pW0NIM10=

>  <s_glide_docking_method>  (1) 
confgen

>  <s_i_glide_gridfile>  (1) 
gpcr_drd2_6luq_protein_autoprepared_prepared

>  <s_lp_Force_Field>  (1) 
S-OPLS

>  <s_lp_Variant>  (1) 
Pocket2Mol_98-1

>  <s_m_source_file>  (1) 
generated_generic_title2_ligand_Pocket2Mol_2026-06-23_prepared.sdf

>  <GenAI_Model>  (1) 
Pocket2Mol

>  <Protein>  (1) 
generic_title2

$$$$
Pocket2Mol_27
     RDKit          3D

  0  0  0  0  0  0  0  0  0  0999 V3000
M  V30 BEGIN CTAB
M  V30 COUNTS 15 15 0 0 1
M  V30 BEGIN ATOM
M  V30 1 C 10.975400 7.263670 -5.713561 0
M  V30 2 O 11.524634 6.889545 -4.422120 0
M  V30 3 C 12.101129 7.839276 -3.585023 0
M  V30 4 C 12.575410 7.271328 -2.272588 0
M  V30 5 C 11.123022 8.733806 -6.044259 0
M  V30 6 C 12.189189 9.135650 -3.944281 0
M  V30 7 C 11.692315 9.590225 -5.205735 0
M  V30 8 H 11.466639 6.674329 -6.487989 0
M  V30 9 H 9.916843 7.002492 -5.732898 0
M  V30 10 H 12.975411 8.052510 -1.625967 0
M  V30 11 H 11.741175 6.794933 -1.757658 0
M  V30 12 H 13.344496 6.518070 -2.440035 0
M  V30 13 H 10.742886 9.070136 -6.997755 0
M  V30 14 H 12.638330 9.844874 -3.264112 0
M  V30 15 H 11.776944 10.632910 -5.475304 0
M  V30 END ATOM
M  V30 BEGIN BOND
M  V30 1 1 2 1
M  V30 2 1 3 2
M  V30 3 1 4 3
M  V30 4 1 5 1
M  V30 5 2 6 3
M  V30 6 2 7 5
M  V30 7 1 7 6
M  V30 8 1 8 1
M  V30 9 1 9 1
M  V30 10 1 10 4
M  V30 11 1 11 4
M  V30 12 1 12 4
M  V30 13 1 13 5
M  V30 14 1 14 6
M  V30 15 1 15 7
M  V30 END BOND
M  V30 END CTAB
M  END
>  <i_epik_Tot_Q>  (1) 
0

>  <i_epik_Tot_abs_Q>  (1) 
0

>  <i_i_glide_confnum>  (1) 
1

>  <i_i_glide_lignum>  (1) 
31

>  <i_i_glide_posenum>  (1) 
349

>  <i_i_glide_rotatable_bonds>  (1) 
0

>  <i_lp_mmshare_version>  (1) 
72125

>  <i_m_source_file_index>  (1) 
28

>  <i_f3d_flags>  (1) 
0

>  <num_sample>  (1) 
100

>  <b_lp_Chiralities_Consistent>  (1) 
1

>  <r_epik_Charging_Adjusted_Penalty>  (1) 
0

>  <r_epik_Ionization_Penalty>  (1) 
0

>  <r_epik_Ionization_Penalty_Charging>  (1) 
0

>  <r_epik_Ionization_Penalty_Neutral>  (1) 
0

>  <r_epik_State_Penalty>  (1) 
-0

>  <r_glide_ring_energy>  (1) 
0

>  <r_i_docking_score>  (1) 
-5.4750886728457058

>  <r_i_glide_ecoul>  (1) 
-0.31692905552212064

>  <r_i_glide_eff_state_penalty>  (1) 
-0

>  <r_i_glide_einternal>  (1) 
0

>  <r_i_glide_emodel>  (1) 
-23.745974647141153

>  <r_i_glide_emodel_strain>  (1) 
0.013607438711710884

>  <r_i_glide_energy>  (1) 
-17.75772432858297

>  <r_i_glide_erotb>  (1) 
0

>  <r_i_glide_esite>  (1) 
0

>  <r_i_glide_evdw>  (1) 
-17.44079527306085

>  <r_i_glide_gscore>  (1) 
-5.4750886728457058

>  <r_i_glide_gscore_strain>  (1) 
0

>  <r_i_glide_hbond>  (1) 
0

>  <r_i_glide_ligand_efficiency>  (1) 
-0.7821555246922437

>  <r_i_glide_ligand_efficiency_ln>  (1) 
-1.8585389220378776

>  <r_i_glide_ligand_efficiency_sa>  (1) 
-1.4962096929614923

>  <r_i_glide_lipo>  (1) 
-1.8902793227825441

>  <r_i_glide_metal>  (1) 
-0

>  <r_i_glide_rewards>  (1) 
-2.6652302280818003

>  <r_lp_Energy>  (1) 
4.7929789999999999

>  <r_lp_tautomer_probability>  (1) 
1

>  <s_epik_cmdline>  (1) 
J2VwaWtfcHl0aG9uJywgJy1waHQnLCAnMS4wJywgJy1waCcsICc3LjQnLCAnLXRuJywgJzgnLCAnLW1hJywgJzUwMCcsICctaW1hZScsICc8aW5maWxlLm1hZT4nLCAnLW9tYWUnLCAnPG91dGZpbGUubWFlPic=

>  <s_epik_input>  (1) 
TzFbQ0gyXVtDSF09W0NIXVtDSF09QzFbQ0gzXQ==

>  <s_glide_docking_method>  (1) 
confgen

>  <s_i_glide_gridfile>  (1) 
gpcr_drd2_6luq_protein_autoprepared_prepared

>  <s_lp_Force_Field>  (1) 
S-OPLS

>  <s_lp_Variant>  (1) 
Pocket2Mol_27-1

>  <s_m_source_file>  (1) 
generated_generic_title2_ligand_Pocket2Mol_2026-06-23_prepared.sdf

>  <GenAI_Model>  (1) 
Pocket2Mol

>  <Protein>  (1) 
generic_title2

$$$$
Pocket2Mol_45
     RDKit          3D

  0  0  0  0  0  0  0  0  0  0999 V3000
M  V30 BEGIN CTAB
M  V30 COUNTS 14 15 0 0 1
M  V30 BEGIN ATOM
M  V30 1 C 12.425410 8.458088 -2.143526 0
M  V30 2 O 12.175720 7.167825 -2.788848 0
M  V30 3 C 11.775411 7.607277 -3.985025 0
M  V30 4 C 11.776863 8.923655 -4.118448 0
M  V30 5 C 11.375582 9.520570 -5.324267 0
M  V30 6 N 10.972323 8.789439 -6.399432 0
M  V30 7 C 10.971639 7.429280 -6.240723 0
M  V30 8 C 11.370827 6.790227 -5.041309 0
M  V30 9 O 12.175401 9.590211 -3.034333 0
M  V30 10 H 11.775411 8.551351 -1.272057 0
M  V30 11 H 13.460069 8.503061 -1.805929 0
M  V30 12 H 11.373483 10.594900 -5.436792 0
M  V30 13 H 10.647886 6.846035 -7.090098 0
M  V30 14 H 11.359924 5.714735 -4.947154 0
M  V30 END ATOM
M  V30 BEGIN BOND
M  V30 1 1 2 1
M  V30 2 1 3 2
M  V30 3 2 4 3
M  V30 4 1 5 4
M  V30 5 2 6 5
M  V30 6 1 7 6
M  V30 7 1 8 3
M  V30 8 2 8 7
M  V30 9 1 9 1
M  V30 10 1 9 4
M  V30 11 1 10 1
M  V30 12 1 11 1
M  V30 13 1 12 5
M  V30 14 1 13 7
M  V30 15 1 14 8
M  V30 END BOND
M  V30 END CTAB
M  END
>  <i_epik_Tot_Q>  (1) 
0

>  <i_epik_Tot_abs_Q>  (1) 
0

>  <i_i_glide_confnum>  (1) 
1

>  <i_i_glide_lignum>  (1) 
50

>  <i_i_glide_posenum>  (1) 
4

>  <i_i_glide_rotatable_bonds>  (1) 
0

>  <i_lp_mmshare_version>  (1) 
72125

>  <i_m_source_file_index>  (1) 
46

>  <i_f3d_flags>  (1) 
0

>  <num_sample>  (1) 
100

>  <b_lp_Chiralities_Consistent>  (1) 
1

>  <r_epik_Charging_Adjusted_Penalty>  (1) 
0.069790075728531922

>  <r_epik_Ionization_Penalty>  (1) 
0.069790075728531936

>  <r_epik_Ionization_Penalty_Charging>  (1) 
0

>  <r_epik_Ionization_Penalty_Neutral>  (1) 
0.069790075728531936

>  <r_epik_State_Penalty>  (1) 
0.069790075728531922

>  <r_glide_ring_energy>  (1) 
0

>  <r_i_docking_score>  (1) 
-5.4663345905794385

>  <r_i_glide_ecoul>  (1) 
-0.584214270427863

>  <r_i_glide_eff_state_penalty>  (1) 
0.069790075728531922

>  <r_i_glide_einternal>  (1) 
0

>  <r_i_glide_emodel>  (1) 
-27.853828822052932

>  <r_i_glide_emodel_strain>  (1) 
0

>  <r_i_glide_energy>  (1) 
-20.570826862993464

>  <r_i_glide_erotb>  (1) 
0

>  <r_i_glide_esite>  (1) 
0

>  <r_i_glide_evdw>  (1) 
-19.986612592565599

>  <r_i_glide_gscore>  (1) 
-5.5361246663079706

>  <r_i_glide_gscore_strain>  (1) 
0

>  <r_i_glide_hbond>  (1) 
0

>  <r_i_glide_ligand_efficiency>  (1) 
-0.60737051006438203

>  <r_i_glide_ligand_efficiency_ln>  (1) 
-1.7097124266240118

>  <r_i_glide_ligand_efficiency_sa>  (1) 
-1.263381572583705

>  <r_i_glide_lipo>  (1) 
-1.3074952294488449

>  <r_i_glide_metal>  (1) 
-0

>  <r_i_glide_rewards>  (1) 
-3.1416666666666666

>  <r_lp_Energy>  (1) 
21.238785

>  <r_lp_tautomer_probability>  (1) 
1

>  <s_epik_Chemistry_Notes>  (1) 
This compound contains an acetal/aminal-like group ( X-CH(R)-Y where X, Y are N, S, or O) that may be acid/base labile, releasing an aldehyde.

>  <s_epik_cmdline>  (1) 
J2VwaWtfcHl0aG9uJywgJy1waHQnLCAnMS4wJywgJy1waCcsICc3LjQnLCAnLXRuJywgJzgnLCAnLW1hJywgJzUwMCcsICctaW1hZScsICc8aW5maWxlLm1hZT4nLCAnLW9tYWUnLCAnPG91dGZpbGUubWFlPic=

>  <s_epik_input>  (1) 
TzFbQ0gyXU9jKGMxMilbY0hdbltjSF1bY0hdMg==

>  <s_glide_docking_method>  (1) 
confgen

>  <s_i_glide_gridfile>  (1) 
gpcr_drd2_6luq_protein_autoprepared_prepared

>  <s_lp_Force_Field>  (1) 
S-OPLS

>  <s_lp_Variant>  (1) 
Pocket2Mol_45-1

>  <s_m_source_file>  (1) 
generated_generic_title2_ligand_Pocket2Mol_2026-06-23_prepared.sdf

>  <GenAI_Model>  (1) 
Pocket2Mol

>  <Protein>  (1) 
generic_title2

$$$$
Pocket2Mol_68
     RDKit          3D

  0  0  0  0  0  0  0  0  0  0999 V3000
M  V30 BEGIN CTAB
M  V30 COUNTS 19 20 0 0 1
M  V30 BEGIN ATOM
M  V30 1 C 11.502960 8.893195 -5.029576 0
M  V30 2 O 10.347325 8.353774 -5.648993 0
M  V30 3 C 10.485764 7.971333 -6.963634 0
M  V30 4 C 12.175258 9.877001 -5.985063 0
M  V30 5 O 12.574897 9.190108 -7.158845 0
M  V30 6 C 11.608681 8.393252 -7.725132 0
M  V30 7 C 9.503548 7.160432 -7.558562 0
M  V30 8 C 9.631452 6.770090 -8.904235 0
M  V30 9 C 11.731755 7.994598 -9.071686 0
M  V30 10 O 12.811465 8.390227 -9.807451 0
M  V30 11 C 10.740466 7.190229 -9.660053 0
M  V30 12 H 12.175399 8.084141 -4.748046 0
M  V30 13 H 11.210158 9.401146 -4.110865 0
M  V30 14 H 13.068209 10.301749 -5.537801 0
M  V30 15 H 11.507699 10.701993 -6.239076 0
M  V30 16 H 8.645454 6.840524 -6.983879 0
M  V30 17 H 8.870441 6.152604 -9.359434 0
M  V30 18 H 13.326010 9.063712 -9.381668 0
M  V30 19 H 10.831606 6.891176 -10.693849 0
M  V30 END ATOM
M  V30 BEGIN BOND
M  V30 1 1 2 1
M  V30 2 1 3 2
M  V30 3 1 4 1
M  V30 4 1 5 4
M  V30 5 1 6 3
M  V30 6 1 6 5
M  V30 7 2 7 3
M  V30 8 1 8 7
M  V30 9 2 9 6
M  V30 10 1 10 9
M  V30 11 2 11 8
M  V30 12 1 11 9
M  V30 13 1 12 1
M  V30 14 1 13 1
M  V30 15 1 14 4
M  V30 16 1 15 4
M  V30 17 1 16 7
M  V30 18 1 17 8
M  V30 19 1 18 10
M  V30 20 1 19 11
M  V30 END BOND
M  V30 END CTAB
M  END
>  <i_epik_Tot_Q>  (1) 
0

>  <i_epik_Tot_abs_Q>  (1) 
0

>  <i_i_glide_confnum>  (1) 
2

>  <i_i_glide_lignum>  (1) 
75

>  <i_i_glide_posenum>  (1) 
344

>  <i_i_glide_rotatable_bonds>  (1) 
1

>  <i_lp_mmshare_version>  (1) 
72125

>  <i_m_source_file_index>  (1) 
69

>  <i_f3d_flags>  (1) 
0

>  <num_sample>  (1) 
100

>  <b_lp_Chiralities_Consistent>  (1) 
1

>  <r_epik_Charging_Adjusted_Penalty>  (1) 
0.0030607566555237334

>  <r_epik_Ionization_Penalty>  (1) 
0.0030607566555237659

>  <r_epik_Ionization_Penalty_Charging>  (1) 
0

>  <r_epik_Ionization_Penalty_Neutral>  (1) 
0.0030607566555237659

>  <r_epik_State_Penalty>  (1) 
0.0030607566555237334

>  <r_glide_ring_energy>  (1) 
0.0030878583902879796

>  <r_i_docking_score>  (1) 
-5.4573885393940502

>  <r_i_glide_ecoul>  (1) 
-2.6333143714298952

>  <r_i_glide_eff_state_penalty>  (1) 
0.0030607566555237334

>  <r_i_glide_einternal>  (1) 
0.40546273952782513

>  <r_i_glide_emodel>  (1) 
-27.820721305812146

>  <r_i_glide_emodel_strain>  (1) 
0

>  <r_i_glide_energy>  (1) 
-20.910374085743548

>  <r_i_glide_erotb>  (1) 
0

>  <r_i_glide_esite>  (1) 
0

>  <r_i_glide_evdw>  (1) 
-18.277059714313651

>  <r_i_glide_gscore>  (1) 
-5.4604492960495739

>  <r_i_glide_gscore_strain>  (1) 
0

>  <r_i_glide_hbond>  (1) 
-0.15916264121409118

>  <r_i_glide_ligand_efficiency>  (1) 
-0.49612623085400459

>  <r_i_glide_ligand_efficiency_ln>  (1) 
-1.6061085175528567

>  <r_i_glide_ligand_efficiency_sa>  (1) 
-1.1033748598285023

>  <r_i_glide_lipo>  (1) 
-1.2293513051662637

>  <r_i_glide_metal>  (1) 
-0

>  <r_i_glide_rewards>  (1) 
-2.7630852082390525

>  <r_lp_Energy>  (1) 
16.942557999999998

>  <r_lp_tautomer_probability>  (1) 
0.99999999996300004

>  <s_epik_cmdline>  (1) 
J2VwaWtfcHl0aG9uJywgJy1waHQnLCAnMS4wJywgJy1waCcsICc3LjQnLCAnLXRuJywgJzgnLCAnLW1hJywgJzUwMCcsICctaW1hZScsICc8aW5maWxlLm1hZT4nLCAnLW9tYWUnLCAnPG91dGZpbGUubWFlPic=

>  <s_epik_input>  (1) 
TzFbQ0gyXVtDSDJdT2MoYzEyKWMoW09IXSlbY0hdW2NIXVtjSF0y

>  <s_glide_docking_method>  (1) 
confgen

>  <s_i_glide_gridfile>  (1) 
gpcr_drd2_6luq_protein_autoprepared_prepared

>  <s_lp_Force_Field>  (1) 
S-OPLS

>  <s_lp_Variant>  (1) 
Pocket2Mol_68-1

>  <s_m_source_file>  (1) 
generated_generic_title2_ligand_Pocket2Mol_2026-06-23_prepared.sdf

>  <GenAI_Model>  (1) 
Pocket2Mol

>  <Protein>  (1) 
generic_title2

$$$$
Pocket2Mol_94
     RDKit          3D

  0  0  0  0  0  0  0  0  0  0999 V3000
M  V30 BEGIN CTAB
M  V30 COUNTS 24 25 0 0 1
M  V30 BEGIN ATOM
M  V30 1 C 12.123394 9.245084 -4.540949 0
M  V30 2 O 11.375411 7.978109 -4.445489 0
M  V30 3 C 10.994257 7.775773 -5.726054 0
M  V30 4 C 11.438906 8.680218 -6.617973 0
M  V30 5 C 11.133414 8.577637 -7.987713 0
M  V30 6 C 12.255772 9.755595 -6.047084 0
M  V30 7 C 10.192466 6.698208 -6.119503 0
M  V30 8 C 10.333589 7.499320 -8.436888 0
M  V30 9 N 10.026439 7.412154 -9.850373 0
M  V30 10 C 9.851597 6.547661 -7.482088 0
M  V30 11 C 9.375446 6.390244 -10.470502 0
M  V30 12 C 9.155003 6.555573 -11.968997 0
M  V30 13 O 8.983882 5.373017 -9.907030 0
M  V30 14 H 11.596524 9.990227 -3.943482 0
M  V30 15 H 13.108580 9.123268 -4.089485 0
M  V30 16 H 11.504656 9.312125 -8.687294 0
M  V30 17 H 13.285103 9.716883 -6.403622 0
M  V30 18 H 11.818338 10.741621 -6.207063 0
M  V30 19 H 9.838549 5.990306 -5.387427 0
M  V30 20 H 10.329525 8.183137 -10.423409 0
M  V30 21 H 9.232299 5.724627 -7.772240 0
M  V30 22 H 10.066206 6.904368 -12.455307 0
M  V30 23 H 8.868407 5.606157 -12.422643 0
M  V30 24 H 8.358670 7.277522 -12.152257 0
M  V30 END ATOM
M  V30 BEGIN BOND
M  V30 1 1 2 1
M  V30 2 1 3 2
M  V30 3 2 4 3
M  V30 4 1 5 4
M  V30 5 1 6 1
M  V30 6 1 6 4
M  V30 7 1 7 3
M  V30 8 2 8 5
M  V30 9 1 9 8
M  V30 10 2 10 7
M  V30 11 1 10 8
M  V30 12 1 11 9
M  V30 13 1 12 11
M  V30 14 2 13 11
M  V30 15 1 14 1
M  V30 16 1 15 1
M  V30 17 1 16 5
M  V30 18 1 17 6
M  V30 19 1 18 6
M  V30 20 1 19 7
M  V30 21 1 20 9
M  V30 22 1 21 10
M  V30 23 1 22 12
M  V30 24 1 23 12
M  V30 25 1 24 12
M  V30 END BOND
M  V30 END CTAB
M  END
>  <i_epik_Tot_Q>  (1) 
0

>  <i_epik_Tot_abs_Q>  (1) 
0

>  <i_i_glide_confnum>  (1) 
1

>  <i_i_glide_lignum>  (1) 
103

>  <i_i_glide_posenum>  (1) 
295

>  <i_i_glide_rotatable_bonds>  (1) 
2

>  <i_lp_mmshare_version>  (1) 
72125

>  <i_m_source_file_index>  (1) 
95

>  <i_f3d_flags>  (1) 
0

>  <num_sample>  (1) 
100

>  <b_lp_Chiralities_Consistent>  (1) 
1

>  <r_epik_Charging_Adjusted_Penalty>  (1) 
0

>  <r_epik_Ionization_Penalty>  (1) 
1.4103773659367358e-07

>  <r_epik_Ionization_Penalty_Charging>  (1) 
0

>  <r_epik_Ionization_Penalty_Neutral>  (1) 
1.4103773659367358e-07

>  <r_epik_State_Penalty>  (1) 
-0

>  <r_glide_ring_energy>  (1) 
0

>  <r_i_docking_score>  (1) 
-5.4561433059935265

>  <r_i_glide_ecoul>  (1) 
0.92333093061671478

>  <r_i_glide_eff_state_penalty>  (1) 
-0

>  <r_i_glide_einternal>  (1) 
1.3062459740462904

>  <r_i_glide_emodel>  (1) 
-31.652920888296798

>  <r_i_glide_emodel_strain>  (1) 
0

>  <r_i_glide_energy>  (1) 
-23.812418315821073

>  <r_i_glide_erotb>  (1) 
0

>  <r_i_glide_esite>  (1) 
-0.16268353690081022

>  <r_i_glide_evdw>  (1) 
-24.735749246437788

>  <r_i_glide_gscore>  (1) 
-5.4561433059935265

>  <r_i_glide_gscore_strain>  (1) 
0

>  <r_i_glide_hbond>  (1) 
0

>  <r_i_glide_ligand_efficiency>  (1) 
-0.41970333123027126

>  <r_i_glide_ligand_efficiency_ln>  (1) 
-1.5304967220848926

>  <r_i_glide_ligand_efficiency_sa>  (1) 
-0.98686300127369164

>  <r_i_glide_lipo>  (1) 
-1.594304378415544

>  <r_i_glide_metal>  (1) 
-0

>  <r_i_glide_rewards>  (1) 
-2.6008675679477897

>  <r_lp_Energy>  (1) 
14.229996

>  <r_lp_tautomer_probability>  (1) 
1

>  <s_epik_cmdline>  (1) 
J2VwaWtfcHl0aG9uJywgJy1waHQnLCAnMS4wJywgJy1waCcsICc3LjQnLCAnLXRuJywgJzgnLCAnLW1hJywgJzUwMCcsICctaW1hZScsICc8aW5maWxlLm1hZT4nLCAnLW9tYWUnLCAnPG91dGZpbGUubWFlPic=

>  <s_epik_input>  (1) 
TzFbQ0gyXVtDSDJdYyhjMTIpW2NIXWMoW2NIXVtjSF0yKVtOSF1DKD1PKVtDSDNd

>  <s_glide_docking_method>  (1) 
confgen

>  <s_i_glide_gridfile>  (1) 
gpcr_drd2_6luq_protein_autoprepared_prepared

>  <s_lp_Force_Field>  (1) 
S-OPLS

>  <s_lp_Variant>  (1) 
Pocket2Mol_94-1

>  <s_m_source_file>  (1) 
generated_generic_title2_ligand_Pocket2Mol_2026-06-23_prepared.sdf

>  <GenAI_Model>  (1) 
Pocket2Mol

>  <Protein>  (1) 
generic_title2

$$$$
Pocket2Mol_96
     RDKit          3D

  0  0  0  0  0  0  0  0  0  0999 V3000
M  V30 BEGIN CTAB
M  V30 COUNTS 20 21 0 0 1
M  V30 BEGIN ATOM
M  V30 1 C 8.795596 6.257429 -11.223091 0
M  V30 2 O 9.375390 5.383182 -10.275911 0
M  V30 3 C 9.533995 7.590230 -11.234364 0
M  V30 4 O 10.824511 7.399391 -10.676577 0
M  V30 5 C 9.236227 5.590227 -8.959091 0
M  V30 6 C 10.856684 7.564290 -9.313934 0
M  V30 7 C 11.660827 8.584262 -8.769095 0
M  V30 8 O 8.517771 4.894330 -8.243885 0
M  V30 9 C 10.087475 6.726715 -8.440793 0
M  V30 10 C 11.700490 8.790227 -7.378082 0
M  V30 11 C 10.935392 7.981729 -6.520750 0
M  V30 12 F 10.975414 8.190128 -5.185025 0
M  V30 13 C 10.132659 6.954326 -7.046699 0
M  V30 14 H 8.893341 5.782066 -12.199080 0
M  V30 15 H 7.728954 6.390227 -11.039995 0
M  V30 16 H 9.625646 7.963376 -12.254421 0
M  V30 17 H 8.975410 8.346454 -10.678537 0
M  V30 18 H 12.245765 9.214780 -9.423215 0
M  V30 19 H 12.316517 9.575714 -6.967248 0
M  V30 20 H 9.553842 6.332336 -6.378312 0
M  V30 END ATOM
M  V30 BEGIN BOND
M  V30 1 1 2 1
M  V30 2 1 3 1
M  V30 3 1 4 3
M  V30 4 1 5 2
M  V30 5 1 6 4
M  V30 6 1 7 6
M  V30 7 2 8 5
M  V30 8 1 9 5
M  V30 9 2 9 6
M  V30 10 2 10 7
M  V30 11 1 11 10
M  V30 12 1 12 11
M  V30 13 1 13 9
M  V30 14 2 13 11
M  V30 15 1 14 1
M  V30 16 1 15 1
M  V30 17 1 16 3
M  V30 18 1 17 3
M  V30 19 1 18 7
M  V30 20 1 19 10
M  V30 21 1 20 13
M  V30 END BOND
M  V30 END CTAB
M  END
>  <i_epik_Tot_Q>  (1) 
0

>  <i_epik_Tot_abs_Q>  (1) 
0

>  <i_i_glide_confnum>  (1) 
6

>  <i_i_glide_lignum>  (1) 
105

>  <i_i_glide_posenum>  (1) 
291

>  <i_i_glide_rotatable_bonds>  (1) 
0

>  <i_lp_mmshare_version>  (1) 
72125

>  <i_m_source_file_index>  (1) 
97

>  <i_f3d_flags>  (1) 
0

>  <num_sample>  (1) 
100

>  <b_lp_Chiralities_Consistent>  (1) 
1

>  <r_epik_Charging_Adjusted_Penalty>  (1) 
0

>  <r_epik_Ionization_Penalty>  (1) 
0

>  <r_epik_Ionization_Penalty_Charging>  (1) 
0

>  <r_epik_Ionization_Penalty_Neutral>  (1) 
0

>  <r_epik_State_Penalty>  (1) 
-0

>  <r_glide_ring_energy>  (1) 
1.0398180339394281

>  <r_i_docking_score>  (1) 
-5.4451531899567822

>  <r_i_glide_ecoul>  (1) 
-2.1315968596017427

>  <r_i_glide_eff_state_penalty>  (1) 
-0

>  <r_i_glide_einternal>  (1) 
0

>  <r_i_glide_emodel>  (1) 
-33.646659908935099

>  <r_i_glide_emodel_strain>  (1) 
0.7346548823329897

>  <r_i_glide_energy>  (1) 
-25.842419136253898

>  <r_i_glide_erotb>  (1) 
0

>  <r_i_glide_esite>  (1) 
-0.061089902556824609

>  <r_i_glide_evdw>  (1) 
-23.710822276652156

>  <r_i_glide_gscore>  (1) 
-5.4451531899567822

>  <r_i_glide_gscore_strain>  (1) 
0

>  <r_i_glide_hbond>  (1) 
0

>  <r_i_glide_ligand_efficiency>  (1) 
-0.41885793768898327

>  <r_i_glide_ligand_efficiency_ln>  (1) 
-1.5274138967948947

>  <r_i_glide_ligand_efficiency_sa>  (1) 
-0.98487519811528612

>  <r_i_glide_lipo>  (1) 
-0.89824001011555488

>  <r_i_glide_metal>  (1) 
-0

>  <r_i_glide_rewards>  (1) 
-2.9805426345115338

>  <r_lp_Energy>  (1) 
17.467690999999999

>  <r_lp_tautomer_probability>  (1) 
1

>  <s_epik_Chemistry_Notes>  (1) 
This compound has an ester and may undergo hydrolysis at high or low pH.

>  <s_epik_cmdline>  (1) 
J2VwaWtfcHl0aG9uJywgJy1waHQnLCAnMS4wJywgJy1waCcsICc3LjQnLCAnLXRuJywgJzgnLCAnLW1hJywgJzUwMCcsICctaW1hZScsICc8aW5maWxlLm1hZT4nLCAnLW9tYWUnLCAnPG91dGZpbGUubWFlPic=

>  <s_epik_input>  (1) 
TzFbQ0gyXVtDSDJdT0MoPU8pYyhjMTIpW2NIXWMoRilbY0hdW2NIXTI=

>  <s_glide_docking_method>  (1) 
confgen

>  <s_i_glide_gridfile>  (1) 
gpcr_drd2_6luq_protein_autoprepared_prepared

>  <s_lp_Force_Field>  (1) 
S-OPLS

>  <s_lp_Variant>  (1) 
Pocket2Mol_96-1

>  <s_m_source_file>  (1) 
generated_generic_title2_ligand_Pocket2Mol_2026-06-23_prepared.sdf

>  <GenAI_Model>  (1) 
Pocket2Mol

>  <Protein>  (1) 
generic_title2

$$$$
Pocket2Mol_46
     RDKit          3D

  0  0  0  0  0  0  0  0  0  0999 V3000
M  V30 BEGIN CTAB
M  V30 COUNTS 18 19 0 0 1
M  V30 BEGIN ATOM
M  V30 1 C 10.175371 7.025106 -9.326885 0
M  V30 2 O 10.562069 6.427460 -8.100306 0
M  V30 3 C 10.966047 7.316579 -7.131766 0
M  V30 4 C 10.971894 6.919803 -5.784041 0
M  V30 5 C 11.279583 7.990220 -9.759650 0
M  V30 6 C 11.377158 8.631226 -7.482350 0
M  V30 7 O 11.386836 9.034090 -8.800818 0
M  V30 8 C 11.375410 7.821627 -4.784995 0
M  V30 9 C 11.775386 9.532109 -6.473178 0
M  V30 10 C 11.774115 9.127801 -5.126921 0
M  V30 11 H 10.025787 6.246651 -10.074759 0
M  V30 12 H 9.228104 7.548124 -9.206139 0
M  V30 13 H 10.662149 5.922889 -5.514866 0
M  V30 14 H 12.235335 7.473882 -9.856777 0
M  V30 15 H 11.040978 8.415325 -10.733396 0
M  V30 16 H 11.377672 7.511224 -3.750796 0
M  V30 17 H 12.081495 10.532382 -6.733573 0
M  V30 18 H 12.080733 9.818354 -4.355121 0
M  V30 END ATOM
M  V30 BEGIN BOND
M  V30 1 1 2 1
M  V30 2 1 3 2
M  V30 3 2 4 3
M  V30 4 1 5 1
M  V30 5 1 6 3
M  V30 6 1 7 5
M  V30 7 1 7 6
M  V30 8 1 8 4
M  V30 9 2 9 6
M  V30 10 2 10 8
M  V30 11 1 10 9
M  V30 12 1 11 1
M  V30 13 1 12 1
M  V30 14 1 13 4
M  V30 15 1 14 5
M  V30 16 1 15 5
M  V30 17 1 16 8
M  V30 18 1 17 9
M  V30 19 1 18 10
M  V30 END BOND
M  V30 END CTAB
M  END
>  <i_epik_Tot_Q>  (1) 
0

>  <i_epik_Tot_abs_Q>  (1) 
0

>  <i_i_glide_confnum>  (1) 
2

>  <i_i_glide_lignum>  (1) 
52

>  <i_i_glide_posenum>  (1) 
186

>  <i_i_glide_rotatable_bonds>  (1) 
0

>  <i_lp_mmshare_version>  (1) 
72125

>  <i_m_source_file_index>  (1) 
47

>  <i_f3d_flags>  (1) 
0

>  <num_sample>  (1) 
100

>  <b_lp_Chiralities_Consistent>  (1) 
1

>  <r_epik_Charging_Adjusted_Penalty>  (1) 
0

>  <r_epik_Ionization_Penalty>  (1) 
0

>  <r_epik_Ionization_Penalty_Charging>  (1) 
0

>  <r_epik_Ionization_Penalty_Neutral>  (1) 
0

>  <r_epik_State_Penalty>  (1) 
-0

>  <r_glide_ring_energy>  (1) 
0.0030885007139812575

>  <r_i_docking_score>  (1) 
-5.4341393171331127

>  <r_i_glide_ecoul>  (1) 
-0.23449699295863102

>  <r_i_glide_eff_state_penalty>  (1) 
-0

>  <r_i_glide_einternal>  (1) 
0

>  <r_i_glide_emodel>  (1) 
-25.611302758732506

>  <r_i_glide_emodel_strain>  (1) 
0

>  <r_i_glide_energy>  (1) 
-18.257033426820854

>  <r_i_glide_erotb>  (1) 
0

>  <r_i_glide_esite>  (1) 
0

>  <r_i_glide_evdw>  (1) 
-18.022536433862221

>  <r_i_glide_gscore>  (1) 
-5.4341393171331127

>  <r_i_glide_gscore_strain>  (1) 
0

>  <r_i_glide_hbond>  (1) 
0

>  <r_i_glide_ligand_efficiency>  (1) 
-0.54341393171331132

>  <r_i_glide_ligand_efficiency_ln>  (1) 
-1.6454199253369275

>  <r_i_glide_ligand_efficiency_sa>  (1) 
-1.170749825529775

>  <r_i_glide_lipo>  (1) 
-1.6532300045935995

>  <r_i_glide_metal>  (1) 
-0

>  <r_i_glide_rewards>  (1) 
-2.8446079419026069

>  <r_lp_Energy>  (1) 
16.729797999999999

>  <r_lp_tautomer_probability>  (1) 
1

>  <s_epik_cmdline>  (1) 
J2VwaWtfcHl0aG9uJywgJy1waHQnLCAnMS4wJywgJy1waCcsICc3LjQnLCAnLXRuJywgJzgnLCAnLW1hJywgJzUwMCcsICctaW1hZScsICc8aW5maWxlLm1hZT4nLCAnLW9tYWUnLCAnPG91dGZpbGUubWFlPic=

>  <s_epik_input>  (1) 
TzFbQ0gyXVtDSDJdT2MoYzEyKVtjSF1bY0hdW2NIXVtjSF0y

>  <s_glide_docking_method>  (1) 
confgen

>  <s_i_glide_gridfile>  (1) 
gpcr_drd2_6luq_protein_autoprepared_prepared

>  <s_lp_Force_Field>  (1) 
S-OPLS

>  <s_lp_Variant>  (1) 
Pocket2Mol_46-1

>  <s_m_source_file>  (1) 
generated_generic_title2_ligand_Pocket2Mol_2026-06-23_prepared.sdf

>  <GenAI_Model>  (1) 
Pocket2Mol

>  <Protein>  (1) 
generic_title2

$$$$
Pocket2Mol_69
     RDKit          3D

  0  0  0  0  0  0  0  0  0  0999 V3000
M  V30 BEGIN CTAB
M  V30 COUNTS 18 19 0 0 1
M  V30 BEGIN ATOM
M  V30 1 C 9.574228 6.623156 -10.789519 0
M  V30 2 O 10.455419 7.590292 -10.169318 0
M  V30 3 C 10.606501 7.665194 -8.788647 0
M  V30 4 C 10.001493 6.703220 -7.942285 0
M  V30 5 C 10.172032 6.790230 -6.545639 0
M  V30 6 C 11.375404 8.704702 -8.228253 0
M  V30 7 C 11.537523 8.790227 -6.831274 0
M  V30 8 C 9.211374 5.642623 -8.527659 0
M  V30 9 F 12.272005 9.792801 -6.295027 0
M  V30 10 C 9.008570 5.588910 -9.839086 0
M  V30 11 C 10.937796 7.833128 -5.991782 0
M  V30 12 H 10.120494 6.112977 -11.583077 0
M  V30 13 H 8.745945 7.154649 -11.258800 0
M  V30 14 H 9.711119 6.058294 -5.898386 0
M  V30 15 H 11.838426 9.438678 -8.870977 0
M  V30 16 H 8.786723 4.899282 -7.869588 0
M  V30 17 H 8.412986 4.796175 -10.266702 0
M  V30 18 H 11.064525 7.899334 -4.921639 0
M  V30 END ATOM
M  V30 BEGIN BOND
M  V30 1 1 2 1
M  V30 2 1 3 2
M  V30 3 2 4 3
M  V30 4 1 5 4
M  V30 5 1 6 3
M  V30 6 2 7 6
M  V30 7 1 8 4
M  V30 8 1 9 7
M  V30 9 1 10 1
M  V30 10 2 10 8
M  V30 11 2 11 5
M  V30 12 1 11 7
M  V30 13 1 12 1
M  V30 14 1 13 1
M  V30 15 1 14 5
M  V30 16 1 15 6
M  V30 17 1 16 8
M  V30 18 1 17 10
M  V30 19 1 18 11
M  V30 END BOND
M  V30 END CTAB
M  END
>  <i_epik_Tot_Q>  (1) 
0

>  <i_epik_Tot_abs_Q>  (1) 
0

>  <i_i_glide_confnum>  (1) 
1

>  <i_i_glide_lignum>  (1) 
76

>  <i_i_glide_posenum>  (1) 
188

>  <i_i_glide_rotatable_bonds>  (1) 
0

>  <i_lp_mmshare_version>  (1) 
72125

>  <i_m_source_file_index>  (1) 
70

>  <i_f3d_flags>  (1) 
0

>  <num_sample>  (1) 
100

>  <b_lp_Chiralities_Consistent>  (1) 
1

>  <r_epik_Charging_Adjusted_Penalty>  (1) 
0

>  <r_epik_Ionization_Penalty>  (1) 
0

>  <r_epik_Ionization_Penalty_Charging>  (1) 
0

>  <r_epik_Ionization_Penalty_Neutral>  (1) 
0

>  <r_epik_State_Penalty>  (1) 
-0

>  <r_glide_ring_energy>  (1) 
0

>  <r_i_docking_score>  (1) 
-5.4303761708279286

>  <r_i_glide_ecoul>  (1) 
-0.67916485416604588

>  <r_i_glide_eff_state_penalty>  (1) 
-0

>  <r_i_glide_einternal>  (1) 
0

>  <r_i_glide_emodel>  (1) 
-28.150271523392476

>  <r_i_glide_emodel_strain>  (1) 
0

>  <r_i_glide_energy>  (1) 
-21.181393857150937

>  <r_i_glide_erotb>  (1) 
0

>  <r_i_glide_esite>  (1) 
0

>  <r_i_glide_evdw>  (1) 
-20.50222900298489

>  <r_i_glide_gscore>  (1) 
-5.4303761708279286

>  <r_i_glide_gscore_strain>  (1) 
0

>  <r_i_glide_hbond>  (1) 
0

>  <r_i_glide_ligand_efficiency>  (1) 
-0.49367056098435713

>  <r_i_glide_ligand_efficiency_ln>  (1) 
-1.5981587820850311

>  <r_i_glide_ligand_efficiency_sa>  (1) 
-1.0979134989293955

>  <r_i_glide_lipo>  (1) 
-0.9113849448380964

>  <r_i_glide_metal>  (1) 
-0

>  <r_i_glide_rewards>  (1) 
-3.3920050477156805

>  <r_lp_Energy>  (1) 
13.322941

>  <r_lp_tautomer_probability>  (1) 
1

>  <s_epik_cmdline>  (1) 
J2VwaWtfcHl0aG9uJywgJy1waHQnLCAnMS4wJywgJy1waCcsICc3LjQnLCAnLXRuJywgJzgnLCAnLW1hJywgJzUwMCcsICctaW1hZScsICc8aW5maWxlLm1hZT4nLCAnLW9tYWUnLCAnPG91dGZpbGUubWFlPic=

>  <s_epik_input>  (1) 
TzFbQ0gyXVtDSF09W0NIXWMoYzEyKVtjSF1bY0hdYyhGKVtjSF0y

>  <s_glide_docking_method>  (1) 
confgen

>  <s_i_glide_gridfile>  (1) 
gpcr_drd2_6luq_protein_autoprepared_prepared

>  <s_lp_Force_Field>  (1) 
S-OPLS

>  <s_lp_Variant>  (1) 
Pocket2Mol_69-1

>  <s_m_source_file>  (1) 
generated_generic_title2_ligand_Pocket2Mol_2026-06-23_prepared.sdf

>  <GenAI_Model>  (1) 
Pocket2Mol

>  <Protein>  (1) 
generic_title2

$$$$
Pocket2Mol_23
     RDKit          3D

  0  0  0  0  0  0  0  0  0  0999 V3000
M  V30 BEGIN CTAB
M  V30 COUNTS 11 11 0 0 1
M  V30 BEGIN ATOM
M  V30 1 N 12.128169 9.516013 -4.639677 0
M  V30 2 C 12.511287 8.754141 -3.585025 0
M  V30 3 C 12.162855 7.396050 -3.442716 0
M  V30 4 C 11.374356 8.917811 -5.594807 0
M  V30 5 C 10.975410 7.566453 -5.537685 0
M  V30 6 F 12.575410 6.688154 -2.365097 0
M  V30 7 C 11.375410 6.790232 -4.437620 0
M  V30 8 H 13.113099 9.244077 -2.834130 0
M  V30 9 H 11.079738 9.537756 -6.428617 0
M  V30 10 H 10.371255 7.136860 -6.324064 0
M  V30 11 H 11.087424 5.752434 -4.359426 0
M  V30 END ATOM
M  V30 BEGIN BOND
M  V30 1 2 2 1
M  V30 2 1 3 2
M  V30 3 1 4 1
M  V30 4 2 5 4
M  V30 5 1 6 3
M  V30 6 2 7 3
M  V30 7 1 7 5
M  V30 8 1 8 2
M  V30 9 1 9 4
M  V30 10 1 10 5
M  V30 11 1 11 7
M  V30 END BOND
M  V30 END CTAB
M  END
>  <i_epik_Tot_Q>  (1) 
0

>  <i_epik_Tot_abs_Q>  (1) 
0

>  <i_i_glide_confnum>  (1) 
1

>  <i_i_glide_lignum>  (1) 
27

>  <i_i_glide_posenum>  (1) 
272

>  <i_i_glide_rotatable_bonds>  (1) 
0

>  <i_lp_mmshare_version>  (1) 
72125

>  <i_m_source_file_index>  (1) 
24

>  <i_f3d_flags>  (1) 
0

>  <num_sample>  (1) 
100

>  <b_lp_Chiralities_Consistent>  (1) 
1

>  <r_epik_Charging_Adjusted_Penalty>  (1) 
0

>  <r_epik_Ionization_Penalty>  (1) 
7.3223601380878174e-05

>  <r_epik_Ionization_Penalty_Charging>  (1) 
0

>  <r_epik_Ionization_Penalty_Neutral>  (1) 
7.3223601380878174e-05

>  <r_epik_State_Penalty>  (1) 
-0

>  <r_glide_ring_energy>  (1) 
0

>  <r_i_docking_score>  (1) 
-5.4018780936326376

>  <r_i_glide_ecoul>  (1) 
-1.0693455766438051

>  <r_i_glide_eff_state_penalty>  (1) 
-0

>  <r_i_glide_einternal>  (1) 
0

>  <r_i_glide_emodel>  (1) 
-21.942761934891799

>  <r_i_glide_emodel_strain>  (1) 
0

>  <r_i_glide_energy>  (1) 
-16.424582717143458

>  <r_i_glide_erotb>  (1) 
0

>  <r_i_glide_esite>  (1) 
0

>  <r_i_glide_evdw>  (1) 
-15.355237140499652

>  <r_i_glide_gscore>  (1) 
-5.4018780936326376

>  <r_i_glide_gscore_strain>  (1) 
0

>  <r_i_glide_hbond>  (1) 
0

>  <r_i_glide_ligand_efficiency>  (1) 
-0.7716968705189482

>  <r_i_glide_ligand_efficiency_ln>  (1) 
-1.8336873225291332

>  <r_i_glide_ligand_efficiency_sa>  (1) 
-1.476203007263563

>  <r_i_glide_lipo>  (1) 
-1.4849467031672106

>  <r_i_glide_metal>  (1) 
-0

>  <r_i_glide_rewards>  (1) 
-2.9887676969438735

>  <r_lp_Energy>  (1) 
10.789624

>  <r_lp_tautomer_probability>  (1) 
1

>  <s_epik_cmdline>  (1) 
J2VwaWtfcHl0aG9uJywgJy1waHQnLCAnMS4wJywgJy1waCcsICc3LjQnLCAnLXRuJywgJzgnLCAnLW1hJywgJzUwMCcsICctaW1hZScsICc8aW5maWxlLm1hZT4nLCAnLW9tYWUnLCAnPG91dGZpbGUubWFlPic=

>  <s_epik_input>  (1) 
W2NIXTFbY0hdW2NIXW5bY0hdYzFG

>  <s_glide_docking_method>  (1) 
confgen

>  <s_i_glide_gridfile>  (1) 
gpcr_drd2_6luq_protein_autoprepared_prepared

>  <s_lp_Force_Field>  (1) 
S-OPLS

>  <s_lp_Variant>  (1) 
Pocket2Mol_23-1

>  <s_m_source_file>  (1) 
generated_generic_title2_ligand_Pocket2Mol_2026-06-23_prepared.sdf

>  <GenAI_Model>  (1) 
Pocket2Mol

>  <Protein>  (1) 
generic_title2

$$$$
Pocket2Mol_36
     RDKit          3D

  0  0  0  0  0  0  0  0  0  0999 V3000
M  V30 BEGIN CTAB
M  V30 COUNTS 15 16 0 0 1
M  V30 BEGIN ATOM
M  V30 1 C 11.160941 9.108749 -6.409419 0
M  V30 2 O 10.963417 7.695981 -6.110059 0
M  V30 3 C 11.375411 7.681682 -4.841191 0
M  V30 4 C 11.784207 8.865696 -4.384633 0
M  V30 5 C 12.250535 9.028018 -3.070461 0
M  V30 6 C 12.286758 7.903718 -2.216506 0
M  V30 7 C 11.849907 6.645234 -2.701278 0
M  V30 8 C 11.386062 6.535533 -4.033695 0
M  V30 9 O 11.706760 9.854971 -5.279095 0
M  V30 10 H 10.194614 9.534698 -6.674852 0
M  V30 11 H 11.829751 9.200176 -7.265854 0
M  V30 12 H 12.575355 9.990264 -2.718513 0
M  V30 13 H 12.643448 8.003433 -1.202073 0
M  V30 14 H 11.869879 5.777023 -2.058625 0
M  V30 15 H 11.046630 5.590316 -4.422156 0
M  V30 END ATOM
M  V30 BEGIN BOND
M  V30 1 1 2 1
M  V30 2 1 3 2
M  V30 3 1 4 3
M  V30 4 2 5 4
M  V30 5 1 6 5
M  V30 6 2 7 6
M  V30 7 2 8 3
M  V30 8 1 8 7
M  V30 9 1 9 1
M  V30 10 1 9 4
M  V30 11 1 10 1
M  V30 12 1 11 1
M  V30 13 1 12 5
M  V30 14 1 13 6
M  V30 15 1 14 7
M  V30 16 1 15 8
M  V30 END BOND
M  V30 END CTAB
M  END
>  <i_epik_Tot_Q>  (1) 
0

>  <i_epik_Tot_abs_Q>  (1) 
0

>  <i_i_glide_confnum>  (1) 
1

>  <i_i_glide_lignum>  (1) 
41

>  <i_i_glide_posenum>  (1) 
105

>  <i_i_glide_rotatable_bonds>  (1) 
0

>  <i_lp_mmshare_version>  (1) 
72125

>  <i_m_source_file_index>  (1) 
37

>  <i_f3d_flags>  (1) 
0

>  <num_sample>  (1) 
100

>  <b_lp_Chiralities_Consistent>  (1) 
1

>  <r_epik_Charging_Adjusted_Penalty>  (1) 
0

>  <r_epik_Ionization_Penalty>  (1) 
0

>  <r_epik_Ionization_Penalty_Charging>  (1) 
0

>  <r_epik_Ionization_Penalty_Neutral>  (1) 
0

>  <r_epik_State_Penalty>  (1) 
-0

>  <r_glide_ring_energy>  (1) 
0

>  <r_i_docking_score>  (1) 
-5.3953006711551073

>  <r_i_glide_ecoul>  (1) 
-0.78220197000481673

>  <r_i_glide_eff_state_penalty>  (1) 
-0

>  <r_i_glide_einternal>  (1) 
0

>  <r_i_glide_emodel>  (1) 
-25.807336728706723

>  <r_i_glide_emodel_strain>  (1) 
0

>  <r_i_glide_energy>  (1) 
-18.850168515873126

>  <r_i_glide_erotb>  (1) 
0

>  <r_i_glide_esite>  (1) 
0

>  <r_i_glide_evdw>  (1) 
-18.067966545868309

>  <r_i_glide_gscore>  (1) 
-5.3953006711551073

>  <r_i_glide_gscore_strain>  (1) 
0

>  <r_i_glide_hbond>  (1) 
0

>  <r_i_glide_ligand_efficiency>  (1) 
-0.5994778523505675

>  <r_i_glide_ligand_efficiency_ln>  (1) 
-1.6874950572443752

>  <r_i_glide_ligand_efficiency_sa>  (1) 
-1.2469641829523135

>  <r_i_glide_lipo>  (1) 
-1.7015093099524943

>  <r_i_glide_metal>  (1) 
-0

>  <r_i_glide_rewards>  (1) 
-2.6730627384084755

>  <r_lp_Energy>  (1) 
19.342482

>  <r_lp_tautomer_probability>  (1) 
1

>  <s_epik_Chemistry_Notes>  (1) 
This compound contains an acetal/aminal-like group ( X-CH(R)-Y where X, Y are N, S, or O) that may be acid/base labile, releasing an aldehyde.

>  <s_epik_cmdline>  (1) 
J2VwaWtfcHl0aG9uJywgJy1waHQnLCAnMS4wJywgJy1waCcsICc3LjQnLCAnLXRuJywgJzgnLCAnLW1hJywgJzUwMCcsICctaW1hZScsICc8aW5maWxlLm1hZT4nLCAnLW9tYWUnLCAnPG91dGZpbGUubWFlPic=

>  <s_epik_input>  (1) 
TzFbQ0gyXU9jKGMxMilbY0hdW2NIXVtjSF1bY0hdMg==

>  <s_glide_docking_method>  (1) 
confgen

>  <s_i_glide_gridfile>  (1) 
gpcr_drd2_6luq_protein_autoprepared_prepared

>  <s_lp_Force_Field>  (1) 
S-OPLS

>  <s_lp_Variant>  (1) 
Pocket2Mol_36-1

>  <s_m_source_file>  (1) 
generated_generic_title2_ligand_Pocket2Mol_2026-06-23_prepared.sdf

>  <GenAI_Model>  (1) 
Pocket2Mol

>  <Protein>  (1) 
generic_title2

$$$$
Pocket2Mol_45
     RDKit          3D

  0  0  0  0  0  0  0  0  0  0999 V3000
M  V30 BEGIN CTAB
M  V30 COUNTS 14 15 0 0 1
M  V30 BEGIN ATOM
M  V30 1 C 12.425788 8.522279 -2.205442 0
M  V30 2 O 12.172282 9.590227 -3.171177 0
M  V30 3 C 11.775413 8.851382 -4.206668 0
M  V30 4 C 11.775413 7.547798 -3.985025 0
M  V30 5 C 11.374344 6.654325 -4.989577 0
M  V30 6 N 10.975360 7.074922 -6.222747 0
M  V30 7 C 10.977252 8.426602 -6.431062 0
M  V30 8 C 11.375411 9.360172 -5.443716 0
M  V30 9 O 12.175410 7.191262 -2.760818 0
M  V30 10 H 13.461718 8.589770 -1.874000 0
M  V30 11 H 11.777960 8.673371 -1.340409 0
M  V30 12 H 11.371463 5.590232 -4.813291 0
M  V30 13 H 10.656458 8.763765 -7.405681 0
M  V30 14 H 11.367198 10.422222 -5.638616 0
M  V30 END ATOM
M  V30 BEGIN BOND
M  V30 1 1 2 1
M  V30 2 1 3 2
M  V30 3 2 4 3
M  V30 4 1 5 4
M  V30 5 2 6 5
M  V30 6 1 7 6
M  V30 7 1 8 3
M  V30 8 2 8 7
M  V30 9 1 9 1
M  V30 10 1 9 4
M  V30 11 1 10 1
M  V30 12 1 11 1
M  V30 13 1 12 5
M  V30 14 1 13 7
M  V30 15 1 14 8
M  V30 END BOND
M  V30 END CTAB
M  END
>  <i_epik_Tot_Q>  (1) 
0

>  <i_epik_Tot_abs_Q>  (1) 
0

>  <i_i_glide_confnum>  (1) 
1

>  <i_i_glide_lignum>  (1) 
50

>  <i_i_glide_posenum>  (1) 
180

>  <i_i_glide_rotatable_bonds>  (1) 
0

>  <i_lp_mmshare_version>  (1) 
72125

>  <i_m_source_file_index>  (1) 
46

>  <i_f3d_flags>  (1) 
0

>  <num_sample>  (1) 
100

>  <b_lp_Chiralities_Consistent>  (1) 
1

>  <r_epik_Charging_Adjusted_Penalty>  (1) 
0.069790075728531922

>  <r_epik_Ionization_Penalty>  (1) 
0.069790075728531936

>  <r_epik_Ionization_Penalty_Charging>  (1) 
0

>  <r_epik_Ionization_Penalty_Neutral>  (1) 
0.069790075728531936

>  <r_epik_State_Penalty>  (1) 
0.069790075728531922

>  <r_glide_ring_energy>  (1) 
0

>  <r_i_docking_score>  (1) 
-5.3839326282137279

>  <r_i_glide_ecoul>  (1) 
-0.021641091216547614

>  <r_i_glide_eff_state_penalty>  (1) 
0.069790075728531922

>  <r_i_glide_einternal>  (1) 
0

>  <r_i_glide_emodel>  (1) 
-26.977933177449298

>  <r_i_glide_emodel_strain>  (1) 
0

>  <r_i_glide_energy>  (1) 
-19.803334422709295

>  <r_i_glide_erotb>  (1) 
0

>  <r_i_glide_esite>  (1) 
0

>  <r_i_glide_evdw>  (1) 
-19.781693331492747

>  <r_i_glide_gscore>  (1) 
-5.45372270394226

>  <r_i_glide_gscore_strain>  (1) 
0

>  <r_i_glide_hbond>  (1) 
0

>  <r_i_glide_ligand_efficiency>  (1) 
-0.59821473646819201

>  <r_i_glide_ligand_efficiency_ln>  (1) 
-1.6839394599860649

>  <r_i_glide_ligand_efficiency_sa>  (1) 
-1.2443367960387444

>  <r_i_glide_lipo>  (1) 
-1.3336387268311558

>  <r_i_glide_metal>  (1) 
-0

>  <r_i_glide_rewards>  (1) 
-3.1277531468539848

>  <r_lp_Energy>  (1) 
21.238785

>  <r_lp_tautomer_probability>  (1) 
1

>  <s_epik_Chemistry_Notes>  (1) 
This compound contains an acetal/aminal-like group ( X-CH(R)-Y where X, Y are N, S, or O) that may be acid/base labile, releasing an aldehyde.

>  <s_epik_cmdline>  (1) 
J2VwaWtfcHl0aG9uJywgJy1waHQnLCAnMS4wJywgJy1waCcsICc3LjQnLCAnLXRuJywgJzgnLCAnLW1hJywgJzUwMCcsICctaW1hZScsICc8aW5maWxlLm1hZT4nLCAnLW9tYWUnLCAnPG91dGZpbGUubWFlPic=

>  <s_epik_input>  (1) 
TzFbQ0gyXU9jKGMxMilbY0hdbltjSF1bY0hdMg==

>  <s_glide_docking_method>  (1) 
confgen

>  <s_i_glide_gridfile>  (1) 
gpcr_drd2_6luq_protein_autoprepared_prepared

>  <s_lp_Force_Field>  (1) 
S-OPLS

>  <s_lp_Variant>  (1) 
Pocket2Mol_45-1

>  <s_m_source_file>  (1) 
generated_generic_title2_ligand_Pocket2Mol_2026-06-23_prepared.sdf

>  <GenAI_Model>  (1) 
Pocket2Mol

>  <Protein>  (1) 
generic_title2

$$$$
Pocket2Mol_85
     RDKit          3D

  0  0  0  0  0  0  0  0  0  0999 V3000
M  V30 BEGIN CTAB
M  V30 COUNTS 22 23 0 0 1
M  V30 BEGIN ATOM
M  V30 1 C 9.706161 6.745017 -8.870328 0
M  V30 2 O 9.884471 8.150229 -8.961134 0
M  V30 3 C 9.546702 6.298680 -7.416581 0
M  V30 4 O 10.800241 6.307871 -6.745623 0
M  V30 5 C 11.159325 8.588324 -8.529708 0
M  V30 6 C 11.154075 7.522747 -6.216579 0
M  V30 7 C 11.375485 7.674369 -4.837673 0
M  V30 8 C 11.320768 8.653393 -7.021376 0
M  V30 9 C 11.227809 6.504020 -3.897142 0
M  V30 10 N 11.741445 8.855927 -4.273469 0
M  V30 11 N 11.841889 9.952987 -5.046363 0
M  V30 12 C 11.659513 9.854948 -6.385025 0
M  V30 13 H 8.802305 6.479289 -9.416725 0
M  V30 14 H 10.519526 6.208403 -9.358473 0
M  V30 15 H 8.800332 6.902967 -6.896209 0
M  V30 16 H 9.175911 5.273178 -7.401565 0
M  V30 17 H 11.950790 7.962238 -8.945250 0
M  V30 18 H 11.328044 9.582392 -8.945484 0
M  V30 19 H 11.581367 5.590837 -4.368242 0
M  V30 20 H 10.178486 6.386733 -3.639130 0
M  V30 21 H 11.793729 6.651465 -2.977638 0
M  V30 22 H 11.775932 10.762325 -6.952038 0
M  V30 END ATOM
M  V30 BEGIN BOND
M  V30 1 1 2 1
M  V30 2 1 3 1
M  V30 3 1 4 3
M  V30 4 1 5 2
M  V30 5 1 6 4
M  V30 6 1 7 6
M  V30 7 1 8 5
M  V30 8 2 8 6
M  V30 9 1 9 7
M  V30 10 2 10 7
M  V30 11 1 11 10
M  V30 12 1 12 8
M  V30 13 2 12 11
M  V30 14 1 13 1
M  V30 15 1 14 1
M  V30 16 1 15 3
M  V30 17 1 16 3
M  V30 18 1 17 5
M  V30 19 1 18 5
M  V30 20 1 19 9
M  V30 21 1 20 9
M  V30 22 1 21 9
M  V30 23 1 22 12
M  V30 END BOND
M  V30 END CTAB
M  END
>  <i_epik_Tot_Q>  (1) 
0

>  <i_epik_Tot_abs_Q>  (1) 
0

>  <i_i_glide_confnum>  (1) 
1

>  <i_i_glide_lignum>  (1) 
92

>  <i_i_glide_posenum>  (1) 
114

>  <i_i_glide_rotatable_bonds>  (1) 
0

>  <i_lp_mmshare_version>  (1) 
72125

>  <i_m_source_file_index>  (1) 
86

>  <i_f3d_flags>  (1) 
0

>  <num_sample>  (1) 
100

>  <b_lp_Chiralities_Consistent>  (1) 
1

>  <r_epik_Charging_Adjusted_Penalty>  (1) 
0.0091269655628041547

>  <r_epik_Ionization_Penalty>  (1) 
0.0091374853106045584

>  <r_epik_Ionization_Penalty_Charging>  (1) 
0

>  <r_epik_Ionization_Penalty_Neutral>  (1) 
0.0091374853106045584

>  <r_epik_State_Penalty>  (1) 
0.0091269655628041547

>  <r_glide_ring_energy>  (1) 
0

>  <r_i_docking_score>  (1) 
-5.3838213502334122

>  <r_i_glide_ecoul>  (1) 
-0.9692884409545669

>  <r_i_glide_eff_state_penalty>  (1) 
0.0091269655628041547

>  <r_i_glide_einternal>  (1) 
0

>  <r_i_glide_emodel>  (1) 
-27.426672189615633

>  <r_i_glide_emodel_strain>  (1) 
0.01415724975896282

>  <r_i_glide_energy>  (1) 
-21.011713504932587

>  <r_i_glide_erotb>  (1) 
0

>  <r_i_glide_esite>  (1) 
0

>  <r_i_glide_evdw>  (1) 
-20.042425063978019

>  <r_i_glide_gscore>  (1) 
-5.3929483157962164

>  <r_i_glide_gscore_strain>  (1) 
0

>  <r_i_glide_hbond>  (1) 
0

>  <r_i_glide_ligand_efficiency>  (1) 
-0.44865177918611771

>  <r_i_glide_ligand_efficiency_ln>  (1) 
-1.5448968627498041

>  <r_i_glide_ligand_efficiency_sa>  (1) 
-1.0271561631624828

>  <r_i_glide_lipo>  (1) 
-1.3903075762982073

>  <r_i_glide_metal>  (1) 
-0

>  <r_i_glide_rewards>  (1) 
-2.8551262201559235

>  <r_lp_Energy>  (1) 
19.395567

>  <r_lp_tautomer_probability>  (1) 
1

>  <s_epik_cmdline>  (1) 
J2VwaWtfcHl0aG9uJywgJy1waHQnLCAnMS4wJywgJy1waCcsICc3LjQnLCAnLXRuJywgJzgnLCAnLW1hJywgJzUwMCcsICctaW1hZScsICc8aW5maWxlLm1hZT4nLCAnLW9tYWUnLCAnPG91dGZpbGUubWFlPic=

>  <s_epik_input>  (1) 
TzFbQ0gyXVtDSDJdT1tDSDJdYyhjMTIpW2NIXW5uYzJbQ0gzXQ==

>  <s_glide_docking_method>  (1) 
confgen

>  <s_i_glide_gridfile>  (1) 
gpcr_drd2_6luq_protein_autoprepared_prepared

>  <s_lp_Force_Field>  (1) 
S-OPLS

>  <s_lp_Variant>  (1) 
Pocket2Mol_85-1

>  <s_m_source_file>  (1) 
generated_generic_title2_ligand_Pocket2Mol_2026-06-23_prepared.sdf

>  <GenAI_Model>  (1) 
Pocket2Mol

>  <Protein>  (1) 
generic_title2

$$$$
Pocket2Mol_61
     RDKit          3D

  0  0  0  0  0  0  0  0  0  0999 V3000
M  V30 BEGIN CTAB
M  V30 COUNTS 18 19 0 0 1
M  V30 BEGIN ATOM
M  V30 1 C 7.128751 3.027592 -13.945039 0
M  V30 2 O 6.756878 4.328650 -14.229688 0
M  V30 3 C 7.456314 5.144374 -13.371626 0
M  V30 4 C 8.273611 4.358418 -12.544531 0
M  V30 5 C 9.072750 5.043433 -11.592356 0
M  V30 6 C 9.031775 6.459730 -11.494489 0
M  V30 7 C 8.055743 2.994552 -12.918634 0
M  V30 8 N 9.832005 7.107123 -10.540376 0
M  V30 9 C 8.185510 7.208055 -12.358769 0
M  V30 10 C 7.392566 6.538118 -13.302166 0
M  V30 11 O 9.376006 8.381610 -10.180129 0
M  V30 12 H 6.658478 2.260203 -14.543339 0
M  V30 13 H 9.719636 4.479599 -10.936579 0
M  V30 14 H 8.525161 2.123886 -12.480532 0
M  V30 15 H 10.099802 6.577889 -9.722623 0
M  V30 16 H 8.147755 8.285112 -12.290569 0
M  V30 17 H 6.743729 7.091040 -13.964447 0
M  V30 18 H 8.428681 8.273210 -9.985014 0
M  V30 END ATOM
M  V30 BEGIN BOND
M  V30 1 1 2 1
M  V30 2 1 3 2
M  V30 3 1 4 3
M  V30 4 2 5 4
M  V30 5 1 6 5
M  V30 6 2 7 1
M  V30 7 1 7 4
M  V30 8 1 8 6
M  V30 9 2 9 6
M  V30 10 2 10 3
M  V30 11 1 10 9
M  V30 12 1 11 8
M  V30 13 1 12 1
M  V30 14 1 13 5
M  V30 15 1 14 7
M  V30 16 1 15 8
M  V30 17 1 16 9
M  V30 18 1 17 10
M  V30 19 1 18 11
M  V30 END BOND
M  V30 END CTAB
M  END
>  <i_epik_Tot_Q>  (1) 
0

>  <i_epik_Tot_abs_Q>  (1) 
0

>  <i_i_glide_confnum>  (1) 
1

>  <i_i_glide_lignum>  (1) 
68

>  <i_i_glide_posenum>  (1) 
363

>  <i_i_glide_rotatable_bonds>  (1) 
2

>  <i_lp_mmshare_version>  (1) 
72125

>  <i_m_source_file_index>  (1) 
62

>  <i_f3d_flags>  (1) 
0

>  <num_sample>  (1) 
100

>  <b_lp_Chiralities_Consistent>  (1) 
1

>  <r_epik_Charging_Adjusted_Penalty>  (1) 
0

>  <r_epik_Ionization_Penalty>  (1) 
0.00016546089717554426

>  <r_epik_Ionization_Penalty_Charging>  (1) 
0

>  <r_epik_Ionization_Penalty_Neutral>  (1) 
0.00016546089717554426

>  <r_epik_State_Penalty>  (1) 
-0

>  <r_glide_ring_energy>  (1) 
0

>  <r_i_docking_score>  (1) 
-5.3768772710773236

>  <r_i_glide_ecoul>  (1) 
-7.6472028849057718

>  <r_i_glide_eff_state_penalty>  (1) 
-0

>  <r_i_glide_einternal>  (1) 
1.0677516126550328

>  <r_i_glide_emodel>  (1) 
-30.46686871472663

>  <r_i_glide_emodel_strain>  (1) 
0.015302061797818567

>  <r_i_glide_energy>  (1) 
-22.2451157676017

>  <r_i_glide_erotb>  (1) 
0

>  <r_i_glide_esite>  (1) 
-0.077405967621054173

>  <r_i_glide_evdw>  (1) 
-14.597912882695928

>  <r_i_glide_gscore>  (1) 
-5.3768772710773236

>  <r_i_glide_gscore_strain>  (1) 
0

>  <r_i_glide_hbond>  (1) 
-0.16

>  <r_i_glide_ligand_efficiency>  (1) 
-0.48880702464339304

>  <r_i_glide_ligand_efficiency_ln>  (1) 
-1.5824140650012273

>  <r_i_glide_ligand_efficiency_sa>  (1) 
-1.087097090937331

>  <r_i_glide_lipo>  (1) 
-0.74172738085774326

>  <r_i_glide_metal>  (1) 
-0

>  <r_i_glide_rewards>  (1) 
-2.5207678457278635

>  <r_lp_Energy>  (1) 
13.798807999999999

>  <r_lp_tautomer_probability>  (1) 
1

>  <s_epik_Chemistry_Notes>  (1) 
This compound has a N-S or N-O group and may undergo hydrolysis at high or low pH.

>  <s_epik_cmdline>  (1) 
J2VwaWtfcHl0aG9uJywgJy1waHQnLCAnMS4wJywgJy1waCcsICc3LjQnLCAnLXRuJywgJzgnLCAnLW1hJywgJzUwMCcsICctaW1hZScsICc8aW5maWxlLm1hZT4nLCAnLW9tYWUnLCAnPG91dGZpbGUubWFlPic=

>  <s_epik_input>  (1) 
bzFbY0hdW2NIXWMoYzEyKVtjSF1jKFtOSF1bT0hdKVtjSF1bY0hdMg==

>  <s_glide_docking_method>  (1) 
confgen

>  <s_i_glide_gridfile>  (1) 
gpcr_drd2_6luq_protein_autoprepared_prepared

>  <s_lp_Force_Field>  (1) 
S-OPLS

>  <s_lp_Variant>  (1) 
Pocket2Mol_61-1

>  <s_m_source_file>  (1) 
generated_generic_title2_ligand_Pocket2Mol_2026-06-23_prepared.sdf

>  <GenAI_Model>  (1) 
Pocket2Mol

>  <Protein>  (1) 
generic_title2

$$$$
Pocket2Mol_58
     RDKit          3D

  0  0  0  0  0  0  0  0  0  0999 V3000
M  V30 BEGIN CTAB
M  V30 COUNTS 18 19 0 0 1
M  V30 BEGIN ATOM
M  V30 1 C 12.306670 9.538553 -4.999740 0
M  V30 2 O 12.208629 9.590255 -6.440256 0
M  V30 3 C 11.516168 8.629498 -7.169485 0
M  V30 4 C 10.975410 7.488804 -6.527964 0
M  V30 5 C 10.276659 6.523998 -7.280808 0
M  V30 6 C 11.359544 8.790230 -8.560812 0
M  V30 7 C 10.657802 7.825324 -9.308794 0
M  V30 8 C 11.154922 7.329821 -5.103862 0
M  V30 9 C 10.115882 6.694105 -8.669056 0
M  V30 10 C 11.775415 8.262999 -4.385010 0
M  V30 11 H 11.758309 10.381838 -4.580604 0
M  V30 12 H 13.353796 9.653850 -4.717964 0
M  V30 13 H 9.861554 5.653929 -6.793443 0
M  V30 14 H 11.775166 9.656380 -9.053781 0
M  V30 15 H 10.533753 7.953308 -10.374114 0
M  V30 16 H 10.772543 6.431760 -4.638138 0
M  V30 17 H 9.576352 5.955412 -9.244255 0
M  V30 18 H 11.904364 8.135184 -3.320352 0
M  V30 END ATOM
M  V30 BEGIN BOND
M  V30 1 1 2 1
M  V30 2 1 3 2
M  V30 3 1 4 3
M  V30 4 2 5 4
M  V30 5 2 6 3
M  V30 6 1 7 6
M  V30 7 1 8 4
M  V30 8 1 9 5
M  V30 9 2 9 7
M  V30 10 1 10 1
M  V30 11 2 10 8
M  V30 12 1 11 1
M  V30 13 1 12 1
M  V30 14 1 13 5
M  V30 15 1 14 6
M  V30 16 1 15 7
M  V30 17 1 16 8
M  V30 18 1 17 9
M  V30 19 1 18 10
M  V30 END BOND
M  V30 END CTAB
M  END
>  <i_epik_Tot_Q>  (1) 
0

>  <i_epik_Tot_abs_Q>  (1) 
0

>  <i_i_glide_confnum>  (1) 
1

>  <i_i_glide_lignum>  (1) 
65

>  <i_i_glide_posenum>  (1) 
82

>  <i_i_glide_rotatable_bonds>  (1) 
0

>  <i_lp_mmshare_version>  (1) 
72125

>  <i_m_source_file_index>  (1) 
59

>  <i_f3d_flags>  (1) 
0

>  <num_sample>  (1) 
100

>  <b_lp_Chiralities_Consistent>  (1) 
1

>  <r_epik_Charging_Adjusted_Penalty>  (1) 
0

>  <r_epik_Ionization_Penalty>  (1) 
0

>  <r_epik_Ionization_Penalty_Charging>  (1) 
0

>  <r_epik_Ionization_Penalty_Neutral>  (1) 
0

>  <r_epik_State_Penalty>  (1) 
-0

>  <r_glide_ring_energy>  (1) 
0

>  <r_i_docking_score>  (1) 
-5.371809703552227

>  <r_i_glide_ecoul>  (1) 
-0.63731922337313163

>  <r_i_glide_eff_state_penalty>  (1) 
-0

>  <r_i_glide_einternal>  (1) 
0

>  <r_i_glide_emodel>  (1) 
-26.222957433405664

>  <r_i_glide_emodel_strain>  (1) 
0

>  <r_i_glide_energy>  (1) 
-19.539278843618138

>  <r_i_glide_erotb>  (1) 
0

>  <r_i_glide_esite>  (1) 
0

>  <r_i_glide_evdw>  (1) 
-18.901959620245005

>  <r_i_glide_gscore>  (1) 
-5.371809703552227

>  <r_i_glide_gscore_strain>  (1) 
0

>  <r_i_glide_hbond>  (1) 
0

>  <r_i_glide_ligand_efficiency>  (1) 
-0.53718097035522272

>  <r_i_glide_ligand_efficiency_ln>  (1) 
-1.6265469480098302

>  <r_i_glide_ligand_efficiency_sa>  (1) 
-1.1573213173582808

>  <r_i_glide_lipo>  (1) 
-1.5832631574160279

>  <r_i_glide_metal>  (1) 
-0

>  <r_i_glide_rewards>  (1) 
-2.74785068161798

>  <r_lp_Energy>  (1) 
15.262369

>  <r_lp_tautomer_probability>  (1) 
1

>  <s_epik_cmdline>  (1) 
J2VwaWtfcHl0aG9uJywgJy1waHQnLCAnMS4wJywgJy1waCcsICc3LjQnLCAnLXRuJywgJzgnLCAnLW1hJywgJzUwMCcsICctaW1hZScsICc8aW5maWxlLm1hZT4nLCAnLW9tYWUnLCAnPG91dGZpbGUubWFlPic=

>  <s_epik_input>  (1) 
TzFbQ0gyXVtDSF09W0NIXWMoYzEyKVtjSF1bY0hdW2NIXVtjSF0y

>  <s_glide_docking_method>  (1) 
confgen

>  <s_i_glide_gridfile>  (1) 
gpcr_drd2_6luq_protein_autoprepared_prepared

>  <s_lp_Force_Field>  (1) 
S-OPLS

>  <s_lp_Variant>  (1) 
Pocket2Mol_58-1

>  <s_m_source_file>  (1) 
generated_generic_title2_ligand_Pocket2Mol_2026-06-23_prepared.sdf

>  <GenAI_Model>  (1) 
Pocket2Mol

>  <Protein>  (1) 
generic_title2

$$$$
Pocket2Mol_65
     RDKit          3D

  0  0  0  0  0  0  0  0  0  0999 V3000
M  V30 BEGIN CTAB
M  V30 COUNTS 18 19 0 0 1
M  V30 BEGIN ATOM
M  V30 1 C 9.029299 5.346150 -10.102151 0
M  V30 2 O 8.909609 5.614122 -8.711798 0
M  V30 3 C 9.734065 6.581613 -8.176881 0
M  V30 4 C 9.743474 6.790227 -6.785025 0
M  V30 5 C 9.375410 6.616715 -10.888203 0
M  V30 6 C 10.567901 7.373357 -9.014063 0
M  V30 7 O 10.567739 7.190227 -10.376949 0
M  V30 8 C 11.401609 8.355737 -8.443133 0
M  V30 9 C 11.402504 8.557603 -7.049033 0
M  V30 10 F 12.199245 9.506363 -6.502574 0
M  V30 11 C 10.575410 7.775718 -6.222557 0
M  V30 12 H 8.082331 4.938033 -10.455740 0
M  V30 13 H 9.775410 4.569668 -10.256717 0
M  V30 14 H 9.108134 6.193247 -6.147291 0
M  V30 15 H 8.575410 7.351530 -10.824529 0
M  V30 16 H 9.513482 6.384661 -11.944253 0
M  V30 17 H 12.036665 8.958385 -9.075820 0
M  V30 18 H 10.577944 7.932595 -5.155118 0
M  V30 END ATOM
M  V30 BEGIN BOND
M  V30 1 1 2 1
M  V30 2 1 3 2
M  V30 3 1 4 3
M  V30 4 1 5 1
M  V30 5 2 6 3
M  V30 6 1 7 5
M  V30 7 1 7 6
M  V30 8 1 8 6
M  V30 9 2 9 8
M  V30 10 1 10 9
M  V30 11 2 11 4
M  V30 12 1 11 9
M  V30 13 1 12 1
M  V30 14 1 13 1
M  V30 15 1 14 4
M  V30 16 1 15 5
M  V30 17 1 16 5
M  V30 18 1 17 8
M  V30 19 1 18 11
M  V30 END BOND
M  V30 END CTAB
M  END
>  <i_epik_Tot_Q>  (1) 
0

>  <i_epik_Tot_abs_Q>  (1) 
0

>  <i_i_glide_confnum>  (1) 
1

>  <i_i_glide_lignum>  (1) 
72

>  <i_i_glide_posenum>  (1) 
124

>  <i_i_glide_rotatable_bonds>  (1) 
0

>  <i_lp_mmshare_version>  (1) 
72125

>  <i_m_source_file_index>  (1) 
66

>  <i_f3d_flags>  (1) 
0

>  <num_sample>  (1) 
100

>  <b_lp_Chiralities_Consistent>  (1) 
1

>  <r_epik_Charging_Adjusted_Penalty>  (1) 
0

>  <r_epik_Ionization_Penalty>  (1) 
0

>  <r_epik_Ionization_Penalty_Charging>  (1) 
0

>  <r_epik_Ionization_Penalty_Neutral>  (1) 
0

>  <r_epik_State_Penalty>  (1) 
-0

>  <r_glide_ring_energy>  (1) 
0

>  <r_i_docking_score>  (1) 
-5.3647107756551922

>  <r_i_glide_ecoul>  (1) 
-1.1301140602524811

>  <r_i_glide_eff_state_penalty>  (1) 
-0

>  <r_i_glide_einternal>  (1) 
0

>  <r_i_glide_emodel>  (1) 
-28.779853820430944

>  <r_i_glide_emodel_strain>  (1) 
0

>  <r_i_glide_energy>  (1) 
-21.176603746274797

>  <r_i_glide_erotb>  (1) 
0

>  <r_i_glide_esite>  (1) 
0

>  <r_i_glide_evdw>  (1) 
-20.046489686022316

>  <r_i_glide_gscore>  (1) 
-5.3647107756551922

>  <r_i_glide_gscore_strain>  (1) 
0

>  <r_i_glide_hbond>  (1) 
0

>  <r_i_glide_ligand_efficiency>  (1) 
-0.48770097960501746

>  <r_i_glide_ligand_efficiency_ln>  (1) 
-1.5788334674708886

>  <r_i_glide_ligand_efficiency_sa>  (1) 
-1.0846372687927108

>  <r_i_glide_lipo>  (1) 
-0.68453584898287034

>  <r_i_glide_metal>  (1) 
-0

>  <r_i_glide_rewards>  (1) 
-3.5083333333333337

>  <r_lp_Energy>  (1) 
15.305638999999999

>  <r_lp_tautomer_probability>  (1) 
1

>  <s_epik_cmdline>  (1) 
J2VwaWtfcHl0aG9uJywgJy1waHQnLCAnMS4wJywgJy1waCcsICc3LjQnLCAnLXRuJywgJzgnLCAnLW1hJywgJzUwMCcsICctaW1hZScsICc8aW5maWxlLm1hZT4nLCAnLW9tYWUnLCAnPG91dGZpbGUubWFlPic=

>  <s_epik_input>  (1) 
TzFbQ0gyXVtDSDJdT2MoYzEyKVtjSF1jKEYpW2NIXVtjSF0y

>  <s_glide_docking_method>  (1) 
confgen

>  <s_i_glide_gridfile>  (1) 
gpcr_drd2_6luq_protein_autoprepared_prepared

>  <s_lp_Force_Field>  (1) 
S-OPLS

>  <s_lp_Variant>  (1) 
Pocket2Mol_65-1

>  <s_m_source_file>  (1) 
generated_generic_title2_ligand_Pocket2Mol_2026-06-23_prepared.sdf

>  <GenAI_Model>  (1) 
Pocket2Mol

>  <Protein>  (1) 
generic_title2

$$$$
Pocket2Mol_51
     RDKit          3D

  0  0  0  0  0  0  0  0  0  0999 V3000
M  V30 BEGIN CTAB
M  V30 COUNTS 15 16 0 0 1
M  V30 BEGIN ATOM
M  V30 1 C 9.375356 6.057157 -10.034701 0
M  V30 2 O 10.296054 7.186917 -9.979654 0
M  V30 3 C 10.492734 7.444451 -8.655552 0
M  V30 4 C 9.899553 6.599435 -7.749568 0
M  V30 5 C 10.049287 6.790068 -6.367355 0
M  V30 6 C 11.271651 8.530597 -8.215511 0
M  V30 7 C 11.434965 8.748254 -6.827765 0
M  V30 8 S 8.975631 5.305912 -8.385512 0
M  V30 9 F 12.175410 9.791577 -6.385073 0
M  V30 10 C 10.823517 7.873152 -5.901683 0
M  V30 11 H 8.444819 6.390095 -10.492940 0
M  V30 12 H 9.775407 5.284025 -10.689110 0
M  V30 13 H 9.576698 6.116191 -5.668090 0
M  V30 14 H 11.736718 9.193162 -8.930505 0
M  V30 15 H 10.948383 8.033906 -4.841341 0
M  V30 END ATOM
M  V30 BEGIN BOND
M  V30 1 1 2 1
M  V30 2 1 3 2
M  V30 3 2 4 3
M  V30 4 1 5 4
M  V30 5 1 6 3
M  V30 6 2 7 6
M  V30 7 1 8 1
M  V30 8 1 8 4
M  V30 9 1 9 7
M  V30 10 2 10 5
M  V30 11 1 10 7
M  V30 12 1 11 1
M  V30 13 1 12 1
M  V30 14 1 13 5
M  V30 15 1 14 6
M  V30 16 1 15 10
M  V30 END BOND
M  V30 END CTAB
M  END
>  <i_epik_Tot_Q>  (1) 
0

>  <i_epik_Tot_abs_Q>  (1) 
0

>  <i_i_glide_confnum>  (1) 
1

>  <i_i_glide_lignum>  (1) 
58

>  <i_i_glide_posenum>  (1) 
139

>  <i_i_glide_rotatable_bonds>  (1) 
0

>  <i_lp_mmshare_version>  (1) 
72125

>  <i_m_source_file_index>  (1) 
52

>  <i_f3d_flags>  (1) 
0

>  <num_sample>  (1) 
100

>  <b_lp_Chiralities_Consistent>  (1) 
1

>  <r_epik_Charging_Adjusted_Penalty>  (1) 
0

>  <r_epik_Ionization_Penalty>  (1) 
0

>  <r_epik_Ionization_Penalty_Charging>  (1) 
0

>  <r_epik_Ionization_Penalty_Neutral>  (1) 
0

>  <r_epik_State_Penalty>  (1) 
-0

>  <r_glide_ring_energy>  (1) 
0

>  <r_i_docking_score>  (1) 
-5.3604324304233746

>  <r_i_glide_ecoul>  (1) 
-0.86686833485705383

>  <r_i_glide_eff_state_penalty>  (1) 
-0

>  <r_i_glide_einternal>  (1) 
0

>  <r_i_glide_emodel>  (1) 
-28.11368050816526

>  <r_i_glide_emodel_strain>  (1) 
0

>  <r_i_glide_energy>  (1) 
-21.160439140767259

>  <r_i_glide_erotb>  (1) 
0

>  <r_i_glide_esite>  (1) 
0

>  <r_i_glide_evdw>  (1) 
-20.293570805910207

>  <r_i_glide_gscore>  (1) 
-5.3604324304233746

>  <r_i_glide_gscore_strain>  (1) 
0

>  <r_i_glide_hbond>  (1) 
0

>  <r_i_glide_ligand_efficiency>  (1) 
-0.53604324304233741

>  <r_i_glide_ligand_efficiency_ln>  (1) 
-1.6231019881349167

>  <r_i_glide_ligand_efficiency_sa>  (1) 
-1.1548701581676042

>  <r_i_glide_lipo>  (1) 
-0.87405697323263964

>  <r_i_glide_metal>  (1) 
-0

>  <r_i_glide_rewards>  (1) 
-3.3416666666666668

>  <r_lp_Energy>  (1) 
4.072584

>  <r_lp_tautomer_probability>  (1) 
1

>  <s_epik_Chemistry_Notes>  (1) 
This compound contains an acetal/aminal-like group ( X-CH(R)-Y where X, Y are N, S, or O) that may be acid/base labile, releasing an aldehyde.

>  <s_epik_cmdline>  (1) 
J2VwaWtfcHl0aG9uJywgJy1waHQnLCAnMS4wJywgJy1waCcsICc3LjQnLCAnLXRuJywgJzgnLCAnLW1hJywgJzUwMCcsICctaW1hZScsICc8aW5maWxlLm1hZT4nLCAnLW9tYWUnLCAnPG91dGZpbGUubWFlPic=

>  <s_epik_input>  (1) 
TzFbQ0gyXVNjKGMxMilbY0hdW2NIXWMoRilbY0hdMg==

>  <s_glide_docking_method>  (1) 
confgen

>  <s_i_glide_gridfile>  (1) 
gpcr_drd2_6luq_protein_autoprepared_prepared

>  <s_lp_Force_Field>  (1) 
S-OPLS

>  <s_lp_Variant>  (1) 
Pocket2Mol_51-1

>  <s_m_source_file>  (1) 
generated_generic_title2_ligand_Pocket2Mol_2026-06-23_prepared.sdf

>  <GenAI_Model>  (1) 
Pocket2Mol

>  <Protein>  (1) 
generic_title2

$$$$
Pocket2Mol_62
     RDKit          3D

  0  0  0  0  0  0  0  0  0  0999 V3000
M  V30 BEGIN CTAB
M  V30 COUNTS 21 22 0 0 1
M  V30 BEGIN ATOM
M  V30 1 C 9.375175 6.100638 -9.928529 0
M  V30 2 O 10.356633 7.191660 -10.113232 0
M  V30 3 C 10.653308 7.516717 -8.835491 0
M  V30 4 C 10.026909 6.792328 -7.883499 0
M  V30 5 C 10.247366 7.026169 -6.514550 0
M  V30 6 C 11.146003 8.046083 -6.127968 0
M  V30 7 O 11.375366 8.280377 -4.785951 0
M  V30 8 C 9.115835 5.763010 -8.389160 0
M  V30 9 C 11.554305 8.538100 -8.497750 0
M  V30 10 C 11.805796 8.809904 -7.134292 0
M  V30 11 C 12.111673 9.430920 -4.393400 0
M  V30 12 H 9.731668 5.213013 -10.451840 0
M  V30 13 H 8.442461 6.390224 -10.412033 0
M  V30 14 H 9.736784 6.434354 -5.768370 0
M  V30 15 H 9.437907 4.760640 -8.109643 0
M  V30 16 H 8.088346 5.945666 -8.078490 0
M  V30 17 H 12.048986 9.108735 -9.270193 0
M  V30 18 H 12.498317 9.590035 -6.864543 0
M  V30 19 H 12.096565 9.512488 -3.306429 0
M  V30 20 H 13.155994 9.365191 -4.701116 0
M  V30 21 H 11.669475 10.343694 -4.795361 0
M  V30 END ATOM
M  V30 BEGIN BOND
M  V30 1 1 2 1
M  V30 2 1 3 2
M  V30 3 2 4 3
M  V30 4 1 5 4
M  V30 5 2 6 5
M  V30 6 1 7 6
M  V30 7 1 8 1
M  V30 8 1 8 4
M  V30 9 1 9 3
M  V30 10 1 10 6
M  V30 11 2 10 9
M  V30 12 1 11 7
M  V30 13 1 12 1
M  V30 14 1 13 1
M  V30 15 1 14 5
M  V30 16 1 15 8
M  V30 17 1 16 8
M  V30 18 1 17 9
M  V30 19 1 18 10
M  V30 20 1 19 11
M  V30 21 1 20 11
M  V30 22 1 21 11
M  V30 END BOND
M  V30 END CTAB
M  END
>  <i_epik_Tot_Q>  (1) 
0

>  <i_epik_Tot_abs_Q>  (1) 
0

>  <i_i_glide_confnum>  (1) 
1

>  <i_i_glide_lignum>  (1) 
69

>  <i_i_glide_posenum>  (1) 
392

>  <i_i_glide_rotatable_bonds>  (1) 
1

>  <i_lp_mmshare_version>  (1) 
72125

>  <i_m_source_file_index>  (1) 
63

>  <i_f3d_flags>  (1) 
0

>  <num_sample>  (1) 
100

>  <b_lp_Chiralities_Consistent>  (1) 
1

>  <r_epik_Charging_Adjusted_Penalty>  (1) 
0

>  <r_epik_Ionization_Penalty>  (1) 
0

>  <r_epik_Ionization_Penalty_Charging>  (1) 
0

>  <r_epik_Ionization_Penalty_Neutral>  (1) 
0

>  <r_epik_State_Penalty>  (1) 
-0

>  <r_glide_ring_energy>  (1) 
0

>  <r_i_docking_score>  (1) 
-5.3463865643124215

>  <r_i_glide_ecoul>  (1) 
-1.1055682818999146

>  <r_i_glide_eff_state_penalty>  (1) 
-0

>  <r_i_glide_einternal>  (1) 
0.079882237053698679

>  <r_i_glide_emodel>  (1) 
-30.088612540248558

>  <r_i_glide_emodel_strain>  (1) 
0

>  <r_i_glide_energy>  (1) 
-22.336336067747606

>  <r_i_glide_erotb>  (1) 
0

>  <r_i_glide_esite>  (1) 
0

>  <r_i_glide_evdw>  (1) 
-21.230767785847693

>  <r_i_glide_gscore>  (1) 
-5.3463865643124215

>  <r_i_glide_gscore_strain>  (1) 
0

>  <r_i_glide_hbond>  (1) 
0

>  <r_i_glide_ligand_efficiency>  (1) 
-0.48603514221022015

>  <r_i_glide_ligand_efficiency_ln>  (1) 
-1.5734406551939877

>  <r_i_glide_ligand_efficiency_sa>  (1) 
-1.0809324795925557

>  <r_i_glide_lipo>  (1) 
-1.3081852213662686

>  <r_i_glide_metal>  (1) 
-0

>  <r_i_glide_rewards>  (1) 
-2.8108277113687814

>  <r_lp_Energy>  (1) 
15.977421

>  <r_lp_tautomer_probability>  (1) 
1

>  <s_epik_cmdline>  (1) 
J2VwaWtfcHl0aG9uJywgJy1waHQnLCAnMS4wJywgJy1waCcsICc3LjQnLCAnLXRuJywgJzgnLCAnLW1hJywgJzUwMCcsICctaW1hZScsICc8aW5maWxlLm1hZT4nLCAnLW9tYWUnLCAnPG91dGZpbGUubWFlPic=

>  <s_epik_input>  (1) 
TzFbQ0gyXVtDSDJdYyhjMTIpW2NIXWMoT1tDSDNdKVtjSF1bY0hdMg==

>  <s_glide_docking_method>  (1) 
confgen

>  <s_i_glide_gridfile>  (1) 
gpcr_drd2_6luq_protein_autoprepared_prepared

>  <s_lp_Force_Field>  (1) 
S-OPLS

>  <s_lp_Variant>  (1) 
Pocket2Mol_62-1

>  <s_m_source_file>  (1) 
generated_generic_title2_ligand_Pocket2Mol_2026-06-23_prepared.sdf

>  <GenAI_Model>  (1) 
Pocket2Mol

>  <Protein>  (1) 
generic_title2

$$$$
Pocket2Mol_82
     RDKit          3D

  0  0  0  0  0  0  0  0  0  0999 V3000
M  V30 BEGIN CTAB
M  V30 COUNTS 22 23 0 0 1
M  V30 BEGIN ATOM
M  V30 1 C 11.873355 9.175668 -5.379059 0
M  V30 2 O 12.175409 9.566551 -6.772186 0
M  V30 3 C 11.515242 8.618057 -7.474001 0
M  V30 4 C 10.938036 7.644649 -6.740748 0
M  V30 5 C 10.205665 6.607406 -7.338463 0
M  V30 6 C 11.130901 7.762455 -5.297949 0
M  V30 7 C 10.074001 6.585590 -8.751902 0
M  V30 8 O 9.361262 5.590334 -9.386553 0
M  V30 9 C 10.690332 7.602109 -9.521274 0
M  V30 10 O 10.575410 7.590227 -10.878711 0
M  V30 11 C 11.418089 8.628850 -8.876542 0
M  V30 12 C 8.370008 4.904131 -8.636544 0
M  V30 13 H 11.226179 9.946606 -4.958170 0
M  V30 14 H 12.786040 9.181170 -4.782380 0
M  V30 15 H 9.751404 5.842974 -6.727842 0
M  V30 16 H 10.175490 7.779288 -4.785028 0
M  V30 17 H 11.766586 6.961932 -4.917974 0
M  V30 18 H 9.953015 6.928997 -11.147547 0
M  V30 19 H 11.887520 9.413107 -9.452541 0
M  V30 20 H 7.690002 4.390573 -9.315855 0
M  V30 21 H 8.823141 4.157992 -7.985024 0
M  V30 22 H 7.775408 5.590223 -8.033790 0
M  V30 END ATOM
M  V30 BEGIN BOND
M  V30 1 1 2 1
M  V30 2 1 3 2
M  V30 3 1 4 3
M  V30 4 2 5 4
M  V30 5 1 6 1
M  V30 6 1 6 4
M  V30 7 1 7 5
M  V30 8 1 8 7
M  V30 9 2 9 7
M  V30 10 1 10 9
M  V30 11 2 11 3
M  V30 12 1 11 9
M  V30 13 1 12 8
M  V30 14 1 13 1
M  V30 15 1 14 1
M  V30 16 1 15 5
M  V30 17 1 16 6
M  V30 18 1 17 6
M  V30 19 1 18 10
M  V30 20 1 19 11
M  V30 21 1 20 12
M  V30 22 1 21 12
M  V30 23 1 22 12
M  V30 END BOND
M  V30 END CTAB
M  END
>  <i_epik_Tot_Q>  (1) 
0

>  <i_epik_Tot_abs_Q>  (1) 
0

>  <i_i_glide_confnum>  (1) 
1

>  <i_i_glide_lignum>  (1) 
89

>  <i_i_glide_posenum>  (1) 
204

>  <i_i_glide_rotatable_bonds>  (1) 
2

>  <i_lp_mmshare_version>  (1) 
72125

>  <i_m_source_file_index>  (1) 
83

>  <i_f3d_flags>  (1) 
0

>  <num_sample>  (1) 
100

>  <b_lp_Chiralities_Consistent>  (1) 
1

>  <r_epik_Charging_Adjusted_Penalty>  (1) 
0

>  <r_epik_Ionization_Penalty>  (1) 
0.0019697177408658601

>  <r_epik_Ionization_Penalty_Charging>  (1) 
0

>  <r_epik_Ionization_Penalty_Neutral>  (1) 
0.0019697177408658601

>  <r_epik_State_Penalty>  (1) 
-0

>  <r_glide_ring_energy>  (1) 
0

>  <r_i_docking_score>  (1) 
-5.3456665302174668

>  <r_i_glide_ecoul>  (1) 
-1.0037880224101183

>  <r_i_glide_eff_state_penalty>  (1) 
-0

>  <r_i_glide_einternal>  (1) 
0.10294066390558987

>  <r_i_glide_emodel>  (1) 
-29.821199496503198

>  <r_i_glide_emodel_strain>  (1) 
0.10102333900980653

>  <r_i_glide_energy>  (1) 
-22.471548596043242

>  <r_i_glide_erotb>  (1) 
0

>  <r_i_glide_esite>  (1) 
0

>  <r_i_glide_evdw>  (1) 
-21.467760573633122

>  <r_i_glide_gscore>  (1) 
-5.3456665302174668

>  <r_i_glide_gscore_strain>  (1) 
0

>  <r_i_glide_hbond>  (1) 
0

>  <r_i_glide_ligand_efficiency>  (1) 
-0.44547221085145555

>  <r_i_glide_ligand_efficiency_ln>  (1) 
-1.5339482710512959

>  <r_i_glide_ligand_efficiency_sa>  (1) 
-1.0198767688467643

>  <r_i_glide_lipo>  (1) 
-1.4709009251115346

>  <r_i_glide_metal>  (1) 
-0

>  <r_i_glide_rewards>  (1) 
-2.6508093730627582

>  <r_lp_Energy>  (1) 
16.449425999999999

>  <r_lp_tautomer_probability>  (1) 
1

>  <s_epik_cmdline>  (1) 
J2VwaWtfcHl0aG9uJywgJy1waHQnLCAnMS4wJywgJy1waCcsICc3LjQnLCAnLXRuJywgJzgnLCAnLW1hJywgJzUwMCcsICctaW1hZScsICc8aW5maWxlLm1hZT4nLCAnLW9tYWUnLCAnPG91dGZpbGUubWFlPic=

>  <s_epik_input>  (1) 
TzFbQ0gyXVtDSDJdYyhjMTIpW2NIXWMoT1tDSDNdKWMoW09IXSlbY0hdMg==

>  <s_glide_docking_method>  (1) 
confgen

>  <s_i_glide_gridfile>  (1) 
gpcr_drd2_6luq_protein_autoprepared_prepared

>  <s_lp_Force_Field>  (1) 
S-OPLS

>  <s_lp_Variant>  (1) 
Pocket2Mol_82-1

>  <s_m_source_file>  (1) 
generated_generic_title2_ligand_Pocket2Mol_2026-06-23_prepared.sdf

>  <GenAI_Model>  (1) 
Pocket2Mol

>  <Protein>  (1) 
generic_title2

$$$$
Pocket2Mol_52
     RDKit          3D

  0  0  0  0  0  0  0  0  0  0999 V3000
M  V30 BEGIN CTAB
M  V30 COUNTS 15 16 0 0 1
M  V30 BEGIN ATOM
M  V30 1 C 14.958229 9.551376 -19.179133 0
M  V30 2 O 16.390522 9.590228 -19.138290 0
M  V30 3 C 16.747735 8.400559 -18.523580 0
M  V30 4 C 15.619264 7.731816 -18.240147 0
M  V30 5 C 15.713544 6.473869 -17.605567 0
M  V30 6 C 18.002613 7.920444 -18.223357 0
M  V30 7 C 14.462687 8.382837 -18.616444 0
M  V30 8 N 16.955654 5.934339 -17.276753 0 CHG=1
M  V30 9 O 17.042960 4.790147 -16.700699 0 CHG=-1
M  V30 10 C 18.103186 6.664036 -17.588535 0
M  V30 11 H 14.492932 10.415009 -19.631347 0
M  V30 12 H 14.866795 5.859283 -17.335468 0
M  V30 13 H 18.886603 8.490273 -18.468837 0
M  V30 14 H 13.453345 8.022162 -18.478737 0
M  V30 15 H 19.032124 6.190481 -17.308876 0
M  V30 END ATOM
M  V30 BEGIN BOND
M  V30 1 1 2 1
M  V30 2 1 3 2
M  V30 3 1 4 3
M  V30 4 2 5 4
M  V30 5 2 6 3
M  V30 6 2 7 1
M  V30 7 1 7 4
M  V30 8 1 8 5
M  V30 9 1 9 8
M  V30 10 1 10 6
M  V30 11 2 10 8
M  V30 12 1 11 1
M  V30 13 1 12 5
M  V30 14 1 13 6
M  V30 15 1 14 7
M  V30 16 1 15 10
M  V30 END BOND
M  V30 END CTAB
M  END
>  <i_epik_Tot_Q>  (1) 
0

>  <i_epik_Tot_abs_Q>  (1) 
2

>  <i_i_glide_confnum>  (1) 
1

>  <i_i_glide_lignum>  (1) 
59

>  <i_i_glide_posenum>  (1) 
140

>  <i_i_glide_rotatable_bonds>  (1) 
0

>  <i_lp_mmshare_version>  (1) 
72125

>  <i_m_source_file_index>  (1) 
53

>  <i_f3d_flags>  (1) 
0

>  <num_sample>  (1) 
100

>  <b_lp_Chiralities_Consistent>  (1) 
1

>  <r_epik_Charging_Adjusted_Penalty>  (1) 
1.0992902245007022e-07

>  <r_epik_Ionization_Penalty>  (1) 
1.0992902245007022e-07

>  <r_epik_Ionization_Penalty_Charging>  (1) 
1.0992902245007022e-07

>  <r_epik_Ionization_Penalty_Neutral>  (1) 
0

>  <r_epik_State_Penalty>  (1) 
-0

>  <r_glide_ring_energy>  (1) 
0

>  <r_i_docking_score>  (1) 
-5.3371343741925568

>  <r_i_glide_ecoul>  (1) 
-11.311655870789979

>  <r_i_glide_eff_state_penalty>  (1) 
-0

>  <r_i_glide_einternal>  (1) 
0

>  <r_i_glide_emodel>  (1) 
-28.98479510497922

>  <r_i_glide_emodel_strain>  (1) 
0

>  <r_i_glide_energy>  (1) 
-21.474517215336903

>  <r_i_glide_erotb>  (1) 
0

>  <r_i_glide_esite>  (1) 
0

>  <r_i_glide_evdw>  (1) 
-10.162861344546922

>  <r_i_glide_gscore>  (1) 
-5.3371343741925568

>  <r_i_glide_gscore_strain>  (1) 
0

>  <r_i_glide_hbond>  (1) 
-0.16

>  <r_i_glide_ligand_efficiency>  (1) 
-0.5337134374192557

>  <r_i_glide_ligand_efficiency_ln>  (1) 
-1.6160474973118819

>  <r_i_glide_ligand_efficiency_sa>  (1) 
-1.1498507441122054

>  <r_i_glide_lipo>  (1) 
-0.60364360042618936

>  <r_i_glide_metal>  (1) 
-0

>  <r_i_glide_rewards>  (1) 
-2.368599325920524

>  <r_lp_Energy>  (1) 
10.75684

>  <r_lp_tautomer_probability>  (1) 
1

>  <s_epik_cmdline>  (1) 
J2VwaWtfcHl0aG9uJywgJy1waHQnLCAnMS4wJywgJy1waCcsICc3LjQnLCAnLXRuJywgJzgnLCAnLW1hJywgJzUwMCcsICctaW1hZScsICc8aW5maWxlLm1hZT4nLCAnLW9tYWUnLCAnPG91dGZpbGUubWFlPic=

>  <s_epik_input>  (1) 
bzFbY0hdW2NIXWMoYzEyKVtjSF1bbitdKFtPLV0pW2NIXVtjSF0y

>  <s_glide_docking_method>  (1) 
confgen

>  <s_i_glide_gridfile>  (1) 
gpcr_drd2_6luq_protein_autoprepared_prepared

>  <s_lp_Force_Field>  (1) 
S-OPLS

>  <s_lp_Variant>  (1) 
Pocket2Mol_52-1

>  <s_m_source_file>  (1) 
generated_generic_title2_ligand_Pocket2Mol_2026-06-23_prepared.sdf

>  <GenAI_Model>  (1) 
Pocket2Mol

>  <Protein>  (1) 
generic_title2

$$$$
Pocket2Mol_39
     RDKit          3D

  0  0  0  0  0  0  0  0  0  0999 V3000
M  V30 BEGIN CTAB
M  V30 COUNTS 14 15 0 0 1
M  V30 BEGIN ATOM
M  V30 1 C 11.218570 9.442162 -5.471226 0
M  V30 2 O 10.163007 8.712696 -5.985023 0
M  V30 3 C 10.521723 8.317364 -7.247424 0
M  V30 4 C 11.804711 8.790179 -7.539445 0
M  V30 5 C 12.334258 8.461275 -8.830757 0
M  V30 6 C 9.775410 7.571051 -8.137662 0
M  V30 7 C 12.251308 9.517652 -6.385013 0
M  V30 8 N 11.584835 7.721964 -9.710721 0
M  V30 9 C 10.345139 7.294029 -9.372331 0
M  V30 10 H 11.084484 9.827992 -4.470806 0
M  V30 11 H 13.315994 8.783234 -9.146444 0
M  V30 12 H 8.781470 7.221404 -7.886668 0
M  V30 13 H 13.201946 10.016124 -6.265527 0
M  V30 14 H 9.808460 6.718474 -10.112716 0
M  V30 END ATOM
M  V30 BEGIN BOND
M  V30 1 1 2 1
M  V30 2 1 3 2
M  V30 3 2 4 3
M  V30 4 1 5 4
M  V30 5 1 6 3
M  V30 6 2 7 1
M  V30 7 1 7 4
M  V30 8 2 8 5
M  V30 9 2 9 6
M  V30 10 1 9 8
M  V30 11 1 10 1
M  V30 12 1 11 5
M  V30 13 1 12 6
M  V30 14 1 13 7
M  V30 15 1 14 9
M  V30 END BOND
M  V30 END CTAB
M  END
>  <i_epik_Tot_Q>  (1) 
0

>  <i_epik_Tot_abs_Q>  (1) 
0

>  <i_i_glide_confnum>  (1) 
1

>  <i_i_glide_lignum>  (1) 
44

>  <i_i_glide_posenum>  (1) 
281

>  <i_i_glide_rotatable_bonds>  (1) 
0

>  <i_lp_mmshare_version>  (1) 
72125

>  <i_m_source_file_index>  (1) 
40

>  <i_f3d_flags>  (1) 
0

>  <num_sample>  (1) 
100

>  <b_lp_Chiralities_Consistent>  (1) 
1

>  <r_epik_Charging_Adjusted_Penalty>  (1) 
0

>  <r_epik_Ionization_Penalty>  (1) 
0.00075511756769225586

>  <r_epik_Ionization_Penalty_Charging>  (1) 
0

>  <r_epik_Ionization_Penalty_Neutral>  (1) 
0.00075511756769225586

>  <r_epik_State_Penalty>  (1) 
-0

>  <r_glide_ring_energy>  (1) 
0

>  <r_i_docking_score>  (1) 
-5.3323194762206247

>  <r_i_glide_ecoul>  (1) 
-1.807449711332713

>  <r_i_glide_eff_state_penalty>  (1) 
-0

>  <r_i_glide_einternal>  (1) 
0

>  <r_i_glide_emodel>  (1) 
-26.656396306380643

>  <r_i_glide_emodel_strain>  (1) 
0

>  <r_i_glide_energy>  (1) 
-19.623129818579812

>  <r_i_glide_erotb>  (1) 
0

>  <r_i_glide_esite>  (1) 
0

>  <r_i_glide_evdw>  (1) 
-17.8156801072471

>  <r_i_glide_gscore>  (1) 
-5.3323194762206247

>  <r_i_glide_gscore_strain>  (1) 
0

>  <r_i_glide_hbond>  (1) 
0

>  <r_i_glide_ligand_efficiency>  (1) 
-0.59247994180229169

>  <r_i_glide_ligand_efficiency_ln>  (1) 
-1.6677963487517251

>  <r_i_glide_ligand_efficiency_sa>  (1) 
-1.2324079424256806

>  <r_i_glide_lipo>  (1) 
-1.345418014158362

>  <r_i_glide_metal>  (1) 
-0

>  <r_i_glide_rewards>  (1) 
-2.8250000000000002

>  <r_lp_Energy>  (1) 
12.667646999999999

>  <r_lp_tautomer_probability>  (1) 
1

>  <s_epik_cmdline>  (1) 
J2VwaWtfcHl0aG9uJywgJy1waHQnLCAnMS4wJywgJy1waCcsICc3LjQnLCAnLXRuJywgJzgnLCAnLW1hJywgJzUwMCcsICctaW1hZScsICc8aW5maWxlLm1hZT4nLCAnLW9tYWUnLCAnPG91dGZpbGUubWFlPic=

>  <s_epik_input>  (1) 
bzFbY0hdW2NIXWMoYzEyKVtjSF1uW2NIXVtjSF0y

>  <s_glide_docking_method>  (1) 
confgen

>  <s_i_glide_gridfile>  (1) 
gpcr_drd2_6luq_protein_autoprepared_prepared

>  <s_lp_Force_Field>  (1) 
S-OPLS

>  <s_lp_Variant>  (1) 
Pocket2Mol_39-1

>  <s_m_source_file>  (1) 
generated_generic_title2_ligand_Pocket2Mol_2026-06-23_prepared.sdf

>  <GenAI_Model>  (1) 
Pocket2Mol

>  <Protein>  (1) 
generic_title2

$$$$
Pocket2Mol_93
     RDKit          3D

  0  0  0  0  0  0  0  0  0  0999 V3000
M  V30 BEGIN CTAB
M  V30 COUNTS 23 25 0 0 1
M  V30 BEGIN ATOM
M  V30 1 C 11.375410 8.745435 -5.757930 0
M  V30 2 O 11.707522 9.190227 -7.128351 0
M  V30 3 C 11.069600 8.260144 -7.874033 0
M  V30 4 C 10.518511 7.237022 -7.186628 0
M  V30 5 C 9.815761 6.207155 -7.833753 0
M  V30 6 C 9.685512 6.244431 -9.238352 0
M  V30 7 O 8.996059 5.246040 -9.889158 0
M  V30 8 C 10.709922 7.294032 -5.737498 0
M  V30 9 C 10.275138 7.321183 -9.970783 0
M  V30 10 O 10.171162 7.377742 -11.344103 0
M  V30 11 C 10.970791 8.336563 -9.274216 0
M  V30 12 C 8.567421 5.578219 -11.201341 0
M  V30 13 C 9.748135 6.173625 -11.973610 0
M  V30 14 H 12.252893 8.790227 -5.113538 0
M  V30 15 H 10.664094 9.467952 -5.354963 0
M  V30 16 H 9.377848 5.400608 -7.265315 0
M  V30 17 H 9.775410 7.246502 -5.185026 0
M  V30 18 H 11.396752 6.514271 -5.406849 0
M  V30 19 H 11.419129 9.159826 -9.810162 0
M  V30 20 H 8.206086 4.674971 -11.693026 0
M  V30 21 H 7.734391 6.281628 -11.161053 0
M  V30 22 H 10.575410 5.465377 -12.019661 0
M  V30 23 H 9.454676 6.390227 -13.000039 0
M  V30 END ATOM
M  V30 BEGIN BOND
M  V30 1 1 2 1
M  V30 2 1 3 2
M  V30 3 1 4 3
M  V30 4 2 5 4
M  V30 5 1 6 5
M  V30 6 1 7 6
M  V30 7 1 8 1
M  V30 8 1 8 4
M  V30 9 2 9 6
M  V30 10 1 10 9
M  V30 11 2 11 3
M  V30 12 1 11 9
M  V30 13 1 12 7
M  V30 14 1 13 10
M  V30 15 1 13 12
M  V30 16 1 14 1
M  V30 17 1 15 1
M  V30 18 1 16 5
M  V30 19 1 17 8
M  V30 20 1 18 8
M  V30 21 1 19 11
M  V30 22 1 20 12
M  V30 23 1 21 12
M  V30 24 1 22 13
M  V30 25 1 23 13
M  V30 END BOND
M  V30 END CTAB
M  END
>  <i_epik_Tot_Q>  (1) 
0

>  <i_epik_Tot_abs_Q>  (1) 
0

>  <i_i_glide_confnum>  (1) 
2

>  <i_i_glide_lignum>  (1) 
102

>  <i_i_glide_posenum>  (1) 
53

>  <i_i_glide_rotatable_bonds>  (1) 
0

>  <i_lp_mmshare_version>  (1) 
72125

>  <i_m_source_file_index>  (1) 
94

>  <i_f3d_flags>  (1) 
0

>  <num_sample>  (1) 
100

>  <b_lp_Chiralities_Consistent>  (1) 
1

>  <r_epik_Charging_Adjusted_Penalty>  (1) 
0

>  <r_epik_Ionization_Penalty>  (1) 
0

>  <r_epik_Ionization_Penalty_Charging>  (1) 
0

>  <r_epik_Ionization_Penalty_Neutral>  (1) 
0

>  <r_epik_State_Penalty>  (1) 
-0

>  <r_glide_ring_energy>  (1) 
0.0016243131038040329

>  <r_i_docking_score>  (1) 
-5.3199616849912301

>  <r_i_glide_ecoul>  (1) 
-0.45943499015262912

>  <r_i_glide_eff_state_penalty>  (1) 
-0

>  <r_i_glide_einternal>  (1) 
0

>  <r_i_glide_emodel>  (1) 
-33.501688334929518

>  <r_i_glide_emodel_strain>  (1) 
0.00066557088376839602

>  <r_i_glide_energy>  (1) 
-24.58396291877823

>  <r_i_glide_erotb>  (1) 
0

>  <r_i_glide_esite>  (1) 
0

>  <r_i_glide_evdw>  (1) 
-24.1245279286256

>  <r_i_glide_gscore>  (1) 
-5.3199616849912301

>  <r_i_glide_gscore_strain>  (1) 
0

>  <r_i_glide_hbond>  (1) 
0

>  <r_i_glide_ligand_efficiency>  (1) 
-0.40922782192240231

>  <r_i_glide_ligand_efficiency_ln>  (1) 
-1.4922965662489438

>  <r_i_glide_ligand_efficiency_sa>  (1) 
-0.9622315728665578

>  <r_i_glide_lipo>  (1) 
-0.96606996140266954

>  <r_i_glide_metal>  (1) 
-0

>  <r_i_glide_rewards>  (1) 
-3.0787500786343869

>  <r_lp_Energy>  (1) 
18.084001999999998

>  <r_lp_tautomer_probability>  (1) 
1

>  <s_epik_cmdline>  (1) 
J2VwaWtfcHl0aG9uJywgJy1waHQnLCAnMS4wJywgJy1waCcsICc3LjQnLCAnLXRuJywgJzgnLCAnLW1hJywgJzUwMCcsICctaW1hZScsICc8aW5maWxlLm1hZT4nLCAnLW9tYWUnLCAnPG91dGZpbGUubWFlPic=

>  <s_epik_input>  (1) 
TzFbQ0gyXVtDSDJdYyhjMTIpW2NIXWMzYyhbY0hdMilPW0NIMl1bQ0gyXU8z

>  <s_glide_docking_method>  (1) 
confgen

>  <s_i_glide_gridfile>  (1) 
gpcr_drd2_6luq_protein_autoprepared_prepared

>  <s_lp_Force_Field>  (1) 
S-OPLS

>  <s_lp_Variant>  (1) 
Pocket2Mol_93-1

>  <s_m_source_file>  (1) 
generated_generic_title2_ligand_Pocket2Mol_2026-06-23_prepared.sdf

>  <GenAI_Model>  (1) 
Pocket2Mol

>  <Protein>  (1) 
generic_title2

$$$$
Pocket2Mol_75
     RDKit          3D

  0  0  0  0  0  0  0  0  0  0999 V3000
M  V30 BEGIN CTAB
M  V30 COUNTS 17 18 0 0 1
M  V30 BEGIN ATOM
M  V30 1 C 12.111358 9.190230 -5.081253 0
M  V30 2 O 12.212834 9.634414 -6.385050 0
M  V30 3 C 11.525708 8.739759 -7.172983 0
M  V30 4 C 10.982991 7.731239 -6.364599 0
M  V30 5 C 10.229453 6.721215 -7.015793 0
M  V30 6 C 10.048232 6.744769 -8.429643 0
M  V30 7 C 11.375402 8.021487 -5.018447 0
M  V30 8 N 9.264325 5.679774 -9.094681 0 CHG=1
M  V30 9 C 10.626023 7.787805 -9.199393 0
M  V30 10 O 8.776586 4.805932 -8.385009 0 CHG=-1
M  V30 11 C 11.371555 8.790214 -8.560932 0
M  V30 12 O 9.157414 5.731295 -10.316146 0
M  V30 13 H 12.610468 9.791926 -4.335751 0
M  V30 14 H 9.791187 5.926521 -6.431609 0
M  V30 15 H 11.136510 7.439059 -4.141946 0
M  V30 16 H 10.492360 7.812333 -10.271269 0
M  V30 17 H 11.816432 9.590483 -9.132807 0
M  V30 END ATOM
M  V30 BEGIN BOND
M  V30 1 1 2 1
M  V30 2 1 3 2
M  V30 3 1 4 3
M  V30 4 2 5 4
M  V30 5 1 6 5
M  V30 6 2 7 1
M  V30 7 1 7 4
M  V30 8 1 8 6
M  V30 9 2 9 6
M  V30 10 1 10 8
M  V30 11 2 11 3
M  V30 12 1 11 9
M  V30 13 2 12 8
M  V30 14 1 13 1
M  V30 15 1 14 5
M  V30 16 1 15 7
M  V30 17 1 16 9
M  V30 18 1 17 11
M  V30 END BOND
M  V30 END CTAB
M  END
>  <i_epik_Tot_Q>  (1) 
0

>  <i_epik_Tot_abs_Q>  (1) 
2

>  <i_i_glide_confnum>  (1) 
1

>  <i_i_glide_lignum>  (1) 
82

>  <i_i_glide_posenum>  (1) 
87

>  <i_i_glide_rotatable_bonds>  (1) 
1

>  <i_lp_mmshare_version>  (1) 
72125

>  <i_m_source_file_index>  (1) 
76

>  <i_f3d_flags>  (1) 
0

>  <num_sample>  (1) 
100

>  <b_lp_Chiralities_Consistent>  (1) 
1

>  <r_epik_Charging_Adjusted_Penalty>  (1) 
0

>  <r_epik_Ionization_Penalty>  (1) 
0

>  <r_epik_Ionization_Penalty_Charging>  (1) 
0

>  <r_epik_Ionization_Penalty_Neutral>  (1) 
0

>  <r_epik_State_Penalty>  (1) 
-0

>  <r_glide_ring_energy>  (1) 
0

>  <r_i_docking_score>  (1) 
-5.3150632350352875

>  <r_i_glide_ecoul>  (1) 
-0.39584119256899675

>  <r_i_glide_eff_state_penalty>  (1) 
-0

>  <r_i_glide_einternal>  (1) 
0.02267440180839686

>  <r_i_glide_emodel>  (1) 
-31.775358442057641

>  <r_i_glide_emodel_strain>  (1) 
0

>  <r_i_glide_energy>  (1) 
-23.13580712619348

>  <r_i_glide_erotb>  (1) 
0

>  <r_i_glide_esite>  (1) 
-0.13282504295163375

>  <r_i_glide_evdw>  (1) 
-22.739965933624482

>  <r_i_glide_gscore>  (1) 
-5.3150632350352875

>  <r_i_glide_gscore_strain>  (1) 
0

>  <r_i_glide_hbond>  (1) 
0

>  <r_i_glide_ligand_efficiency>  (1) 
-0.44292193625294063

>  <r_i_glide_ligand_efficiency_ln>  (1) 
-1.5251666024852122

>  <r_i_glide_ligand_efficiency_sa>  (1) 
-1.0140380975360803

>  <r_i_glide_lipo>  (1) 
-1.3475875569854683

>  <r_i_glide_metal>  (1) 
-0

>  <r_i_glide_rewards>  (1) 
-2.6382761595316122

>  <r_lp_Energy>  (1) 
17.097996999999999

>  <r_lp_tautomer_probability>  (1) 
1

>  <s_epik_cmdline>  (1) 
J2VwaWtfcHl0aG9uJywgJy1waHQnLCAnMS4wJywgJy1waCcsICc3LjQnLCAnLXRuJywgJzgnLCAnLW1hJywgJzUwMCcsICctaW1hZScsICc8aW5maWxlLm1hZT4nLCAnLW9tYWUnLCAnPG91dGZpbGUubWFlPic=

>  <s_epik_input>  (1) 
bzFbY0hdW2NIXWMoYzEyKVtjSF1jKFtOK10oW08tXSk9TylbY0hdW2NIXTI=

>  <s_glide_docking_method>  (1) 
confgen

>  <s_i_glide_gridfile>  (1) 
gpcr_drd2_6luq_protein_autoprepared_prepared

>  <s_lp_Force_Field>  (1) 
S-OPLS

>  <s_lp_Variant>  (1) 
Pocket2Mol_75-1

>  <s_m_source_file>  (1) 
generated_generic_title2_ligand_Pocket2Mol_2026-06-23_prepared.sdf

>  <GenAI_Model>  (1) 
Pocket2Mol

>  <Protein>  (1) 
generic_title2

$$$$
Pocket2Mol_27
     RDKit          3D

  0  0  0  0  0  0  0  0  0  0999 V3000
M  V30 BEGIN CTAB
M  V30 COUNTS 15 15 0 0 1
M  V30 BEGIN ATOM
M  V30 1 C 12.296899 9.190227 -3.187177 0
M  V30 2 O 11.806513 9.222549 -4.552951 0
M  V30 3 C 11.375409 8.061214 -5.185026 0
M  V30 4 C 10.918299 8.283978 -6.609555 0
M  V30 5 C 12.253094 7.823345 -2.543607 0
M  V30 6 C 11.375411 6.870705 -4.550013 0
M  V30 7 C 11.819911 6.753573 -3.195925 0
M  V30 8 H 13.326392 9.548348 -3.184997 0
M  V30 9 H 11.712480 9.886077 -2.584812 0
M  V30 10 H 10.589322 7.352275 -7.071029 0
M  V30 11 H 10.084209 8.985847 -6.630883 0
M  V30 12 H 11.731160 8.696576 -7.206746 0
M  V30 13 H 12.591288 7.743129 -1.522050 0
M  V30 14 H 11.029591 5.990275 -5.072341 0
M  V30 15 H 11.803033 5.791573 -2.704076 0
M  V30 END ATOM
M  V30 BEGIN BOND
M  V30 1 1 2 1
M  V30 2 1 3 2
M  V30 3 1 4 3
M  V30 4 1 5 1
M  V30 5 2 6 3
M  V30 6 2 7 5
M  V30 7 1 7 6
M  V30 8 1 8 1
M  V30 9 1 9 1
M  V30 10 1 10 4
M  V30 11 1 11 4
M  V30 12 1 12 4
M  V30 13 1 13 5
M  V30 14 1 14 6
M  V30 15 1 15 7
M  V30 END BOND
M  V30 END CTAB
M  END
>  <i_epik_Tot_Q>  (1) 
0

>  <i_epik_Tot_abs_Q>  (1) 
0

>  <i_i_glide_confnum>  (1) 
1

>  <i_i_glide_lignum>  (1) 
31

>  <i_i_glide_posenum>  (1) 
281

>  <i_i_glide_rotatable_bonds>  (1) 
0

>  <i_lp_mmshare_version>  (1) 
72125

>  <i_m_source_file_index>  (1) 
28

>  <i_f3d_flags>  (1) 
0

>  <num_sample>  (1) 
100

>  <b_lp_Chiralities_Consistent>  (1) 
1

>  <r_epik_Charging_Adjusted_Penalty>  (1) 
0

>  <r_epik_Ionization_Penalty>  (1) 
0

>  <r_epik_Ionization_Penalty_Charging>  (1) 
0

>  <r_epik_Ionization_Penalty_Neutral>  (1) 
0

>  <r_epik_State_Penalty>  (1) 
-0

>  <r_glide_ring_energy>  (1) 
0

>  <r_i_docking_score>  (1) 
-5.3100130644157391

>  <r_i_glide_ecoul>  (1) 
-1.1481173759469421

>  <r_i_glide_eff_state_penalty>  (1) 
-0

>  <r_i_glide_einternal>  (1) 
0

>  <r_i_glide_emodel>  (1) 
-23.760699560150769

>  <r_i_glide_emodel_strain>  (1) 
0.012902071354440992

>  <r_i_glide_energy>  (1) 
-17.952701732672423

>  <r_i_glide_erotb>  (1) 
0

>  <r_i_glide_esite>  (1) 
0

>  <r_i_glide_evdw>  (1) 
-16.804584356725481

>  <r_i_glide_gscore>  (1) 
-5.3100130644157391

>  <r_i_glide_gscore_strain>  (1) 
0

>  <r_i_glide_hbond>  (1) 
0

>  <r_i_glide_ligand_efficiency>  (1) 
-0.75857329491653414

>  <r_i_glide_ligand_efficiency_ln>  (1) 
-1.8025034015781303

>  <r_i_glide_ligand_efficiency_sa>  (1) 
-1.451098510264234

>  <r_i_glide_lipo>  (1) 
-1.692020429201595

>  <r_i_glide_metal>  (1) 
-0

>  <r_i_glide_rewards>  (1) 
-2.605545810985828

>  <r_lp_Energy>  (1) 
4.7929789999999999

>  <r_lp_tautomer_probability>  (1) 
1

>  <s_epik_cmdline>  (1) 
J2VwaWtfcHl0aG9uJywgJy1waHQnLCAnMS4wJywgJy1waCcsICc3LjQnLCAnLXRuJywgJzgnLCAnLW1hJywgJzUwMCcsICctaW1hZScsICc8aW5maWxlLm1hZT4nLCAnLW9tYWUnLCAnPG91dGZpbGUubWFlPic=

>  <s_epik_input>  (1) 
TzFbQ0gyXVtDSF09W0NIXVtDSF09QzFbQ0gzXQ==

>  <s_glide_docking_method>  (1) 
confgen

>  <s_i_glide_gridfile>  (1) 
gpcr_drd2_6luq_protein_autoprepared_prepared

>  <s_lp_Force_Field>  (1) 
S-OPLS

>  <s_lp_Variant>  (1) 
Pocket2Mol_27-1

>  <s_m_source_file>  (1) 
generated_generic_title2_ligand_Pocket2Mol_2026-06-23_prepared.sdf

>  <GenAI_Model>  (1) 
Pocket2Mol

>  <Protein>  (1) 
generic_title2

$$$$
Pocket2Mol_97
     RDKit          3D

  0  0  0  0  0  0  0  0  0  0999 V3000
M  V30 BEGIN CTAB
M  V30 COUNTS 24 25 0 0 1
M  V30 BEGIN ATOM
M  V30 1 C 8.938473 5.496111 -11.376896 0
M  V30 2 O 9.214500 4.823534 -10.160519 0
M  V30 3 C 9.312665 6.980244 -11.309615 0
M  V30 4 O 10.575287 7.120984 -10.692555 0
M  V30 5 C 8.767336 5.512820 -9.006612 0
M  V30 6 C 10.620671 7.275061 -9.320571 0
M  V30 7 C 11.544011 8.184838 -8.767948 0
M  V30 8 C 9.766305 6.527088 -8.453428 0
M  V30 9 C 12.466179 8.962945 -9.672257 0
M  V30 10 C 11.612391 8.369309 -7.374374 0
M  V30 11 C 10.765918 7.642537 -6.523179 0
M  V30 12 F 10.841582 7.822441 -5.185030 0
M  V30 13 C 9.845684 6.724251 -7.058340 0
M  V30 14 H 7.883448 5.385032 -11.630075 0
M  V30 15 H 9.511092 5.002011 -12.162202 0
M  V30 16 H 8.575406 7.580987 -10.785028 0
M  V30 17 H 9.367120 7.390238 -12.318399 0
M  V30 18 H 8.611771 4.754058 -8.238952 0
M  V30 19 H 7.791660 5.969484 -9.158783 0
M  V30 20 H 12.004870 9.898259 -9.985026 0
M  V30 21 H 13.375410 9.190227 -9.125388 0
M  V30 22 H 12.745391 8.391137 -10.556948 0
M  V30 23 H 12.319887 9.070039 -6.957065 0
M  V30 24 H 9.199652 6.164797 -6.397497 0
M  V30 END ATOM
M  V30 BEGIN BOND
M  V30 1 1 2 1
M  V30 2 1 3 1
M  V30 3 1 4 3
M  V30 4 1 5 2
M  V30 5 1 6 4
M  V30 6 2 7 6
M  V30 7 1 8 5
M  V30 8 1 8 6
M  V30 9 1 9 7
M  V30 10 1 10 7
M  V30 11 2 11 10
M  V30 12 1 12 11
M  V30 13 2 13 8
M  V30 14 1 13 11
M  V30 15 1 14 1
M  V30 16 1 15 1
M  V30 17 1 16 3
M  V30 18 1 17 3
M  V30 19 1 18 5
M  V30 20 1 19 5
M  V30 21 1 20 9
M  V30 22 1 21 9
M  V30 23 1 22 9
M  V30 24 1 23 10
M  V30 25 1 24 13
M  V30 END BOND
M  V30 END CTAB
M  END
>  <i_epik_Tot_Q>  (1) 
0

>  <i_epik_Tot_abs_Q>  (1) 
0

>  <i_i_glide_confnum>  (1) 
2

>  <i_i_glide_lignum>  (1) 
106

>  <i_i_glide_posenum>  (1) 
145

>  <i_i_glide_rotatable_bonds>  (1) 
0

>  <i_lp_mmshare_version>  (1) 
72125

>  <i_m_source_file_index>  (1) 
98

>  <i_f3d_flags>  (1) 
0

>  <num_sample>  (1) 
100

>  <b_lp_Chiralities_Consistent>  (1) 
1

>  <r_epik_Charging_Adjusted_Penalty>  (1) 
0

>  <r_epik_Ionization_Penalty>  (1) 
1.3261073421285308e-13

>  <r_epik_Ionization_Penalty_Charging>  (1) 
0

>  <r_epik_Ionization_Penalty_Neutral>  (1) 
1.3261073421285308e-13

>  <r_epik_State_Penalty>  (1) 
-0

>  <r_glide_ring_energy>  (1) 
1.7623001670689571

>  <r_i_docking_score>  (1) 
-5.3020583744932335

>  <r_i_glide_ecoul>  (1) 
-1.8992277504026889

>  <r_i_glide_eff_state_penalty>  (1) 
-0

>  <r_i_glide_einternal>  (1) 
0

>  <r_i_glide_emodel>  (1) 
-28.306243733040478

>  <r_i_glide_emodel_strain>  (1) 
0.043353049673434896

>  <r_i_glide_energy>  (1) 
-21.451887240525075

>  <r_i_glide_erotb>  (1) 
0

>  <r_i_glide_esite>  (1) 
0

>  <r_i_glide_evdw>  (1) 
-19.552659490122387

>  <r_i_glide_gscore>  (1) 
-5.3020583744932335

>  <r_i_glide_gscore_strain>  (1) 
0

>  <r_i_glide_hbond>  (1) 
0

>  <r_i_glide_ligand_efficiency>  (1) 
-0.40785064419178718

>  <r_i_glide_ligand_efficiency_ln>  (1) 
-1.4872745284293813

>  <r_i_glide_ligand_efficiency_sa>  (1) 
-0.9589933670974059

>  <r_i_glide_lipo>  (1) 
-0.87438809081786883

>  <r_i_glide_metal>  (1) 
-0

>  <r_i_glide_rewards>  (1) 
-3.1651531466088421

>  <r_lp_Energy>  (1) 
15.481259999999999

>  <r_lp_tautomer_probability>  (1) 
1

>  <s_epik_cmdline>  (1) 
J2VwaWtfcHl0aG9uJywgJy1waHQnLCAnMS4wJywgJy1waCcsICc3LjQnLCAnLXRuJywgJzgnLCAnLW1hJywgJzUwMCcsICctaW1hZScsICc8aW5maWxlLm1hZT4nLCAnLW9tYWUnLCAnPG91dGZpbGUubWFlPic=

>  <s_epik_input>  (1) 
TzFbQ0gyXVtDSDJdT1tDSDJdYyhjMTIpW2NIXWMoRilbY0hdYzJbQ0gzXQ==

>  <s_glide_docking_method>  (1) 
confgen

>  <s_i_glide_gridfile>  (1) 
gpcr_drd2_6luq_protein_autoprepared_prepared

>  <s_lp_Force_Field>  (1) 
S-OPLS

>  <s_lp_Variant>  (1) 
Pocket2Mol_97-1

>  <s_m_source_file>  (1) 
generated_generic_title2_ligand_Pocket2Mol_2026-06-23_prepared.sdf

>  <GenAI_Model>  (1) 
Pocket2Mol

>  <Protein>  (1) 
generic_title2

$$$$
Pocket2Mol_67
     RDKit          3D

  0  0  0  0  0  0  0  0  0  0999 V3000
M  V30 BEGIN CTAB
M  V30 COUNTS 21 22 0 0 1
M  V30 BEGIN ATOM
M  V30 1 C 11.893529 7.950917 -3.985155 0
M  V30 2 O 10.975428 7.152739 -4.728356 0
M  V30 3 C 10.868244 7.393196 -6.079374 0
M  V30 4 C 11.885427 9.392168 -4.506113 0
M  V30 5 O 12.203942 9.412559 -5.890228 0
M  V30 6 C 11.492035 8.524852 -6.666139 0
M  V30 7 C 11.385494 8.739860 -8.054803 0
M  V30 8 C 10.129424 6.506515 -6.885074 0
M  V30 9 C 10.015816 6.734051 -8.269679 0
M  V30 10 C 9.215119 5.779160 -9.128562 0
M  V30 11 C 10.647039 7.848653 -8.854414 0
M  V30 12 H 12.892536 7.517682 -3.985066 0
M  V30 13 H 11.593447 7.938320 -2.937856 0
M  V30 14 H 12.617804 9.990223 -3.964120 0
M  V30 15 H 10.912555 9.859173 -4.350730 0
M  V30 16 H 11.864785 9.590876 -8.506342 0
M  V30 17 H 9.647754 5.650158 -6.439579 0
M  V30 18 H 8.268426 5.536323 -8.643217 0
M  V30 19 H 8.984347 6.220421 -10.098527 0
M  V30 20 H 9.774955 4.857507 -9.288981 0
M  V30 21 H 10.561271 8.022640 -9.917213 0
M  V30 END ATOM
M  V30 BEGIN BOND
M  V30 1 1 2 1
M  V30 2 1 3 2
M  V30 3 1 4 1
M  V30 4 1 5 4
M  V30 5 2 6 3
M  V30 6 1 6 5
M  V30 7 1 7 6
M  V30 8 1 8 3
M  V30 9 2 9 8
M  V30 10 1 10 9
M  V30 11 2 11 7
M  V30 12 1 11 9
M  V30 13 1 12 1
M  V30 14 1 13 1
M  V30 15 1 14 4
M  V30 16 1 15 4
M  V30 17 1 16 7
M  V30 18 1 17 8
M  V30 19 1 18 10
M  V30 20 1 19 10
M  V30 21 1 20 10
M  V30 22 1 21 11
M  V30 END BOND
M  V30 END CTAB
M  END
>  <i_epik_Tot_Q>  (1) 
0

>  <i_epik_Tot_abs_Q>  (1) 
0

>  <i_i_glide_confnum>  (1) 
2

>  <i_i_glide_lignum>  (1) 
74

>  <i_i_glide_posenum>  (1) 
134

>  <i_i_glide_rotatable_bonds>  (1) 
0

>  <i_lp_mmshare_version>  (1) 
72125

>  <i_m_source_file_index>  (1) 
68

>  <i_f3d_flags>  (1) 
0

>  <num_sample>  (1) 
100

>  <b_lp_Chiralities_Consistent>  (1) 
1

>  <r_epik_Charging_Adjusted_Penalty>  (1) 
0

>  <r_epik_Ionization_Penalty>  (1) 
0

>  <r_epik_Ionization_Penalty_Charging>  (1) 
0

>  <r_epik_Ionization_Penalty_Neutral>  (1) 
0

>  <r_epik_State_Penalty>  (1) 
-0

>  <r_glide_ring_energy>  (1) 
0.0030884536109969021

>  <r_i_docking_score>  (1) 
-5.2947253242042409

>  <r_i_glide_ecoul>  (1) 
-0.071616820027346997

>  <r_i_glide_eff_state_penalty>  (1) 
-0

>  <r_i_glide_einternal>  (1) 
0

>  <r_i_glide_emodel>  (1) 
-26.722602637801181

>  <r_i_glide_emodel_strain>  (1) 
0

>  <r_i_glide_energy>  (1) 
-19.727742952998163

>  <r_i_glide_erotb>  (1) 
0

>  <r_i_glide_esite>  (1) 
0

>  <r_i_glide_evdw>  (1) 
-19.656126132970815

>  <r_i_glide_gscore>  (1) 
-5.2947253242042409

>  <r_i_glide_gscore_strain>  (1) 
0

>  <r_i_glide_hbond>  (1) 
0

>  <r_i_glide_ligand_efficiency>  (1) 
-0.48133866583674917

>  <r_i_glide_ligand_efficiency_ln>  (1) 
-1.5582367610299293

>  <r_i_glide_ligand_efficiency_sa>  (1) 
-1.070487609642127

>  <r_i_glide_lipo>  (1) 
-1.3790460097688464

>  <r_i_glide_metal>  (1) 
-0

>  <r_i_glide_rewards>  (1) 
-2.9221304847827523

>  <r_lp_Energy>  (1) 
14.201067

>  <r_lp_tautomer_probability>  (1) 
1

>  <s_epik_cmdline>  (1) 
J2VwaWtfcHl0aG9uJywgJy1waHQnLCAnMS4wJywgJy1waCcsICc3LjQnLCAnLXRuJywgJzgnLCAnLW1hJywgJzUwMCcsICctaW1hZScsICc8aW5maWxlLm1hZT4nLCAnLW9tYWUnLCAnPG91dGZpbGUubWFlPic=

>  <s_epik_input>  (1) 
TzFbQ0gyXVtDSDJdT2MoYzEyKVtjSF1bY0hdYyhbY0hdMilbQ0gzXQ==

>  <s_glide_docking_method>  (1) 
confgen

>  <s_i_glide_gridfile>  (1) 
gpcr_drd2_6luq_protein_autoprepared_prepared

>  <s_lp_Force_Field>  (1) 
S-OPLS

>  <s_lp_Variant>  (1) 
Pocket2Mol_67-1

>  <s_m_source_file>  (1) 
generated_generic_title2_ligand_Pocket2Mol_2026-06-23_prepared.sdf

>  <GenAI_Model>  (1) 
Pocket2Mol

>  <Protein>  (1) 
generic_title2

$$$$
Pocket2Mol_23
     RDKit          3D

  0  0  0  0  0  0  0  0  0  0999 V3000
M  V30 BEGIN CTAB
M  V30 COUNTS 11 11 0 0 1
M  V30 BEGIN ATOM
M  V30 1 N 12.314194 7.934898 -2.528097 0
M  V30 2 C 12.256786 9.069924 -3.268708 0
M  V30 3 C 11.775410 9.109584 -4.592864 0
M  V30 4 C 11.874753 6.793113 -3.113136 0
M  V30 5 C 11.375410 6.738516 -4.430661 0
M  V30 6 F 11.743420 10.274735 -5.280777 0
M  V30 7 C 11.326426 7.920858 -5.185035 0
M  V30 8 H 12.604495 9.972219 -2.788545 0
M  V30 9 H 11.924692 5.897790 -2.511444 0
M  V30 10 H 11.037151 5.803672 -4.851348 0
M  V30 11 H 10.949540 7.915456 -6.197503 0
M  V30 END ATOM
M  V30 BEGIN BOND
M  V30 1 2 2 1
M  V30 2 1 3 2
M  V30 3 1 4 1
M  V30 4 2 5 4
M  V30 5 1 6 3
M  V30 6 2 7 3
M  V30 7 1 7 5
M  V30 8 1 8 2
M  V30 9 1 9 4
M  V30 10 1 10 5
M  V30 11 1 11 7
M  V30 END BOND
M  V30 END CTAB
M  END
>  <i_epik_Tot_Q>  (1) 
0

>  <i_epik_Tot_abs_Q>  (1) 
0

>  <i_i_glide_confnum>  (1) 
1

>  <i_i_glide_lignum>  (1) 
27

>  <i_i_glide_posenum>  (1) 
322

>  <i_i_glide_rotatable_bonds>  (1) 
0

>  <i_lp_mmshare_version>  (1) 
72125

>  <i_m_source_file_index>  (1) 
24

>  <i_f3d_flags>  (1) 
0

>  <num_sample>  (1) 
100

>  <b_lp_Chiralities_Consistent>  (1) 
1

>  <r_epik_Charging_Adjusted_Penalty>  (1) 
0

>  <r_epik_Ionization_Penalty>  (1) 
7.3223601380878174e-05

>  <r_epik_Ionization_Penalty_Charging>  (1) 
0

>  <r_epik_Ionization_Penalty_Neutral>  (1) 
7.3223601380878174e-05

>  <r_epik_State_Penalty>  (1) 
-0

>  <r_glide_ring_energy>  (1) 
0

>  <r_i_docking_score>  (1) 
-5.281478577107884

>  <r_i_glide_ecoul>  (1) 
-1.0710856523227341

>  <r_i_glide_eff_state_penalty>  (1) 
-0

>  <r_i_glide_einternal>  (1) 
0

>  <r_i_glide_emodel>  (1) 
-21.381128845445811

>  <r_i_glide_emodel_strain>  (1) 
0

>  <r_i_glide_energy>  (1) 
-15.985941316587487

>  <r_i_glide_erotb>  (1) 
0

>  <r_i_glide_esite>  (1) 
0

>  <r_i_glide_evdw>  (1) 
-14.914855664264753

>  <r_i_glide_gscore>  (1) 
-5.281478577107884

>  <r_i_glide_gscore_strain>  (1) 
0

>  <r_i_glide_hbond>  (1) 
0

>  <r_i_glide_ligand_efficiency>  (1) 
-0.75449693958684061

>  <r_i_glide_ligand_efficiency_ln>  (1) 
-1.7928172652521444

>  <r_i_glide_ligand_efficiency_sa>  (1) 
-1.4433007230420027

>  <r_i_glide_lipo>  (1) 
-1.4908952503734043

>  <r_i_glide_metal>  (1) 
-0

>  <r_i_glide_rewards>  (1) 
-2.8841776956728316

>  <r_lp_Energy>  (1) 
10.789624

>  <r_lp_tautomer_probability>  (1) 
1

>  <s_epik_cmdline>  (1) 
J2VwaWtfcHl0aG9uJywgJy1waHQnLCAnMS4wJywgJy1waCcsICc3LjQnLCAnLXRuJywgJzgnLCAnLW1hJywgJzUwMCcsICctaW1hZScsICc8aW5maWxlLm1hZT4nLCAnLW9tYWUnLCAnPG91dGZpbGUubWFlPic=

>  <s_epik_input>  (1) 
W2NIXTFbY0hdW2NIXW5bY0hdYzFG

>  <s_glide_docking_method>  (1) 
confgen

>  <s_i_glide_gridfile>  (1) 
gpcr_drd2_6luq_protein_autoprepared_prepared

>  <s_lp_Force_Field>  (1) 
S-OPLS

>  <s_lp_Variant>  (1) 
Pocket2Mol_23-1

>  <s_m_source_file>  (1) 
generated_generic_title2_ligand_Pocket2Mol_2026-06-23_prepared.sdf

>  <GenAI_Model>  (1) 
Pocket2Mol

>  <Protein>  (1) 
generic_title2

$$$$
Pocket2Mol_78
     RDKit          3D

  0  0  0  0  0  0  0  0  0  0999 V3000
M  V30 BEGIN CTAB
M  V30 COUNTS 22 23 0 0 1
M  V30 BEGIN ATOM
M  V30 1 C 9.225851 4.907098 -9.361222 0
M  V30 2 O 9.687253 6.079148 -10.011812 0
M  V30 3 C 10.361375 6.968286 -9.207175 0
M  V30 4 C 8.490366 5.327494 -8.095283 0
M  V30 5 O 9.385605 5.990227 -7.211878 0
M  V30 6 C 10.218328 6.918665 -7.793363 0
M  V30 7 C 10.937854 7.833106 -6.982695 0
M  V30 8 O 10.822900 7.803545 -5.610944 0
M  V30 9 C 11.201097 7.929358 -9.793142 0
M  V30 10 C 11.905525 8.836609 -8.986993 0
M  V30 11 C 11.775401 8.790238 -7.585558 0
M  V30 12 C 11.066479 6.551517 -4.981369 0
M  V30 13 H 8.547180 4.390181 -10.037935 0
M  V30 14 H 10.051629 4.234161 -9.131327 0
M  V30 15 H 7.686449 5.990254 -8.385026 0
M  V30 16 H 8.044362 4.471947 -7.589005 0
M  V30 17 H 11.306628 7.968148 -10.866524 0
M  V30 18 H 12.548791 9.573399 -9.445011 0
M  V30 19 H 12.319955 9.490871 -6.970674 0
M  V30 20 H 11.494021 6.724008 -3.994070 0
M  V30 21 H 10.143025 5.991176 -4.839712 0
M  V30 22 H 11.773730 5.937668 -5.541811 0
M  V30 END ATOM
M  V30 BEGIN BOND
M  V30 1 1 2 1
M  V30 2 1 3 2
M  V30 3 1 4 1
M  V30 4 1 5 4
M  V30 5 1 6 3
M  V30 6 1 6 5
M  V30 7 2 7 6
M  V30 8 1 8 7
M  V30 9 2 9 3
M  V30 10 1 10 9
M  V30 11 1 11 7
M  V30 12 2 11 10
M  V30 13 1 12 8
M  V30 14 1 13 1
M  V30 15 1 14 1
M  V30 16 1 15 4
M  V30 17 1 16 4
M  V30 18 1 17 9
M  V30 19 1 18 10
M  V30 20 1 19 11
M  V30 21 1 20 12
M  V30 22 1 21 12
M  V30 23 1 22 12
M  V30 END BOND
M  V30 END CTAB
M  END
>  <i_epik_Tot_Q>  (1) 
0

>  <i_epik_Tot_abs_Q>  (1) 
0

>  <i_i_glide_confnum>  (1) 
2

>  <i_i_glide_lignum>  (1) 
85

>  <i_i_glide_posenum>  (1) 
282

>  <i_i_glide_rotatable_bonds>  (1) 
1

>  <i_lp_mmshare_version>  (1) 
72125

>  <i_m_source_file_index>  (1) 
79

>  <i_f3d_flags>  (1) 
0

>  <num_sample>  (1) 
100

>  <b_lp_Chiralities_Consistent>  (1) 
1

>  <r_epik_Charging_Adjusted_Penalty>  (1) 
0

>  <r_epik_Ionization_Penalty>  (1) 
0

>  <r_epik_Ionization_Penalty_Charging>  (1) 
0

>  <r_epik_Ionization_Penalty_Neutral>  (1) 
0

>  <r_epik_State_Penalty>  (1) 
-0

>  <r_glide_ring_energy>  (1) 
0.0030884499939853893

>  <r_i_docking_score>  (1) 
-5.2814420159138216

>  <r_i_glide_ecoul>  (1) 
-0.72051877538723841

>  <r_i_glide_eff_state_penalty>  (1) 
-0

>  <r_i_glide_einternal>  (1) 
3.9756573248991196

>  <r_i_glide_emodel>  (1) 
-26.245225049698234

>  <r_i_glide_emodel_strain>  (1) 
0

>  <r_i_glide_energy>  (1) 
-21.590787345488636

>  <r_i_glide_erotb>  (1) 
0

>  <r_i_glide_esite>  (1) 
0

>  <r_i_glide_evdw>  (1) 
-20.870268570101398

>  <r_i_glide_gscore>  (1) 
-5.2814420159138216

>  <r_i_glide_gscore_strain>  (1) 
0

>  <r_i_glide_hbond>  (1) 
0

>  <r_i_glide_ligand_efficiency>  (1) 
-0.44012016799281845

>  <r_i_glide_ligand_efficiency_ln>  (1) 
-1.5155189354168528

>  <r_i_glide_ligand_efficiency_sa>  (1) 
-1.0076236494726889

>  <r_i_glide_lipo>  (1) 
-1.1587837324117354

>  <r_i_glide_metal>  (1) 
-0

>  <r_i_glide_rewards>  (1) 
-2.9710670386889309

>  <r_lp_Energy>  (1) 
20.318058000000001

>  <r_lp_tautomer_probability>  (1) 
1

>  <s_epik_cmdline>  (1) 
J2VwaWtfcHl0aG9uJywgJy1waHQnLCAnMS4wJywgJy1waCcsICc3LjQnLCAnLXRuJywgJzgnLCAnLW1hJywgJzUwMCcsICctaW1hZScsICc8aW5maWxlLm1hZT4nLCAnLW9tYWUnLCAnPG91dGZpbGUubWFlPic=

>  <s_epik_input>  (1) 
TzFbQ0gyXVtDSDJdT2MoYzEyKWMoT1tDSDNdKVtjSF1bY0hdW2NIXTI=

>  <s_glide_docking_method>  (1) 
confgen

>  <s_i_glide_gridfile>  (1) 
gpcr_drd2_6luq_protein_autoprepared_prepared

>  <s_lp_Force_Field>  (1) 
S-OPLS

>  <s_lp_Variant>  (1) 
Pocket2Mol_78-1

>  <s_m_source_file>  (1) 
generated_generic_title2_ligand_Pocket2Mol_2026-06-23_prepared.sdf

>  <GenAI_Model>  (1) 
Pocket2Mol

>  <Protein>  (1) 
generic_title2

$$$$
Pocket2Mol_25
     RDKit          3D

  0  0  0  0  0  0  0  0  0  0999 V3000
M  V30 BEGIN CTAB
M  V30 COUNTS 15 15 0 0 1
M  V30 BEGIN ATOM
M  V30 1 N 9.380798 7.752111 -8.974126 0 CHG=1
M  V30 2 C 10.366723 7.905619 -9.913269 0
M  V30 3 C 11.556265 8.051505 -9.219005 0
M  V30 4 C 9.906464 7.798089 -7.763242 0
M  V30 5 C 12.953482 8.249828 -9.687231 0
M  V30 6 N 9.240716 7.684502 -6.607952 0
M  V30 7 N 11.217370 7.977652 -7.884979 0
M  V30 8 H 10.170985 7.901556 -10.972564 0
M  V30 9 H 12.989876 8.277985 -10.777001 0
M  V30 10 H 13.351218 9.189332 -9.304292 0
M  V30 11 H 13.588693 7.434921 -9.341899 0
M  V30 12 H 8.237054 7.547816 -6.572443 0
M  V30 13 H 9.694570 7.726078 -5.708901 0
M  V30 14 H 11.874827 8.050103 -7.119074 0
M  V30 15 H 8.382289 7.622927 -9.185032 0
M  V30 END ATOM
M  V30 BEGIN BOND
M  V30 1 1 2 1
M  V30 2 2 3 2
M  V30 3 2 4 1
M  V30 4 1 5 3
M  V30 5 1 6 4
M  V30 6 1 7 3
M  V30 7 1 7 4
M  V30 8 1 8 2
M  V30 9 1 9 5
M  V30 10 1 10 5
M  V30 11 1 11 5
M  V30 12 1 12 6
M  V30 13 1 13 6
M  V30 14 1 14 7
M  V30 15 1 15 1
M  V30 END BOND
M  V30 END CTAB
M  END
>  <i_epik_Tot_Q>  (1) 
1

>  <i_epik_Tot_abs_Q>  (1) 
1

>  <i_i_glide_confnum>  (1) 
1

>  <i_i_glide_lignum>  (1) 
29

>  <i_i_glide_posenum>  (1) 
245

>  <i_i_glide_rotatable_bonds>  (1) 
0

>  <i_lp_mmshare_version>  (1) 
72125

>  <i_m_source_file_index>  (1) 
26

>  <i_f3d_flags>  (1) 
0

>  <num_sample>  (1) 
100

>  <b_lp_Chiralities_Consistent>  (1) 
1

>  <r_epik_Charging_Adjusted_Penalty>  (1) 
0.028937443406262361

>  <r_epik_Ionization_Penalty>  (1) 
0.025358402846536118

>  <r_epik_Ionization_Penalty_Charging>  (1) 
0

>  <r_epik_Ionization_Penalty_Neutral>  (1) 
0.025358402846536118

>  <r_epik_State_Penalty>  (1) 
0.028937443406262361

>  <r_glide_ring_energy>  (1) 
0

>  <r_i_docking_score>  (1) 
-5.2750313246233445

>  <r_i_glide_ecoul>  (1) 
-9.4309177409616183

>  <r_i_glide_eff_state_penalty>  (1) 
0.028937443406262361

>  <r_i_glide_einternal>  (1) 
0

>  <r_i_glide_emodel>  (1) 
-26.608597856285854

>  <r_i_glide_emodel_strain>  (1) 
0

>  <r_i_glide_energy>  (1) 
-16.122885433706276

>  <r_i_glide_erotb>  (1) 
0

>  <r_i_glide_esite>  (1) 
-0.23308483947431047

>  <r_i_glide_evdw>  (1) 
-6.6919676927446572

>  <r_i_glide_gscore>  (1) 
-5.3039687680296064

>  <r_i_glide_gscore_strain>  (1) 
0

>  <r_i_glide_hbond>  (1) 
-0.30404741158366211

>  <r_i_glide_ligand_efficiency>  (1) 
-0.7535759035176206

>  <r_i_glide_ligand_efficiency_ln>  (1) 
-1.7906287217602095

>  <r_i_glide_ligand_efficiency_sa>  (1) 
-1.4415388444247339

>  <r_i_glide_lipo>  (1) 
-0.2376004711901587

>  <r_i_glide_metal>  (1) 
-0

>  <r_i_glide_rewards>  (1) 
-2.7800000000000002

>  <r_lp_Energy>  (1) 
-0.73901799999999995

>  <r_lp_tautomer_probability>  (1) 
0.99999998112300037

>  <s_epik_cmdline>  (1) 
J2VwaWtfcHl0aG9uJywgJy1waHQnLCAnMS4wJywgJy1waCcsICc3LjQnLCAnLXRuJywgJzgnLCAnLW1hJywgJzUwMCcsICctaW1hZScsICc8aW5maWxlLm1hZT4nLCAnLW9tYWUnLCAnPG91dGZpbGUubWFlPic=

>  <s_epik_input>  (1) 
W05IMl1jKFtuSF0xKW5bY0hdYzFbQ0gzXQ==

>  <s_glide_docking_method>  (1) 
confgen

>  <s_i_glide_gridfile>  (1) 
gpcr_drd2_6luq_protein_autoprepared_prepared

>  <s_lp_Force_Field>  (1) 
S-OPLS

>  <s_lp_Variant>  (1) 
Pocket2Mol_25-1

>  <s_m_source_file>  (1) 
generated_generic_title2_ligand_Pocket2Mol_2026-06-23_prepared.sdf

>  <GenAI_Model>  (1) 
Pocket2Mol

>  <Protein>  (1) 
generic_title2

$$$$
Pocket2Mol_67
     RDKit          3D

  0  0  0  0  0  0  0  0  0  0999 V3000
M  V30 BEGIN CTAB
M  V30 COUNTS 21 22 0 0 1
M  V30 BEGIN ATOM
M  V30 1 C 9.730602 7.056324 -10.570287 0
M  V30 2 O 10.939069 7.550327 -10.019994 0
M  V30 3 C 10.915693 7.704327 -8.653872 0
M  V30 4 C 9.300730 5.791964 -9.815959 0
M  V30 5 O 9.141377 6.051340 -8.430134 0
M  V30 6 C 10.012197 6.950252 -7.854639 0
M  V30 7 C 10.002454 7.124918 -6.459409 0
M  V30 8 C 11.795352 8.618174 -8.042125 0
M  V30 9 C 11.775410 8.790227 -6.642838 0
M  V30 10 C 12.716963 9.776842 -5.985025 0
M  V30 11 C 10.880651 8.042297 -5.854968 0
M  V30 12 H 9.880917 6.837700 -11.627547 0
M  V30 13 H 8.975408 7.837404 -10.507853 0
M  V30 14 H 10.016921 4.984541 -9.942861 0
M  V30 15 H 8.350382 5.430414 -10.209098 0
M  V30 16 H 9.317383 6.553366 -5.851149 0
M  V30 17 H 12.482668 9.190227 -8.647866 0
M  V30 18 H 13.719402 9.703982 -6.407378 0
M  V30 19 H 12.344150 10.790290 -6.127602 0
M  V30 20 H 12.795862 9.590228 -4.913454 0
M  V30 21 H 10.867375 8.172150 -4.785025 0
M  V30 END ATOM
M  V30 BEGIN BOND
M  V30 1 1 2 1
M  V30 2 1 3 2
M  V30 3 1 4 1
M  V30 4 1 5 4
M  V30 5 2 6 3
M  V30 6 1 6 5
M  V30 7 1 7 6
M  V30 8 1 8 3
M  V30 9 2 9 8
M  V30 10 1 10 9
M  V30 11 2 11 7
M  V30 12 1 11 9
M  V30 13 1 12 1
M  V30 14 1 13 1
M  V30 15 1 14 4
M  V30 16 1 15 4
M  V30 17 1 16 7
M  V30 18 1 17 8
M  V30 19 1 18 10
M  V30 20 1 19 10
M  V30 21 1 20 10
M  V30 22 1 21 11
M  V30 END BOND
M  V30 END CTAB
M  END
>  <i_epik_Tot_Q>  (1) 
0

>  <i_epik_Tot_abs_Q>  (1) 
0

>  <i_i_glide_confnum>  (1) 
1

>  <i_i_glide_lignum>  (1) 
74

>  <i_i_glide_posenum>  (1) 
73

>  <i_i_glide_rotatable_bonds>  (1) 
0

>  <i_lp_mmshare_version>  (1) 
72125

>  <i_m_source_file_index>  (1) 
68

>  <i_f3d_flags>  (1) 
0

>  <num_sample>  (1) 
100

>  <b_lp_Chiralities_Consistent>  (1) 
1

>  <r_epik_Charging_Adjusted_Penalty>  (1) 
0

>  <r_epik_Ionization_Penalty>  (1) 
0

>  <r_epik_Ionization_Penalty_Charging>  (1) 
0

>  <r_epik_Ionization_Penalty_Neutral>  (1) 
0

>  <r_epik_State_Penalty>  (1) 
-0

>  <r_glide_ring_energy>  (1) 
0

>  <r_i_docking_score>  (1) 
-5.2742874915211351

>  <r_i_glide_ecoul>  (1) 
-0.53253349352542134

>  <r_i_glide_eff_state_penalty>  (1) 
-0

>  <r_i_glide_einternal>  (1) 
0

>  <r_i_glide_emodel>  (1) 
-27.376165609398512

>  <r_i_glide_emodel_strain>  (1) 
9.0924768318956239e-06

>  <r_i_glide_energy>  (1) 
-20.408315430337634

>  <r_i_glide_erotb>  (1) 
0

>  <r_i_glide_esite>  (1) 
0

>  <r_i_glide_evdw>  (1) 
-19.875781936812214

>  <r_i_glide_gscore>  (1) 
-5.2742874915211351

>  <r_i_glide_gscore_strain>  (1) 
0

>  <r_i_glide_hbond>  (1) 
0

>  <r_i_glide_ligand_efficiency>  (1) 
-0.4794806810473759

>  <r_i_glide_ligand_efficiency_ln>  (1) 
-1.5522219103525938

>  <r_i_glide_ligand_efficiency_sa>  (1) 
-1.0663554884619804

>  <r_i_glide_lipo>  (1) 
-1.2553649418792348

>  <r_i_glide_metal>  (1) 
-0

>  <r_i_glide_rewards>  (1) 
-2.9452534287724759

>  <r_lp_Energy>  (1) 
14.201067

>  <r_lp_tautomer_probability>  (1) 
1

>  <s_epik_cmdline>  (1) 
J2VwaWtfcHl0aG9uJywgJy1waHQnLCAnMS4wJywgJy1waCcsICc3LjQnLCAnLXRuJywgJzgnLCAnLW1hJywgJzUwMCcsICctaW1hZScsICc8aW5maWxlLm1hZT4nLCAnLW9tYWUnLCAnPG91dGZpbGUubWFlPic=

>  <s_epik_input>  (1) 
TzFbQ0gyXVtDSDJdT2MoYzEyKVtjSF1bY0hdYyhbY0hdMilbQ0gzXQ==

>  <s_glide_docking_method>  (1) 
confgen

>  <s_i_glide_gridfile>  (1) 
gpcr_drd2_6luq_protein_autoprepared_prepared

>  <s_lp_Force_Field>  (1) 
S-OPLS

>  <s_lp_Variant>  (1) 
Pocket2Mol_67-1

>  <s_m_source_file>  (1) 
generated_generic_title2_ligand_Pocket2Mol_2026-06-23_prepared.sdf

>  <GenAI_Model>  (1) 
Pocket2Mol

>  <Protein>  (1) 
generic_title2

$$$$
Pocket2Mol_26
     RDKit          3D

  0  0  0  0  0  0  0  0  0  0999 V3000
M  V30 BEGIN CTAB
M  V30 COUNTS 15 15 0 0 1
M  V30 BEGIN ATOM
M  V30 1 C 10.741614 7.435177 -5.830752 0
M  V30 2 O 10.575663 8.833566 -5.585025 0
M  V30 3 C 11.749312 9.513199 -5.129765 0
M  V30 4 C 12.307782 8.931899 -3.802662 0 CFG=1
M  V30 5 O 11.775550 9.590225 -2.679668 0
M  V30 6 C 11.375221 6.767049 -4.631411 0
M  V30 7 C 12.075626 7.442218 -3.715103 0
M  V30 8 H 11.359084 7.270226 -6.713600 0
M  V30 9 H 9.764447 6.992693 -6.025327 0
M  V30 10 H 11.537996 10.577866 -5.030998 0
M  V30 11 H 12.507240 9.427406 -5.909796 0
M  V30 12 H 13.375909 9.116796 -3.780216 0
M  V30 13 H 12.479728 9.800085 -2.081007 0
M  V30 14 H 11.241269 5.699428 -4.535229 0
M  V30 15 H 12.509481 6.922740 -2.873998 0
M  V30 END ATOM
M  V30 BEGIN BOND
M  V30 1 1 2 1
M  V30 2 1 3 2
M  V30 3 1 4 3
M  V30 4 1 5 4
M  V30 5 1 6 1
M  V30 6 1 7 4
M  V30 7 2 7 6
M  V30 8 1 8 1
M  V30 9 1 9 1
M  V30 10 1 10 3
M  V30 11 1 11 3
M  V30 12 1 4 12 CFG=3
M  V30 13 1 13 5
M  V30 14 1 14 6
M  V30 15 1 15 7
M  V30 END BOND
M  V30 END CTAB
M  END
>  <i_epik_Tot_Q>  (1) 
0

>  <i_epik_Tot_abs_Q>  (1) 
0

>  <i_i_glide_confnum>  (1) 
2

>  <i_i_glide_lignum>  (1) 
30

>  <i_i_glide_posenum>  (1) 
33

>  <i_i_glide_rotatable_bonds>  (1) 
1

>  <i_lp_mmshare_version>  (1) 
72125

>  <i_m_source_file_index>  (1) 
27

>  <i_f3d_flags>  (1) 
0

>  <num_sample>  (1) 
100

>  <b_lp_Chiralities_Consistent>  (1) 
1

>  <r_epik_Charging_Adjusted_Penalty>  (1) 
0

>  <r_epik_Ionization_Penalty>  (1) 
7.567869706951744e-07

>  <r_epik_Ionization_Penalty_Charging>  (1) 
0

>  <r_epik_Ionization_Penalty_Neutral>  (1) 
7.567869706951744e-07

>  <r_epik_State_Penalty>  (1) 
-0

>  <r_glide_ring_energy>  (1) 
0.3802776858136746

>  <r_i_docking_score>  (1) 
-5.2686887146284516

>  <r_i_glide_ecoul>  (1) 
-2.7381502085553806

>  <r_i_glide_eff_state_penalty>  (1) 
-0

>  <r_i_glide_einternal>  (1) 
0.59000639660096887

>  <r_i_glide_emodel>  (1) 
-24.264792536516982

>  <r_i_glide_emodel_strain>  (1) 
0.25745195574131063

>  <r_i_glide_energy>  (1) 
-18.164108365578102

>  <r_i_glide_erotb>  (1) 
0

>  <r_i_glide_esite>  (1) 
0

>  <r_i_glide_evdw>  (1) 
-15.42595815702272

>  <r_i_glide_gscore>  (1) 
-5.2686887146284516

>  <r_i_glide_gscore_strain>  (1) 
0

>  <r_i_glide_hbond>  (1) 
-0.16394162679487934

>  <r_i_glide_ligand_efficiency>  (1) 
-0.75266981637549313

>  <r_i_glide_ligand_efficiency_ln>  (1) 
-1.7884756995450117

>  <r_i_glide_ligand_efficiency_sa>  (1) 
-1.4398055620762489

>  <r_i_glide_lipo>  (1) 
-1.4298177392488594

>  <r_i_glide_metal>  (1) 
-0

>  <r_i_glide_rewards>  (1) 
-2.4929089094502692

>  <r_lp_Energy>  (1) 
2.4739009999999997

>  <r_lp_tautomer_probability>  (1) 
1

>  <s_epik_cmdline>  (1) 
J2VwaWtfcHl0aG9uJywgJy1waHQnLCAnMS4wJywgJy1waCcsICc3LjQnLCAnLXRuJywgJzgnLCAnLW1hJywgJzUwMCcsICctaW1hZScsICc8aW5maWxlLm1hZT4nLCAnLW9tYWUnLCAnPG91dGZpbGUubWFlPic=

>  <s_epik_input>  (1) 
W0NIXTE9W0NIXVtDSDJdT1tDSDJdW0NASF0xW09IXQ==

>  <s_glide_docking_method>  (1) 
confgen

>  <s_i_glide_gridfile>  (1) 
gpcr_drd2_6luq_protein_autoprepared_prepared

>  <s_lp_Force_Field>  (1) 
S-OPLS

>  <s_lp_Variant>  (1) 
Pocket2Mol_26-1

>  <s_m_source_file>  (1) 
generated_generic_title2_ligand_Pocket2Mol_2026-06-23_prepared.sdf

>  <GenAI_Model>  (1) 
Pocket2Mol

>  <Protein>  (1) 
generic_title2

$$$$
Pocket2Mol_24
     RDKit          3D

  0  0  0  0  0  0  0  0  0  0999 V3000
M  V30 BEGIN CTAB
M  V30 COUNTS 15 16 0 0 1
M  V30 BEGIN ATOM
M  V30 1 C 11.078053 8.473205 -6.116050 0
M  V30 2 O 11.812998 8.680413 -7.327915 0
M  V30 3 C 11.253395 7.929148 -8.409006 0 CFG=2
M  V30 4 C 9.786975 8.151740 -8.694269 0 CFG=1
M  V30 5 O 9.375410 7.724377 -9.981409 0
M  V30 6 C 10.300152 7.167914 -6.304794 0
M  V30 7 C 10.234482 7.012397 -7.793493 0 CFG=2
M  V30 8 H 11.731661 8.460764 -5.241621 0
M  V30 9 H 10.387123 9.308130 -5.999802 0
M  V30 10 H 11.948537 7.556935 -9.166000 0
M  V30 11 H 9.263451 9.014076 -8.288209 0
M  V30 12 H 8.414036 7.590254 -9.932776 0
M  V30 13 H 10.844744 6.324941 -5.878952 0
M  V30 14 H 9.303247 7.192703 -5.864578 0
M  V30 15 H 10.133000 5.998717 -8.186184 0
M  V30 END ATOM
M  V30 BEGIN BOND
M  V30 1 1 2 1
M  V30 2 1 3 2
M  V30 3 1 4 3
M  V30 4 1 5 4
M  V30 5 1 6 1
M  V30 6 1 7 3
M  V30 7 1 7 4
M  V30 8 1 7 6
M  V30 9 1 8 1
M  V30 10 1 9 1
M  V30 11 1 3 10 CFG=3
M  V30 12 1 4 11 CFG=1
M  V30 13 1 12 5
M  V30 14 1 13 6
M  V30 15 1 14 6
M  V30 16 1 7 15 CFG=1
M  V30 END BOND
M  V30 END CTAB
M  END
>  <i_epik_Tot_Q>  (1) 
0

>  <i_epik_Tot_abs_Q>  (1) 
0

>  <i_i_glide_confnum>  (1) 
1

>  <i_i_glide_lignum>  (1) 
28

>  <i_i_glide_posenum>  (1) 
393

>  <i_i_glide_rotatable_bonds>  (1) 
1

>  <i_lp_mmshare_version>  (1) 
72125

>  <i_m_source_file_index>  (1) 
25

>  <i_f3d_flags>  (1) 
0

>  <num_sample>  (1) 
100

>  <b_lp_Chiralities_Consistent>  (1) 
1

>  <r_epik_Charging_Adjusted_Penalty>  (1) 
0

>  <r_epik_Ionization_Penalty>  (1) 
4.3639151522347116e-08

>  <r_epik_Ionization_Penalty_Charging>  (1) 
0

>  <r_epik_Ionization_Penalty_Neutral>  (1) 
4.3639151522347116e-08

>  <r_epik_State_Penalty>  (1) 
-0

>  <r_glide_ring_energy>  (1) 
0

>  <r_i_docking_score>  (1) 
-5.2611052530399078

>  <r_i_glide_ecoul>  (1) 
-7.6787398285375268

>  <r_i_glide_eff_state_penalty>  (1) 
-0

>  <r_i_glide_einternal>  (1) 
0.19849089009687215

>  <r_i_glide_emodel>  (1) 
-26.401746795477663

>  <r_i_glide_emodel_strain>  (1) 
0

>  <r_i_glide_energy>  (1) 
-19.384318510291845

>  <r_i_glide_erotb>  (1) 
0

>  <r_i_glide_esite>  (1) 
0

>  <r_i_glide_evdw>  (1) 
-11.705578681754318

>  <r_i_glide_gscore>  (1) 
-5.2611052530399078

>  <r_i_glide_gscore_strain>  (1) 
0

>  <r_i_glide_hbond>  (1) 
-0.16

>  <r_i_glide_ligand_efficiency>  (1) 
-0.7515864647199868

>  <r_i_glide_ligand_efficiency_ln>  (1) 
-1.7859014657073045

>  <r_i_glide_ligand_efficiency_sa>  (1) 
-1.437733184912523

>  <r_i_glide_lipo>  (1) 
-0.7056820113382295

>  <r_i_glide_metal>  (1) 
-0

>  <r_i_glide_rewards>  (1) 
-2.6583333333333332

>  <r_lp_Energy>  (1) 
3.2309049999999999

>  <r_lp_tautomer_probability>  (1) 
1

>  <s_epik_cmdline>  (1) 
J2VwaWtfcHl0aG9uJywgJy1waHQnLCAnMS4wJywgJy1waCcsICc3LjQnLCAnLXRuJywgJzgnLCAnLW1hJywgJzUwMCcsICctaW1hZScsICc8aW5maWxlLm1hZT4nLCAnLW9tYWUnLCAnPG91dGZpbGUubWFlPic=

>  <s_epik_input>  (1) 
TzFbQ0gyXVtDSDJdW0NIXShbQ0BIXTEyKVtDQEBIXTJbT0hd

>  <s_glide_docking_method>  (1) 
confgen

>  <s_i_glide_gridfile>  (1) 
gpcr_drd2_6luq_protein_autoprepared_prepared

>  <s_lp_Force_Field>  (1) 
S-OPLS

>  <s_lp_Variant>  (1) 
Pocket2Mol_24-1

>  <s_m_source_file>  (1) 
generated_generic_title2_ligand_Pocket2Mol_2026-06-23_prepared.sdf

>  <GenAI_Model>  (1) 
Pocket2Mol

>  <Protein>  (1) 
generic_title2

$$$$
Pocket2Mol_89
     RDKit          3D

  0  0  0  0  0  0  0  0  0  0999 V3000
M  V30 BEGIN CTAB
M  V30 COUNTS 23 24 0 0 1
M  V30 BEGIN ATOM
M  V30 1 C 9.111756 4.698639 -10.074899 0
M  V30 2 O 8.727534 5.895142 -10.707247 0
M  V30 3 C 8.758248 4.797643 -8.604976 0
M  V30 4 O 8.806217 6.134866 -8.155721 0
M  V30 5 C 9.651493 6.832143 -10.919389 0
M  V30 6 C 9.935157 6.895834 -8.351209 0
M  V30 7 C 10.643357 7.367867 -7.224408 0
M  V30 8 O 9.893397 7.290070 -12.032539 0
M  V30 9 C 10.378058 7.263464 -9.665136 0
M  V30 10 C 10.172706 7.012400 -5.834984 0
M  V30 11 C 11.520515 8.083126 -9.804225 0
M  V30 12 C 12.213492 8.536745 -8.672690 0
M  V30 13 C 11.775330 8.185370 -7.388723 0
M  V30 14 H 10.175403 4.508408 -10.206326 0
M  V30 15 H 8.585910 3.874038 -10.549714 0
M  V30 16 H 9.375410 4.150804 -7.988732 0
M  V30 17 H 7.732291 4.459825 -8.463900 0
M  V30 18 H 10.964830 7.123579 -5.095163 0
M  V30 19 H 9.358488 7.687709 -5.584978 0
M  V30 20 H 9.802260 5.990687 -5.787113 0
M  V30 21 H 11.862961 8.368557 -10.784999 0
M  V30 22 H 13.083179 9.167483 -8.791360 0
M  V30 23 H 12.303856 8.551419 -6.523926 0
M  V30 END ATOM
M  V30 BEGIN BOND
M  V30 1 1 2 1
M  V30 2 1 3 1
M  V30 3 1 4 3
M  V30 4 1 5 2
M  V30 5 1 6 4
M  V30 6 2 7 6
M  V30 7 2 8 5
M  V30 8 1 9 5
M  V30 9 1 9 6
M  V30 10 1 10 7
M  V30 11 2 11 9
M  V30 12 1 12 11
M  V30 13 1 13 7
M  V30 14 2 13 12
M  V30 15 1 14 1
M  V30 16 1 15 1
M  V30 17 1 16 3
M  V30 18 1 17 3
M  V30 19 1 18 10
M  V30 20 1 19 10
M  V30 21 1 20 10
M  V30 22 1 21 11
M  V30 23 1 22 12
M  V30 24 1 23 13
M  V30 END BOND
M  V30 END CTAB
M  END
>  <i_epik_Tot_Q>  (1) 
0

>  <i_epik_Tot_abs_Q>  (1) 
0

>  <i_i_glide_confnum>  (1) 
3

>  <i_i_glide_lignum>  (1) 
96

>  <i_i_glide_posenum>  (1) 
168

>  <i_i_glide_rotatable_bonds>  (1) 
0

>  <i_lp_mmshare_version>  (1) 
72125

>  <i_m_source_file_index>  (1) 
90

>  <i_f3d_flags>  (1) 
0

>  <num_sample>  (1) 
100

>  <b_lp_Chiralities_Consistent>  (1) 
1

>  <r_epik_Charging_Adjusted_Penalty>  (1) 
0

>  <r_epik_Ionization_Penalty>  (1) 
1.0524661445465699e-15

>  <r_epik_Ionization_Penalty_Charging>  (1) 
0

>  <r_epik_Ionization_Penalty_Neutral>  (1) 
1.0524661445465699e-15

>  <r_epik_State_Penalty>  (1) 
-0

>  <r_glide_ring_energy>  (1) 
0.44692708829558941

>  <r_i_docking_score>  (1) 
-5.2542415809093779

>  <r_i_glide_ecoul>  (1) 
0.30134191754987061

>  <r_i_glide_eff_state_penalty>  (1) 
-0

>  <r_i_glide_einternal>  (1) 
0

>  <r_i_glide_emodel>  (1) 
-26.07871543543191

>  <r_i_glide_emodel_strain>  (1) 
0.01308785839345461

>  <r_i_glide_energy>  (1) 
-19.541255872224653

>  <r_i_glide_erotb>  (1) 
0

>  <r_i_glide_esite>  (1) 
-0.065809953328164569

>  <r_i_glide_evdw>  (1) 
-19.842597789774523

>  <r_i_glide_gscore>  (1) 
-5.2542415809093779

>  <r_i_glide_gscore_strain>  (1) 
0

>  <r_i_glide_hbond>  (1) 
0

>  <r_i_glide_ligand_efficiency>  (1) 
-0.40417242930072139

>  <r_i_glide_ligand_efficiency_ln>  (1) 
-1.4738614925656957

>  <r_i_glide_ligand_efficiency_sa>  (1) 
-0.95034465283515179

>  <r_i_glide_lipo>  (1) 
-1.1592878474897421

>  <r_i_glide_metal>  (1) 
-0

>  <r_i_glide_rewards>  (1) 
-3.0822151782352254

>  <r_lp_Energy>  (1) 
16.296869999999998

>  <r_lp_tautomer_probability>  (1) 
1

>  <s_epik_Chemistry_Notes>  (1) 
This compound has an ester and may undergo hydrolysis at high or low pH.

>  <s_epik_cmdline>  (1) 
J2VwaWtfcHl0aG9uJywgJy1waHQnLCAnMS4wJywgJy1waCcsICc3LjQnLCAnLXRuJywgJzgnLCAnLW1hJywgJzUwMCcsICctaW1hZScsICc8aW5maWxlLm1hZT4nLCAnLW9tYWUnLCAnPG91dGZpbGUubWFlPic=

>  <s_epik_input>  (1) 
TzFbQ0gyXVtDSDJdT0MoPU8pYyhjMTIpW2NIXVtjSF1bY0hdYzJbQ0gzXQ==

>  <s_glide_docking_method>  (1) 
confgen

>  <s_i_glide_gridfile>  (1) 
gpcr_drd2_6luq_protein_autoprepared_prepared

>  <s_lp_Force_Field>  (1) 
S-OPLS

>  <s_lp_Variant>  (1) 
Pocket2Mol_89-1

>  <s_m_source_file>  (1) 
generated_generic_title2_ligand_Pocket2Mol_2026-06-23_prepared.sdf

>  <GenAI_Model>  (1) 
Pocket2Mol

>  <Protein>  (1) 
generic_title2

$$$$
Pocket2Mol_29
     RDKit          3D

  0  0  0  0  0  0  0  0  0  0999 V3000
M  V30 BEGIN CTAB
M  V30 COUNTS 18 18 0 0 1
M  V30 BEGIN ATOM
M  V30 1 C 12.481589 7.532864 -2.985379 0
M  V30 2 O 11.375411 6.790218 -3.480984 0
M  V30 3 C 11.283253 6.711520 -4.900826 0
M  V30 4 C 10.967957 8.033816 -5.638806 0
M  V30 5 O 11.201207 7.845369 -7.019604 0
M  V30 6 C 12.175449 9.034630 -2.835314 0
M  V30 7 C 11.758593 9.275614 -5.185309 0
M  V30 8 O 11.375410 9.601500 -3.863407 0
M  V30 9 H 12.728982 7.134988 -2.001111 0
M  V30 10 H 13.375336 7.374782 -3.585039 0
M  V30 11 H 10.483807 6.003707 -5.120865 0
M  V30 12 H 12.175410 6.239455 -5.297002 0
M  V30 13 H 9.905073 8.250994 -5.533407 0
M  V30 14 H 10.547750 7.248809 -7.356566 0
M  V30 15 H 11.660264 9.211011 -1.891339 0
M  V30 16 H 13.111563 9.589487 -2.784936 0
M  V30 17 H 12.840495 9.190200 -5.291448 0
M  V30 18 H 11.466068 10.120092 -5.810823 0
M  V30 END ATOM
M  V30 BEGIN BOND
M  V30 1 1 2 1
M  V30 2 1 3 2
M  V30 3 1 4 3
M  V30 4 1 5 4
M  V30 5 1 6 1
M  V30 6 1 7 4
M  V30 7 1 8 6
M  V30 8 1 8 7
M  V30 9 1 9 1
M  V30 10 1 10 1
M  V30 11 1 11 3
M  V30 12 1 12 3
M  V30 13 1 13 4
M  V30 14 1 14 5
M  V30 15 1 15 6
M  V30 16 1 16 6
M  V30 17 1 17 7
M  V30 18 1 18 7
M  V30 END BOND
M  V30 END CTAB
M  END
>  <i_epik_Tot_Q>  (1) 
0

>  <i_epik_Tot_abs_Q>  (1) 
0

>  <i_i_glide_confnum>  (1) 
2

>  <i_i_glide_lignum>  (1) 
33

>  <i_i_glide_posenum>  (1) 
90

>  <i_i_glide_rotatable_bonds>  (1) 
1

>  <i_lp_mmshare_version>  (1) 
72125

>  <i_m_source_file_index>  (1) 
30

>  <i_f3d_flags>  (1) 
0

>  <num_sample>  (1) 
100

>  <b_lp_Chiralities_Consistent>  (1) 
1

>  <r_epik_Charging_Adjusted_Penalty>  (1) 
0

>  <r_epik_Ionization_Penalty>  (1) 
1.4561355789117501e-07

>  <r_epik_Ionization_Penalty_Charging>  (1) 
0

>  <r_epik_Ionization_Penalty_Neutral>  (1) 
1.4561355789117501e-07

>  <r_epik_State_Penalty>  (1) 
-0

>  <r_glide_ring_energy>  (1) 
0.00017037653096552691

>  <r_i_docking_score>  (1) 
-5.2506403651654097

>  <r_i_glide_ecoul>  (1) 
-1.2046210101715922

>  <r_i_glide_eff_state_penalty>  (1) 
-0

>  <r_i_glide_einternal>  (1) 
0.74896412700369452

>  <r_i_glide_emodel>  (1) 
-26.568408132643562

>  <r_i_glide_emodel_strain>  (1) 
0.0017343272345105021

>  <r_i_glide_energy>  (1) 
-19.57486330912651

>  <r_i_glide_erotb>  (1) 
0

>  <r_i_glide_esite>  (1) 
0

>  <r_i_glide_evdw>  (1) 
-18.370242298954917

>  <r_i_glide_gscore>  (1) 
-5.2506403651654097

>  <r_i_glide_gscore_strain>  (1) 
0

>  <r_i_glide_hbond>  (1) 
0

>  <r_i_glide_ligand_efficiency>  (1) 
-0.65633004564567621

>  <r_i_glide_ligand_efficiency_ln>  (1) 
-1.7050625232200982

>  <r_i_glide_ligand_efficiency_sa>  (1) 
-1.3126600912913526

>  <r_i_glide_lipo>  (1) 
-1.5625826338385913

>  <r_i_glide_metal>  (1) 
-0

>  <r_i_glide_rewards>  (1) 
-2.5888524648533333

>  <r_lp_Energy>  (1) 
13.809562999999999

>  <r_lp_tautomer_probability>  (1) 
1

>  <s_epik_cmdline>  (1) 
J2VwaWtfcHl0aG9uJywgJy1waHQnLCAnMS4wJywgJy1waCcsICc3LjQnLCAnLXRuJywgJzgnLCAnLW1hJywgJzUwMCcsICctaW1hZScsICc8aW5maWxlLm1hZT4nLCAnLW9tYWUnLCAnPG91dGZpbGUubWFlPic=

>  <s_epik_input>  (1) 
W0NIMl0xT1tDSDJdW0NIMl1PW0NIMl1bQ0hdMVtPSF0=

>  <s_glide_docking_method>  (1) 
confgen

>  <s_i_glide_gridfile>  (1) 
gpcr_drd2_6luq_protein_autoprepared_prepared

>  <s_lp_Force_Field>  (1) 
S-OPLS

>  <s_lp_Variant>  (1) 
Pocket2Mol_29-1

>  <s_m_source_file>  (1) 
generated_generic_title2_ligand_Pocket2Mol_2026-06-23_prepared.sdf

>  <GenAI_Model>  (1) 
Pocket2Mol

>  <Protein>  (1) 
generic_title2

$$$$
Pocket2Mol_35
     RDKit          3D

  0  0  0  0  0  0  0  0  0  0999 V3000
M  V30 BEGIN CTAB
M  V30 COUNTS 16 17 0 0 1
M  V30 BEGIN ATOM
M  V30 1 C 12.430721 8.495640 -2.049454 0
M  V30 2 O 12.175511 9.590228 -3.013110 0
M  V30 3 C 11.782988 8.899850 -4.101655 0
M  V30 4 C 11.775410 7.565712 -3.985033 0
M  V30 5 C 11.370475 6.762276 -5.062647 0
M  V30 6 N 10.976255 7.283391 -6.255278 0
M  V30 7 C 10.987702 8.644580 -6.357259 0
M  V30 8 C 11.387321 9.497213 -5.301334 0
M  V30 9 C 12.192573 7.045144 -2.682982 0
M  V30 10 H 13.451671 8.587283 -1.680218 0
M  V30 11 H 11.775410 8.637285 -1.189213 0
M  V30 12 H 11.357251 5.686574 -4.974590 0
M  V30 13 H 10.670943 9.057589 -7.303315 0
M  V30 14 H 11.382836 10.570702 -5.416965 0
M  V30 15 H 11.393603 6.486338 -2.194321 0
M  V30 16 H 13.102479 6.450340 -2.751409 0
M  V30 END ATOM
M  V30 BEGIN BOND
M  V30 1 1 2 1
M  V30 2 1 3 2
M  V30 3 2 4 3
M  V30 4 1 5 4
M  V30 5 2 6 5
M  V30 6 1 7 6
M  V30 7 1 8 3
M  V30 8 2 8 7
M  V30 9 1 9 1
M  V30 10 1 9 4
M  V30 11 1 10 1
M  V30 12 1 11 1
M  V30 13 1 12 5
M  V30 14 1 13 7
M  V30 15 1 14 8
M  V30 16 1 15 9
M  V30 17 1 16 9
M  V30 END BOND
M  V30 END CTAB
M  END
>  <i_epik_Tot_Q>  (1) 
0

>  <i_epik_Tot_abs_Q>  (1) 
0

>  <i_i_glide_confnum>  (1) 
1

>  <i_i_glide_lignum>  (1) 
40

>  <i_i_glide_posenum>  (1) 
165

>  <i_i_glide_rotatable_bonds>  (1) 
0

>  <i_lp_mmshare_version>  (1) 
72125

>  <i_m_source_file_index>  (1) 
36

>  <i_f3d_flags>  (1) 
0

>  <num_sample>  (1) 
100

>  <b_lp_Chiralities_Consistent>  (1) 
1

>  <r_epik_Charging_Adjusted_Penalty>  (1) 
0.44367302241175355

>  <r_epik_Ionization_Penalty>  (1) 
0.44367302241175355

>  <r_epik_Ionization_Penalty_Charging>  (1) 
0

>  <r_epik_Ionization_Penalty_Neutral>  (1) 
0.44367302241175355

>  <r_epik_State_Penalty>  (1) 
0.44367302241175355

>  <r_glide_ring_energy>  (1) 
0

>  <r_i_docking_score>  (1) 
-5.2502649583032692

>  <r_i_glide_ecoul>  (1) 
0.025378896753100455

>  <r_i_glide_eff_state_penalty>  (1) 
0.44367302241175355

>  <r_i_glide_einternal>  (1) 
0

>  <r_i_glide_emodel>  (1) 
-28.249506100271599

>  <r_i_glide_emodel_strain>  (1) 
0

>  <r_i_glide_energy>  (1) 
-20.727736035533731

>  <r_i_glide_erotb>  (1) 
0

>  <r_i_glide_esite>  (1) 
0

>  <r_i_glide_evdw>  (1) 
-20.753114932286831

>  <r_i_glide_gscore>  (1) 
-5.693937980715023

>  <r_i_glide_gscore_strain>  (1) 
0

>  <r_i_glide_hbond>  (1) 
0

>  <r_i_glide_ligand_efficiency>  (1) 
-0.58336277314480767

>  <r_i_glide_ligand_efficiency_ln>  (1) 
-1.6421320527560652

>  <r_i_glide_ligand_efficiency_sa>  (1) 
-1.2134434673892125

>  <r_i_glide_lipo>  (1) 
-2.0017557352803133

>  <r_i_glide_metal>  (1) 
-0

>  <r_i_glide_rewards>  (1) 
-2.6583333333333332

>  <r_lp_Energy>  (1) 
12.810587999999999

>  <s_epik_cmdline>  (1) 
J2VwaWtfcHl0aG9uJywgJy1waHQnLCAnMS4wJywgJy1waCcsICc3LjQnLCAnLXRuJywgJzgnLCAnLW1hJywgJzUwMCcsICctaW1hZScsICc8aW5maWxlLm1hZT4nLCAnLW9tYWUnLCAnPG91dGZpbGUubWFlPic=

>  <s_epik_input>  (1) 
TzFbQ0gyXVtDSDJdYyhjMTIpW2NIXW5bY0hdW2NIXTI=

>  <s_glide_docking_method>  (1) 
confgen

>  <s_i_glide_gridfile>  (1) 
gpcr_drd2_6luq_protein_autoprepared_prepared

>  <s_lp_Force_Field>  (1) 
S-OPLS

>  <s_lp_Variant>  (1) 
Pocket2Mol_35-2

>  <s_m_source_file>  (1) 
generated_generic_title2_ligand_Pocket2Mol_2026-06-23_prepared.sdf

>  <GenAI_Model>  (1) 
Pocket2Mol

>  <Protein>  (1) 
generic_title2

$$$$
Pocket2Mol_71
     RDKit          3D

  0  0  0  0  0  0  0  0  0  0999 V3000
M  V30 BEGIN CTAB
M  V30 COUNTS 16 17 0 0 1
M  V30 BEGIN ATOM
M  V30 1 C 10.028843 7.010790 -10.992023 0
M  V30 2 O 10.874142 7.890108 -10.384478 0
M  V30 3 C 10.898657 7.823955 -8.985668 0
M  V30 4 C 10.164505 6.788997 -8.275561 0
M  V30 5 C 10.225646 6.788899 -6.862530 0
M  V30 6 C 11.639721 8.781208 -8.271335 0
M  V30 7 C 11.677469 8.748534 -6.869878 0
M  V30 8 N 9.429974 5.852308 -8.933399 0 CHG=-1
M  V30 9 C 9.375410 6.076379 -10.251370 0
M  V30 10 F 12.393850 9.675740 -6.190346 0
M  V30 11 C 10.974510 7.757588 -6.169077 0
M  V30 12 H 9.950618 7.149680 -12.058515 0
M  V30 13 H 9.686403 6.035138 -6.305535 0
M  V30 14 H 12.176984 9.547616 -8.805789 0
M  V30 15 H 8.700747 5.393616 -10.810479 0
M  V30 16 H 11.006119 7.738924 -5.090997 0
M  V30 END ATOM
M  V30 BEGIN BOND
M  V30 1 1 2 1
M  V30 2 1 3 2
M  V30 3 2 4 3
M  V30 4 1 5 4
M  V30 5 1 6 3
M  V30 6 2 7 6
M  V30 7 1 8 4
M  V30 8 2 9 1
M  V30 9 1 9 8
M  V30 10 1 10 7
M  V30 11 2 11 5
M  V30 12 1 11 7
M  V30 13 1 12 1
M  V30 14 1 13 5
M  V30 15 1 14 6
M  V30 16 1 15 9
M  V30 17 1 16 11
M  V30 END BOND
M  V30 END CTAB
M  END
>  <i_epik_Tot_Q>  (1) 
-1

>  <i_epik_Tot_abs_Q>  (1) 
1

>  <i_i_glide_confnum>  (1) 
1

>  <i_i_glide_lignum>  (1) 
78

>  <i_i_glide_posenum>  (1) 
237

>  <i_i_glide_rotatable_bonds>  (1) 
0

>  <i_lp_mmshare_version>  (1) 
72125

>  <i_m_source_file_index>  (1) 
72

>  <i_f3d_flags>  (1) 
0

>  <num_sample>  (1) 
100

>  <b_lp_Chiralities_Consistent>  (1) 
1

>  <r_epik_Charging_Adjusted_Penalty>  (1) 
0.017639978051431922

>  <r_epik_Ionization_Penalty>  (1) 
0.017639978051431908

>  <r_epik_Ionization_Penalty_Charging>  (1) 
0

>  <r_epik_Ionization_Penalty_Neutral>  (1) 
0.017639978051431908

>  <r_epik_State_Penalty>  (1) 
0.017639978051431922

>  <r_glide_ring_energy>  (1) 
0

>  <r_i_docking_score>  (1) 
-5.2492019619312051

>  <r_i_glide_ecoul>  (1) 
-0.92596554142921272

>  <r_i_glide_eff_state_penalty>  (1) 
0.017639978051431922

>  <r_i_glide_einternal>  (1) 
0

>  <r_i_glide_emodel>  (1) 
-26.315558323731718

>  <r_i_glide_emodel_strain>  (1) 
0

>  <r_i_glide_energy>  (1) 
-19.084147263605086

>  <r_i_glide_erotb>  (1) 
0

>  <r_i_glide_esite>  (1) 
0

>  <r_i_glide_evdw>  (1) 
-18.158181722175872

>  <r_i_glide_gscore>  (1) 
-5.2668419399826369

>  <r_i_glide_gscore_strain>  (1) 
0

>  <r_i_glide_hbond>  (1) 
0

>  <r_i_glide_ligand_efficiency>  (1) 
-0.47720017835738227

>  <r_i_glide_ligand_efficiency_ln>  (1) 
-1.5448392432672513

>  <r_i_glide_ligand_efficiency_sa>  (1) 
-1.0612836958829448

>  <r_i_glide_lipo>  (1) 
-0.93764084877241194

>  <r_i_glide_metal>  (1) 
-0

>  <r_i_glide_rewards>  (1) 
-3.2823971738870492

>  <r_lp_Energy>  (1) 
25.3598

>  <s_epik_Chemistry_Notes>  (1) 
This compound has an imine and may undergo hydrolysis.

>  <s_epik_cmdline>  (1) 
J2VwaWtfcHl0aG9uJywgJy1waHQnLCAnMS4wJywgJy1waCcsICc3LjQnLCAnLXRuJywgJzgnLCAnLW1hJywgJzUwMCcsICctaW1hZScsICc8aW5maWxlLm1hZT4nLCAnLW9tYWUnLCAnPG91dGZpbGUubWFlPic=

>  <s_epik_input>  (1) 
TzFbQ0gyXVtDSF09TmMoYzEyKVtjSF1bY0hdYyhGKVtjSF0y

>  <s_glide_docking_method>  (1) 
confgen

>  <s_i_glide_gridfile>  (1) 
gpcr_drd2_6luq_protein_autoprepared_prepared

>  <s_lp_Force_Field>  (1) 
S-OPLS

>  <s_lp_Variant>  (1) 
Pocket2Mol_71-1

>  <s_m_source_file>  (1) 
generated_generic_title2_ligand_Pocket2Mol_2026-06-23_prepared.sdf

>  <GenAI_Model>  (1) 
Pocket2Mol

>  <Protein>  (1) 
generic_title2

$$$$
Pocket2Mol_59
     RDKit          3D

  0  0  0  0  0  0  0  0  0  0999 V3000
M  V30 BEGIN CTAB
M  V30 COUNTS 17 18 0 0 1
M  V30 BEGIN ATOM
M  V30 1 C 9.227187 5.912569 -10.210940 0
M  V30 2 O 10.175426 7.030775 -10.402435 0
M  V30 3 C 10.452178 7.377610 -9.125899 0
M  V30 4 C 9.850048 6.660458 -8.177016 0
M  V30 5 C 10.055042 6.930914 -6.812657 0
M  V30 6 N 10.900666 7.957467 -6.427798 0 CHG=1
M  V30 7 C 8.975411 5.590230 -8.667232 0
M  V30 8 O 11.100155 8.217185 -5.185036 0 CHG=-1
M  V30 9 C 11.530075 8.699376 -7.418275 0
M  V30 10 C 11.309013 8.414014 -8.786097 0
M  V30 11 H 9.611503 5.028960 -10.722057 0
M  V30 12 H 8.285410 6.168487 -10.697762 0
M  V30 13 H 9.594342 6.390230 -5.999841 0
M  V30 14 H 9.338702 4.604985 -8.375053 0
M  V30 15 H 7.937434 5.730306 -8.364343 0
M  V30 16 H 12.175409 9.482970 -7.053088 0
M  V30 17 H 11.798593 8.994897 -9.554210 0
M  V30 END ATOM
M  V30 BEGIN BOND
M  V30 1 1 2 1
M  V30 2 1 3 2
M  V30 3 2 4 3
M  V30 4 1 5 4
M  V30 5 2 6 5
M  V30 6 1 7 1
M  V30 7 1 7 4
M  V30 8 1 8 6
M  V30 9 1 9 6
M  V30 10 1 10 3
M  V30 11 2 10 9
M  V30 12 1 11 1
M  V30 13 1 12 1
M  V30 14 1 13 5
M  V30 15 1 14 7
M  V30 16 1 15 7
M  V30 17 1 16 9
M  V30 18 1 17 10
M  V30 END BOND
M  V30 END CTAB
M  END
>  <i_epik_Tot_Q>  (1) 
0

>  <i_epik_Tot_abs_Q>  (1) 
2

>  <i_i_glide_confnum>  (1) 
1

>  <i_i_glide_lignum>  (1) 
66

>  <i_i_glide_posenum>  (1) 
218

>  <i_i_glide_rotatable_bonds>  (1) 
0

>  <i_lp_mmshare_version>  (1) 
72125

>  <i_m_source_file_index>  (1) 
60

>  <i_f3d_flags>  (1) 
0

>  <num_sample>  (1) 
100

>  <b_lp_Chiralities_Consistent>  (1) 
1

>  <r_epik_Charging_Adjusted_Penalty>  (1) 
1.5203065777176405e-06

>  <r_epik_Ionization_Penalty>  (1) 
1.5203065777176405e-06

>  <r_epik_Ionization_Penalty_Charging>  (1) 
1.5203065777176405e-06

>  <r_epik_Ionization_Penalty_Neutral>  (1) 
0

>  <r_epik_State_Penalty>  (1) 
-0

>  <r_glide_ring_energy>  (1) 
0

>  <r_i_docking_score>  (1) 
-5.2460233823472535

>  <r_i_glide_ecoul>  (1) 
-3.8784716489012339

>  <r_i_glide_eff_state_penalty>  (1) 
-0

>  <r_i_glide_einternal>  (1) 
0

>  <r_i_glide_emodel>  (1) 
-28.651375806485319

>  <r_i_glide_emodel_strain>  (1) 
0

>  <r_i_glide_energy>  (1) 
-20.991685289079516

>  <r_i_glide_erotb>  (1) 
0

>  <r_i_glide_esite>  (1) 
0

>  <r_i_glide_evdw>  (1) 
-17.113213640178284

>  <r_i_glide_gscore>  (1) 
-5.2460233823472535

>  <r_i_glide_gscore_strain>  (1) 
0

>  <r_i_glide_hbond>  (1) 
0

>  <r_i_glide_ligand_efficiency>  (1) 
-0.52460233823472535

>  <r_i_glide_ligand_efficiency_ln>  (1) 
-1.588459717048905

>  <r_i_glide_ligand_efficiency_sa>  (1) 
-1.130221475964732

>  <r_i_glide_lipo>  (1) 
-0.59321706062942348

>  <r_i_glide_metal>  (1) 
-0

>  <r_i_glide_rewards>  (1) 
-3.2153748923737311

>  <r_lp_Energy>  (1) 
12.910414999999999

>  <r_lp_tautomer_probability>  (1) 
1

>  <s_epik_cmdline>  (1) 
J2VwaWtfcHl0aG9uJywgJy1waHQnLCAnMS4wJywgJy1waCcsICc3LjQnLCAnLXRuJywgJzgnLCAnLW1hJywgJzUwMCcsICctaW1hZScsICc8aW5maWxlLm1hZT4nLCAnLW9tYWUnLCAnPG91dGZpbGUubWFlPic=

>  <s_epik_input>  (1) 
TzFbQ0gyXVtDSDJdYyhjMTIpW2NIXVtuK10oW08tXSlbY0hdW2NIXTI=

>  <s_glide_docking_method>  (1) 
confgen

>  <s_i_glide_gridfile>  (1) 
gpcr_drd2_6luq_protein_autoprepared_prepared

>  <s_lp_Force_Field>  (1) 
S-OPLS

>  <s_lp_Variant>  (1) 
Pocket2Mol_59-1

>  <s_m_source_file>  (1) 
generated_generic_title2_ligand_Pocket2Mol_2026-06-23_prepared.sdf

>  <GenAI_Model>  (1) 
Pocket2Mol

>  <Protein>  (1) 
generic_title2

$$$$
Pocket2Mol_72
     RDKit          3D

  0  0  0  0  0  0  0  0  0  0999 V3000
M  V30 BEGIN CTAB
M  V30 COUNTS 18 19 0 0 1
M  V30 BEGIN ATOM
M  V30 1 C 11.375408 8.634240 -5.036023 0
M  V30 2 O 10.271052 7.929465 -5.585024 0
M  V30 3 C 10.315012 7.660280 -6.931374 0
M  V30 4 C 9.398422 6.747979 -7.487329 0
M  V30 5 C 11.803498 9.750157 -5.986069 0
M  V30 6 C 11.271728 8.297685 -7.764101 0
M  V30 7 O 12.175346 9.190227 -7.233235 0
M  V30 8 C 9.428512 6.469089 -8.866421 0
M  V30 9 C 11.296302 8.015615 -9.143955 0
M  V30 10 F 12.207402 8.620582 -9.942472 0
M  V30 11 C 10.372565 7.106692 -9.694398 0
M  V30 12 H 11.075462 9.071959 -4.084865 0
M  V30 13 H 12.175406 7.934161 -4.814032 0
M  V30 14 H 8.667547 6.264517 -6.854962 0
M  V30 15 H 10.994847 10.467638 -6.128620 0
M  V30 16 H 12.656081 10.294628 -5.583835 0
M  V30 17 H 8.720200 5.772135 -9.291415 0
M  V30 18 H 10.389572 6.894119 -10.752961 0
M  V30 END ATOM
M  V30 BEGIN BOND
M  V30 1 1 2 1
M  V30 2 1 3 2
M  V30 3 2 4 3
M  V30 4 1 5 1
M  V30 5 1 6 3
M  V30 6 1 7 5
M  V30 7 1 7 6
M  V30 8 1 8 4
M  V30 9 2 9 6
M  V30 10 1 10 9
M  V30 11 2 11 8
M  V30 12 1 11 9
M  V30 13 1 12 1
M  V30 14 1 13 1
M  V30 15 1 14 4
M  V30 16 1 15 5
M  V30 17 1 16 5
M  V30 18 1 17 8
M  V30 19 1 18 11
M  V30 END BOND
M  V30 END CTAB
M  END
>  <i_epik_Tot_Q>  (1) 
0

>  <i_epik_Tot_abs_Q>  (1) 
0

>  <i_i_glide_confnum>  (1) 
2

>  <i_i_glide_lignum>  (1) 
79

>  <i_i_glide_posenum>  (1) 
313

>  <i_i_glide_rotatable_bonds>  (1) 
0

>  <i_lp_mmshare_version>  (1) 
72125

>  <i_m_source_file_index>  (1) 
73

>  <i_f3d_flags>  (1) 
0

>  <num_sample>  (1) 
100

>  <b_lp_Chiralities_Consistent>  (1) 
1

>  <r_epik_Charging_Adjusted_Penalty>  (1) 
0

>  <r_epik_Ionization_Penalty>  (1) 
0

>  <r_epik_Ionization_Penalty_Charging>  (1) 
0

>  <r_epik_Ionization_Penalty_Neutral>  (1) 
0

>  <r_epik_State_Penalty>  (1) 
-0

>  <r_glide_ring_energy>  (1) 
0.0030882705297212471

>  <r_i_docking_score>  (1) 
-5.2346312995393269

>  <r_i_glide_ecoul>  (1) 
0.072110178480060683

>  <r_i_glide_eff_state_penalty>  (1) 
-0

>  <r_i_glide_einternal>  (1) 
0

>  <r_i_glide_emodel>  (1) 
-25.493151698969733

>  <r_i_glide_emodel_strain>  (1) 
2.0927917177004929e-09

>  <r_i_glide_energy>  (1) 
-18.640774959783688

>  <r_i_glide_erotb>  (1) 
0

>  <r_i_glide_esite>  (1) 
0

>  <r_i_glide_evdw>  (1) 
-18.712885138263747

>  <r_i_glide_gscore>  (1) 
-5.2346312995393269

>  <r_i_glide_gscore_strain>  (1) 
0

>  <r_i_glide_hbond>  (1) 
0

>  <r_i_glide_ligand_efficiency>  (1) 
-0.47587557268539338

>  <r_i_glide_ligand_efficiency_ln>  (1) 
-1.5405510998072327

>  <r_i_glide_ligand_efficiency_sa>  (1) 
-1.058337799240586

>  <r_i_glide_lipo>  (1) 
-1.0308993039188281

>  <r_i_glide_metal>  (1) 
-0

>  <r_i_glide_rewards>  (1) 
-3.2789042654793206

>  <r_lp_Energy>  (1) 
17.335863

>  <r_lp_tautomer_probability>  (1) 
1

>  <s_epik_cmdline>  (1) 
J2VwaWtfcHl0aG9uJywgJy1waHQnLCAnMS4wJywgJy1waCcsICc3LjQnLCAnLXRuJywgJzgnLCAnLW1hJywgJzUwMCcsICctaW1hZScsICc8aW5maWxlLm1hZT4nLCAnLW9tYWUnLCAnPG91dGZpbGUubWFlPic=

>  <s_epik_input>  (1) 
TzFbQ0gyXVtDSDJdT2MoYzEyKWMoRilbY0hdW2NIXVtjSF0y

>  <s_glide_docking_method>  (1) 
confgen

>  <s_i_glide_gridfile>  (1) 
gpcr_drd2_6luq_protein_autoprepared_prepared

>  <s_lp_Force_Field>  (1) 
S-OPLS

>  <s_lp_Variant>  (1) 
Pocket2Mol_72-1

>  <s_m_source_file>  (1) 
generated_generic_title2_ligand_Pocket2Mol_2026-06-23_prepared.sdf

>  <GenAI_Model>  (1) 
Pocket2Mol

>  <Protein>  (1) 
generic_title2

$$$$
Pocket2Mol_45
     RDKit          3D

  0  0  0  0  0  0  0  0  0  0999 V3000
M  V30 BEGIN CTAB
M  V30 COUNTS 14 15 0 0 1
M  V30 BEGIN ATOM
M  V30 1 C 9.816849 7.459202 -7.373197 0
M  V30 2 O 10.199743 6.451224 -6.385183 0
M  V30 3 C 10.883167 7.229174 -5.543055 0
M  V30 4 C 10.958596 8.498763 -5.901011 0
M  V30 5 C 11.649465 9.426613 -5.103557 0
M  V30 6 N 12.264441 9.073315 -3.938281 0
M  V30 7 C 12.175370 7.753987 -3.585407 0
M  V30 8 C 11.487192 6.790204 -4.364545 0
M  V30 9 O 10.336009 8.790224 -7.045283 0
M  V30 10 H 10.196529 7.158461 -8.351759 0
M  V30 11 H 8.727639 7.502746 -7.423680 0
M  V30 12 H 11.713987 10.465157 -5.392876 0
M  V30 13 H 12.662584 7.468428 -2.663789 0
M  V30 14 H 11.432266 5.754855 -4.060532 0
M  V30 END ATOM
M  V30 BEGIN BOND
M  V30 1 1 2 1
M  V30 2 1 3 2
M  V30 3 2 4 3
M  V30 4 1 5 4
M  V30 5 2 6 5
M  V30 6 1 7 6
M  V30 7 1 8 3
M  V30 8 2 8 7
M  V30 9 1 9 1
M  V30 10 1 9 4
M  V30 11 1 10 1
M  V30 12 1 11 1
M  V30 13 1 12 5
M  V30 14 1 13 7
M  V30 15 1 14 8
M  V30 END BOND
M  V30 END CTAB
M  END
>  <i_epik_Tot_Q>  (1) 
0

>  <i_epik_Tot_abs_Q>  (1) 
0

>  <i_i_glide_confnum>  (1) 
1

>  <i_i_glide_lignum>  (1) 
50

>  <i_i_glide_posenum>  (1) 
286

>  <i_i_glide_rotatable_bonds>  (1) 
0

>  <i_lp_mmshare_version>  (1) 
72125

>  <i_m_source_file_index>  (1) 
46

>  <i_f3d_flags>  (1) 
0

>  <num_sample>  (1) 
100

>  <b_lp_Chiralities_Consistent>  (1) 
1

>  <r_epik_Charging_Adjusted_Penalty>  (1) 
0.069790075728531922

>  <r_epik_Ionization_Penalty>  (1) 
0.069790075728531936

>  <r_epik_Ionization_Penalty_Charging>  (1) 
0

>  <r_epik_Ionization_Penalty_Neutral>  (1) 
0.069790075728531936

>  <r_epik_State_Penalty>  (1) 
0.069790075728531922

>  <r_glide_ring_energy>  (1) 
0

>  <r_i_docking_score>  (1) 
-5.2345091470806411

>  <r_i_glide_ecoul>  (1) 
-1.0838278060774837

>  <r_i_glide_eff_state_penalty>  (1) 
0.069790075728531922

>  <r_i_glide_einternal>  (1) 
0

>  <r_i_glide_emodel>  (1) 
-27.344562849260093

>  <r_i_glide_emodel_strain>  (1) 
6.6280989585720818e-09

>  <r_i_glide_energy>  (1) 
-20.366536897357907

>  <r_i_glide_erotb>  (1) 
0

>  <r_i_glide_esite>  (1) 
-0.056955012846056342

>  <r_i_glide_evdw>  (1) 
-19.282709091280424

>  <r_i_glide_gscore>  (1) 
-5.3042992228091732

>  <r_i_glide_gscore_strain>  (1) 
0

>  <r_i_glide_hbond>  (1) 
0

>  <r_i_glide_ligand_efficiency>  (1) 
-0.58161212745340451

>  <r_i_glide_ligand_efficiency_ln>  (1) 
-1.6372040876283371

>  <r_i_glide_ligand_efficiency_sa>  (1) 
-1.2098019776066293

>  <r_i_glide_lipo>  (1) 
-1.403366638161897

>  <r_i_glide_metal>  (1) 
-0

>  <r_i_glide_rewards>  (1) 
-2.7172679463255753

>  <r_lp_Energy>  (1) 
21.238785

>  <r_lp_tautomer_probability>  (1) 
1

>  <s_epik_Chemistry_Notes>  (1) 
This compound contains an acetal/aminal-like group ( X-CH(R)-Y where X, Y are N, S, or O) that may be acid/base labile, releasing an aldehyde.

>  <s_epik_cmdline>  (1) 
J2VwaWtfcHl0aG9uJywgJy1waHQnLCAnMS4wJywgJy1waCcsICc3LjQnLCAnLXRuJywgJzgnLCAnLW1hJywgJzUwMCcsICctaW1hZScsICc8aW5maWxlLm1hZT4nLCAnLW9tYWUnLCAnPG91dGZpbGUubWFlPic=

>  <s_epik_input>  (1) 
TzFbQ0gyXU9jKGMxMilbY0hdbltjSF1bY0hdMg==

>  <s_glide_docking_method>  (1) 
confgen

>  <s_i_glide_gridfile>  (1) 
gpcr_drd2_6luq_protein_autoprepared_prepared

>  <s_lp_Force_Field>  (1) 
S-OPLS

>  <s_lp_Variant>  (1) 
Pocket2Mol_45-1

>  <s_m_source_file>  (1) 
generated_generic_title2_ligand_Pocket2Mol_2026-06-23_prepared.sdf

>  <GenAI_Model>  (1) 
Pocket2Mol

>  <Protein>  (1) 
generic_title2

$$$$
Pocket2Mol_45
     RDKit          3D

  0  0  0  0  0  0  0  0  0  0999 V3000
M  V30 BEGIN CTAB
M  V30 COUNTS 14 15 0 0 1
M  V30 BEGIN ATOM
M  V30 1 C 9.773871 7.468470 -7.392657 0
M  V30 2 O 10.324266 8.790227 -7.085172 0
M  V30 3 C 10.949476 8.497931 -5.943668 0
M  V30 4 C 10.857607 7.232541 -5.572617 0
M  V30 5 C 11.463925 6.790229 -4.385116 0
M  V30 6 N 12.175411 7.626148 -3.572815 0
M  V30 7 C 12.253810 8.932474 -3.973089 0
M  V30 8 C 11.653020 9.416276 -5.160926 0
M  V30 9 O 10.155396 6.459230 -6.403835 0
M  V30 10 H 8.684259 7.536791 -7.417036 0
M  V30 11 H 10.116982 7.154306 -8.379069 0
M  V30 12 H 11.388969 5.758762 -4.076454 0
M  V30 13 H 12.810257 9.598643 -3.330657 0
M  V30 14 H 11.734324 10.453477 -5.449705 0
M  V30 END ATOM
M  V30 BEGIN BOND
M  V30 1 1 2 1
M  V30 2 1 3 2
M  V30 3 2 4 3
M  V30 4 1 5 4
M  V30 5 2 6 5
M  V30 6 1 7 6
M  V30 7 1 8 3
M  V30 8 2 8 7
M  V30 9 1 9 1
M  V30 10 1 9 4
M  V30 11 1 10 1
M  V30 12 1 11 1
M  V30 13 1 12 5
M  V30 14 1 13 7
M  V30 15 1 14 8
M  V30 END BOND
M  V30 END CTAB
M  END
>  <i_epik_Tot_Q>  (1) 
0

>  <i_epik_Tot_abs_Q>  (1) 
0

>  <i_i_glide_confnum>  (1) 
1

>  <i_i_glide_lignum>  (1) 
50

>  <i_i_glide_posenum>  (1) 
243

>  <i_i_glide_rotatable_bonds>  (1) 
0

>  <i_lp_mmshare_version>  (1) 
72125

>  <i_m_source_file_index>  (1) 
46

>  <i_f3d_flags>  (1) 
0

>  <num_sample>  (1) 
100

>  <b_lp_Chiralities_Consistent>  (1) 
1

>  <r_epik_Charging_Adjusted_Penalty>  (1) 
0.069790075728531922

>  <r_epik_Ionization_Penalty>  (1) 
0.069790075728531936

>  <r_epik_Ionization_Penalty_Charging>  (1) 
0

>  <r_epik_Ionization_Penalty_Neutral>  (1) 
0.069790075728531936

>  <r_epik_State_Penalty>  (1) 
0.069790075728531922

>  <r_glide_ring_energy>  (1) 
0

>  <r_i_docking_score>  (1) 
-5.2233563904700997

>  <r_i_glide_ecoul>  (1) 
-0.88827349548192691

>  <r_i_glide_eff_state_penalty>  (1) 
0.069790075728531922

>  <r_i_glide_einternal>  (1) 
0

>  <r_i_glide_emodel>  (1) 
-27.276858167282651

>  <r_i_glide_emodel_strain>  (1) 
0

>  <r_i_glide_energy>  (1) 
-20.313504123338721

>  <r_i_glide_erotb>  (1) 
0

>  <r_i_glide_esite>  (1) 
-0.061934841974934388

>  <r_i_glide_evdw>  (1) 
-19.425230627856795

>  <r_i_glide_gscore>  (1) 
-5.2931464661986318

>  <r_i_glide_gscore_strain>  (1) 
0

>  <r_i_glide_hbond>  (1) 
0

>  <r_i_glide_ligand_efficiency>  (1) 
-0.58037293227445552

>  <r_i_glide_ligand_efficiency_ln>  (1) 
-1.6337158257497069

>  <r_i_glide_ligand_efficiency_sa>  (1) 
-1.2072243477612934

>  <r_i_glide_lipo>  (1) 
-1.404202771657459

>  <r_i_glide_metal>  (1) 
-0

>  <r_i_glide_rewards>  (1) 
-2.72250629685111

>  <r_lp_Energy>  (1) 
21.238785

>  <r_lp_tautomer_probability>  (1) 
1

>  <s_epik_Chemistry_Notes>  (1) 
This compound contains an acetal/aminal-like group ( X-CH(R)-Y where X, Y are N, S, or O) that may be acid/base labile, releasing an aldehyde.

>  <s_epik_cmdline>  (1) 
J2VwaWtfcHl0aG9uJywgJy1waHQnLCAnMS4wJywgJy1waCcsICc3LjQnLCAnLXRuJywgJzgnLCAnLW1hJywgJzUwMCcsICctaW1hZScsICc8aW5maWxlLm1hZT4nLCAnLW9tYWUnLCAnPG91dGZpbGUubWFlPic=

>  <s_epik_input>  (1) 
TzFbQ0gyXU9jKGMxMilbY0hdbltjSF1bY0hdMg==

>  <s_glide_docking_method>  (1) 
confgen

>  <s_i_glide_gridfile>  (1) 
gpcr_drd2_6luq_protein_autoprepared_prepared

>  <s_lp_Force_Field>  (1) 
S-OPLS

>  <s_lp_Variant>  (1) 
Pocket2Mol_45-1

>  <s_m_source_file>  (1) 
generated_generic_title2_ligand_Pocket2Mol_2026-06-23_prepared.sdf

>  <GenAI_Model>  (1) 
Pocket2Mol

>  <Protein>  (1) 
generic_title2

$$$$
Pocket2Mol_82
     RDKit          3D

  0  0  0  0  0  0  0  0  0  0999 V3000
M  V30 BEGIN CTAB
M  V30 COUNTS 22 23 0 0 1
M  V30 BEGIN ATOM
M  V30 1 C 9.506723 6.360144 -9.606514 0
M  V30 2 O 10.174455 7.678153 -9.596572 0
M  V30 3 C 10.576052 7.759158 -8.309954 0
M  V30 4 C 10.152110 6.769650 -7.498129 0
M  V30 5 C 10.521088 6.719123 -6.143848 0
M  V30 6 C 9.301042 5.768157 -8.138920 0
M  V30 7 C 11.358157 7.735597 -5.621511 0
M  V30 8 O 11.781144 7.706973 -4.304750 0
M  V30 9 C 11.775787 8.790121 -6.471994 0
M  V30 10 O 12.569702 9.784396 -5.985024 0
M  V30 11 C 11.387212 8.793939 -7.829216 0
M  V30 12 C 11.725740 6.463643 -3.598302 0
M  V30 13 H 10.158446 5.689227 -10.162694 0
M  V30 14 H 8.578420 6.393447 -10.167726 0
M  V30 15 H 10.175965 5.914591 -5.518790 0
M  V30 16 H 9.682061 4.759031 -8.008869 0
M  V30 17 H 8.269700 5.850423 -7.792848 0
M  V30 18 H 12.749173 9.647827 -5.066396 0
M  V30 19 H 11.714558 9.584466 -8.490171 0
M  V30 20 H 12.280267 6.567641 -2.665911 0
M  V30 21 H 10.699065 6.212260 -3.330895 0
M  V30 22 H 12.166447 5.613532 -4.138660 0
M  V30 END ATOM
M  V30 BEGIN BOND
M  V30 1 1 2 1
M  V30 2 1 3 2
M  V30 3 1 4 3
M  V30 4 2 5 4
M  V30 5 1 6 1
M  V30 6 1 6 4
M  V30 7 1 7 5
M  V30 8 1 8 7
M  V30 9 2 9 7
M  V30 10 1 10 9
M  V30 11 2 11 3
M  V30 12 1 11 9
M  V30 13 1 12 8
M  V30 14 1 13 1
M  V30 15 1 14 1
M  V30 16 1 15 5
M  V30 17 1 16 6
M  V30 18 1 17 6
M  V30 19 1 18 10
M  V30 20 1 19 11
M  V30 21 1 20 12
M  V30 22 1 21 12
M  V30 23 1 22 12
M  V30 END BOND
M  V30 END CTAB
M  END
>  <i_epik_Tot_Q>  (1) 
0

>  <i_epik_Tot_abs_Q>  (1) 
0

>  <i_i_glide_confnum>  (1) 
1

>  <i_i_glide_lignum>  (1) 
89

>  <i_i_glide_posenum>  (1) 
312

>  <i_i_glide_rotatable_bonds>  (1) 
2

>  <i_lp_mmshare_version>  (1) 
72125

>  <i_m_source_file_index>  (1) 
83

>  <i_f3d_flags>  (1) 
0

>  <num_sample>  (1) 
100

>  <b_lp_Chiralities_Consistent>  (1) 
1

>  <r_epik_Charging_Adjusted_Penalty>  (1) 
0

>  <r_epik_Ionization_Penalty>  (1) 
0.0019697177408658601

>  <r_epik_Ionization_Penalty_Charging>  (1) 
0

>  <r_epik_Ionization_Penalty_Neutral>  (1) 
0.0019697177408658601

>  <r_epik_State_Penalty>  (1) 
-0

>  <r_glide_ring_energy>  (1) 
0

>  <r_i_docking_score>  (1) 
-5.221101129985013

>  <r_i_glide_ecoul>  (1) 
-1.6616305510790481

>  <r_i_glide_eff_state_penalty>  (1) 
-0

>  <r_i_glide_einternal>  (1) 
0.01831379758896956

>  <r_i_glide_emodel>  (1) 
-29.163001795091962

>  <r_i_glide_emodel_strain>  (1) 
0.026327149601094391

>  <r_i_glide_energy>  (1) 
-21.871157197424054

>  <r_i_glide_erotb>  (1) 
0

>  <r_i_glide_esite>  (1) 
0

>  <r_i_glide_evdw>  (1) 
-20.209526646345005

>  <r_i_glide_gscore>  (1) 
-5.221101129985013

>  <r_i_glide_gscore_strain>  (1) 
0

>  <r_i_glide_hbond>  (1) 
0

>  <r_i_glide_ligand_efficiency>  (1) 
-0.4350917608320844

>  <r_i_glide_ligand_efficiency_ln>  (1) 
-1.4982040136721113

>  <r_i_glide_ligand_efficiency_sa>  (1) 
-0.99611147088418994

>  <r_i_glide_lipo>  (1) 
-1.2325335078675517

>  <r_i_glide_metal>  (1) 
-0

>  <r_i_glide_rewards>  (1) 
-2.728846707138354

>  <r_lp_Energy>  (1) 
16.449425999999999

>  <r_lp_tautomer_probability>  (1) 
1

>  <s_epik_cmdline>  (1) 
J2VwaWtfcHl0aG9uJywgJy1waHQnLCAnMS4wJywgJy1waCcsICc3LjQnLCAnLXRuJywgJzgnLCAnLW1hJywgJzUwMCcsICctaW1hZScsICc8aW5maWxlLm1hZT4nLCAnLW9tYWUnLCAnPG91dGZpbGUubWFlPic=

>  <s_epik_input>  (1) 
TzFbQ0gyXVtDSDJdYyhjMTIpW2NIXWMoT1tDSDNdKWMoW09IXSlbY0hdMg==

>  <s_glide_docking_method>  (1) 
confgen

>  <s_i_glide_gridfile>  (1) 
gpcr_drd2_6luq_protein_autoprepared_prepared

>  <s_lp_Force_Field>  (1) 
S-OPLS

>  <s_lp_Variant>  (1) 
Pocket2Mol_82-1

>  <s_m_source_file>  (1) 
generated_generic_title2_ligand_Pocket2Mol_2026-06-23_prepared.sdf

>  <GenAI_Model>  (1) 
Pocket2Mol

>  <Protein>  (1) 
generic_title2

$$$$
Pocket2Mol_29
     RDKit          3D

  0  0  0  0  0  0  0  0  0  0999 V3000
M  V30 BEGIN CTAB
M  V30 COUNTS 18 18 0 0 1
M  V30 BEGIN ATOM
M  V30 1 C 11.114805 8.326716 -5.955954 0
M  V30 2 O 9.799477 8.096388 -6.441240 0
M  V30 3 C 9.709131 7.297467 -7.619048 0
M  V30 4 C 10.040476 8.116678 -8.880830 0
M  V30 5 O 9.375749 7.548656 -10.004000 0
M  V30 6 C 11.960035 9.122844 -6.957193 0
M  V30 7 C 11.556235 8.195919 -9.162329 0
M  V30 8 O 12.400004 8.279662 -8.011909 0
M  V30 9 H 11.013684 8.925436 -5.049900 0
M  V30 10 H 11.610732 7.402806 -5.646416 0
M  V30 11 H 8.667313 6.988838 -7.682492 0
M  V30 12 H 10.296803 6.378533 -7.554725 0
M  V30 13 H 9.647624 9.128403 -8.760327 0
M  V30 14 H 8.412179 7.590232 -9.854880 0
M  V30 15 H 11.422807 9.989792 -7.315991 0
M  V30 16 H 12.843899 9.503493 -6.444423 0
M  V30 17 H 11.874484 7.304401 -9.702401 0
M  V30 18 H 11.759633 9.033494 -9.830005 0
M  V30 END ATOM
M  V30 BEGIN BOND
M  V30 1 1 2 1
M  V30 2 1 3 2
M  V30 3 1 4 3
M  V30 4 1 5 4
M  V30 5 1 6 1
M  V30 6 1 7 4
M  V30 7 1 8 6
M  V30 8 1 8 7
M  V30 9 1 9 1
M  V30 10 1 10 1
M  V30 11 1 11 3
M  V30 12 1 12 3
M  V30 13 1 13 4
M  V30 14 1 14 5
M  V30 15 1 15 6
M  V30 16 1 16 6
M  V30 17 1 17 7
M  V30 18 1 18 7
M  V30 END BOND
M  V30 END CTAB
M  END
>  <i_epik_Tot_Q>  (1) 
0

>  <i_epik_Tot_abs_Q>  (1) 
0

>  <i_i_glide_confnum>  (1) 
5

>  <i_i_glide_lignum>  (1) 
33

>  <i_i_glide_posenum>  (1) 
227

>  <i_i_glide_rotatable_bonds>  (1) 
1

>  <i_lp_mmshare_version>  (1) 
72125

>  <i_m_source_file_index>  (1) 
30

>  <i_f3d_flags>  (1) 
0

>  <num_sample>  (1) 
100

>  <b_lp_Chiralities_Consistent>  (1) 
1

>  <r_epik_Charging_Adjusted_Penalty>  (1) 
0

>  <r_epik_Ionization_Penalty>  (1) 
1.4561355789117501e-07

>  <r_epik_Ionization_Penalty_Charging>  (1) 
0

>  <r_epik_Ionization_Penalty_Neutral>  (1) 
1.4561355789117501e-07

>  <r_epik_State_Penalty>  (1) 
-0

>  <r_glide_ring_energy>  (1) 
0.098590567758912701

>  <r_i_docking_score>  (1) 
-5.2083514592234605

>  <r_i_glide_ecoul>  (1) 
-7.1751874523791663

>  <r_i_glide_eff_state_penalty>  (1) 
-0

>  <r_i_glide_einternal>  (1) 
0.32514929212626087

>  <r_i_glide_emodel>  (1) 
-27.442840805693056

>  <r_i_glide_emodel_strain>  (1) 
0

>  <r_i_glide_energy>  (1) 
-20.295010643032253

>  <r_i_glide_erotb>  (1) 
0

>  <r_i_glide_esite>  (1) 
0

>  <r_i_glide_evdw>  (1) 
-13.119823190653086

>  <r_i_glide_gscore>  (1) 
-5.2083514592234605

>  <r_i_glide_gscore_strain>  (1) 
0

>  <r_i_glide_hbond>  (1) 
-0.16

>  <r_i_glide_ligand_efficiency>  (1) 
-0.65104393240293257

>  <r_i_glide_ligand_efficiency_ln>  (1) 
-1.6913298689808232

>  <r_i_glide_ligand_efficiency_sa>  (1) 
-1.3020878648058654

>  <r_i_glide_lipo>  (1) 
-0.71875491925989221

>  <r_i_glide_metal>  (1) 
-0

>  <r_i_glide_rewards>  (1) 
-2.5973272625740393

>  <r_lp_Energy>  (1) 
13.809562999999999

>  <r_lp_tautomer_probability>  (1) 
1

>  <s_epik_cmdline>  (1) 
J2VwaWtfcHl0aG9uJywgJy1waHQnLCAnMS4wJywgJy1waCcsICc3LjQnLCAnLXRuJywgJzgnLCAnLW1hJywgJzUwMCcsICctaW1hZScsICc8aW5maWxlLm1hZT4nLCAnLW9tYWUnLCAnPG91dGZpbGUubWFlPic=

>  <s_epik_input>  (1) 
W0NIMl0xT1tDSDJdW0NIMl1PW0NIMl1bQ0hdMVtPSF0=

>  <s_glide_docking_method>  (1) 
confgen

>  <s_i_glide_gridfile>  (1) 
gpcr_drd2_6luq_protein_autoprepared_prepared

>  <s_lp_Force_Field>  (1) 
S-OPLS

>  <s_lp_Variant>  (1) 
Pocket2Mol_29-1

>  <s_m_source_file>  (1) 
generated_generic_title2_ligand_Pocket2Mol_2026-06-23_prepared.sdf

>  <GenAI_Model>  (1) 
Pocket2Mol

>  <Protein>  (1) 
generic_title2

$$$$
Pocket2Mol_23
     RDKit          3D

  0  0  0  0  0  0  0  0  0  0999 V3000
M  V30 BEGIN CTAB
M  V30 COUNTS 11 11 0 0 1
M  V30 BEGIN ATOM
M  V30 1 N 11.877953 9.162572 -4.690867 0
M  V30 2 C 12.404502 9.118867 -3.442708 0
M  V30 3 C 12.440743 7.958278 -2.653615 0
M  V30 4 C 11.375410 8.004934 -5.185023 0
M  V30 5 C 11.375408 6.790232 -4.468817 0
M  V30 6 F 12.975347 7.990227 -1.412396 0
M  V30 7 C 11.915450 6.770256 -3.174095 0
M  V30 8 H 12.809798 10.035197 -3.063814 0
M  V30 9 H 10.962195 8.049782 -6.181887 0
M  V30 10 H 10.961765 5.894112 -4.906419 0
M  V30 11 H 11.928158 5.859208 -2.593972 0
M  V30 END ATOM
M  V30 BEGIN BOND
M  V30 1 2 2 1
M  V30 2 1 3 2
M  V30 3 1 4 1
M  V30 4 2 5 4
M  V30 5 1 6 3
M  V30 6 2 7 3
M  V30 7 1 7 5
M  V30 8 1 8 2
M  V30 9 1 9 4
M  V30 10 1 10 5
M  V30 11 1 11 7
M  V30 END BOND
M  V30 END CTAB
M  END
>  <i_epik_Tot_Q>  (1) 
0

>  <i_epik_Tot_abs_Q>  (1) 
0

>  <i_i_glide_confnum>  (1) 
1

>  <i_i_glide_lignum>  (1) 
27

>  <i_i_glide_posenum>  (1) 
313

>  <i_i_glide_rotatable_bonds>  (1) 
0

>  <i_lp_mmshare_version>  (1) 
72125

>  <i_m_source_file_index>  (1) 
24

>  <i_f3d_flags>  (1) 
0

>  <num_sample>  (1) 
100

>  <b_lp_Chiralities_Consistent>  (1) 
1

>  <r_epik_Charging_Adjusted_Penalty>  (1) 
0

>  <r_epik_Ionization_Penalty>  (1) 
7.3223601380878174e-05

>  <r_epik_Ionization_Penalty_Charging>  (1) 
0

>  <r_epik_Ionization_Penalty_Neutral>  (1) 
7.3223601380878174e-05

>  <r_epik_State_Penalty>  (1) 
-0

>  <r_glide_ring_energy>  (1) 
0

>  <r_i_docking_score>  (1) 
-5.20781271037694

>  <r_i_glide_ecoul>  (1) 
-1.3997231926608595

>  <r_i_glide_eff_state_penalty>  (1) 
-0

>  <r_i_glide_einternal>  (1) 
0

>  <r_i_glide_emodel>  (1) 
-20.472910045815514

>  <r_i_glide_emodel_strain>  (1) 
0

>  <r_i_glide_energy>  (1) 
-15.152974391917356

>  <r_i_glide_erotb>  (1) 
0

>  <r_i_glide_esite>  (1) 
0

>  <r_i_glide_evdw>  (1) 
-13.753251199256496

>  <r_i_glide_gscore>  (1) 
-5.20781271037694

>  <r_i_glide_gscore_strain>  (1) 
0

>  <r_i_glide_hbond>  (1) 
0

>  <r_i_glide_ligand_efficiency>  (1) 
-0.74397324433956291

>  <r_i_glide_ligand_efficiency_ln>  (1) 
-1.7678111167263426

>  <r_i_glide_ligand_efficiency_sa>  (1) 
-1.4231696182454916

>  <r_i_glide_lipo>  (1) 
-1.4672961399045095

>  <r_i_glide_metal>  (1) 
-0

>  <r_i_glide_rewards>  (1) 
-2.8428955316104769

>  <r_lp_Energy>  (1) 
10.789624

>  <r_lp_tautomer_probability>  (1) 
1

>  <s_epik_cmdline>  (1) 
J2VwaWtfcHl0aG9uJywgJy1waHQnLCAnMS4wJywgJy1waCcsICc3LjQnLCAnLXRuJywgJzgnLCAnLW1hJywgJzUwMCcsICctaW1hZScsICc8aW5maWxlLm1hZT4nLCAnLW9tYWUnLCAnPG91dGZpbGUubWFlPic=

>  <s_epik_input>  (1) 
W2NIXTFbY0hdW2NIXW5bY0hdYzFG

>  <s_glide_docking_method>  (1) 
confgen

>  <s_i_glide_gridfile>  (1) 
gpcr_drd2_6luq_protein_autoprepared_prepared

>  <s_lp_Force_Field>  (1) 
S-OPLS

>  <s_lp_Variant>  (1) 
Pocket2Mol_23-1

>  <s_m_source_file>  (1) 
generated_generic_title2_ligand_Pocket2Mol_2026-06-23_prepared.sdf

>  <GenAI_Model>  (1) 
Pocket2Mol

>  <Protein>  (1) 
generic_title2

$$$$
Pocket2Mol_82
     RDKit          3D

  0  0  0  0  0  0  0  0  0  0999 V3000
M  V30 BEGIN CTAB
M  V30 COUNTS 22 23 0 0 1
M  V30 BEGIN ATOM
M  V30 1 C 9.515469 6.516876 -9.954769 0
M  V30 2 O 10.321968 7.757027 -9.862101 0
M  V30 3 C 10.608781 7.802672 -8.541388 0
M  V30 4 C 10.068467 6.822126 -7.788990 0
M  V30 5 C 10.292586 6.747287 -6.406832 0
M  V30 6 C 9.249122 5.856279 -8.523999 0
M  V30 7 C 11.111662 7.722340 -5.788666 0
M  V30 8 O 11.375411 7.670460 -4.438113 0
M  V30 9 C 11.671520 8.758618 -6.574388 0
M  V30 10 O 12.458643 9.709158 -5.988330 0
M  V30 11 C 11.418232 8.796801 -7.967616 0
M  V30 12 C 11.426309 6.380074 -3.829425 0
M  V30 13 H 10.077508 5.814802 -10.566796 0
M  V30 14 H 8.577292 6.697372 -10.481115 0
M  V30 15 H 9.849033 5.955955 -5.829832 0
M  V30 16 H 9.649995 4.845615 -8.425914 0
M  V30 17 H 8.200727 5.895678 -8.230947 0
M  V30 18 H 12.720854 10.404272 -6.569298 0
M  V30 19 H 11.840946 9.577448 -8.582184 0
M  V30 20 H 12.069561 6.429617 -2.952466 0
M  V30 21 H 10.440097 6.051125 -3.505373 0
M  V30 22 H 11.840655 5.620857 -4.495863 0
M  V30 END ATOM
M  V30 BEGIN BOND
M  V30 1 1 2 1
M  V30 2 1 3 2
M  V30 3 1 4 3
M  V30 4 2 5 4
M  V30 5 1 6 1
M  V30 6 1 6 4
M  V30 7 1 7 5
M  V30 8 1 8 7
M  V30 9 2 9 7
M  V30 10 1 10 9
M  V30 11 2 11 3
M  V30 12 1 11 9
M  V30 13 1 12 8
M  V30 14 1 13 1
M  V30 15 1 14 1
M  V30 16 1 15 5
M  V30 17 1 16 6
M  V30 18 1 17 6
M  V30 19 1 18 10
M  V30 20 1 19 11
M  V30 21 1 20 12
M  V30 22 1 21 12
M  V30 23 1 22 12
M  V30 END BOND
M  V30 END CTAB
M  END
>  <i_epik_Tot_Q>  (1) 
0

>  <i_epik_Tot_abs_Q>  (1) 
0

>  <i_i_glide_confnum>  (1) 
1

>  <i_i_glide_lignum>  (1) 
89

>  <i_i_glide_posenum>  (1) 
354

>  <i_i_glide_rotatable_bonds>  (1) 
2

>  <i_lp_mmshare_version>  (1) 
72125

>  <i_m_source_file_index>  (1) 
83

>  <i_f3d_flags>  (1) 
0

>  <num_sample>  (1) 
100

>  <b_lp_Chiralities_Consistent>  (1) 
1

>  <r_epik_Charging_Adjusted_Penalty>  (1) 
0

>  <r_epik_Ionization_Penalty>  (1) 
0.0019697177408658601

>  <r_epik_Ionization_Penalty_Charging>  (1) 
0

>  <r_epik_Ionization_Penalty_Neutral>  (1) 
0.0019697177408658601

>  <r_epik_State_Penalty>  (1) 
-0

>  <r_glide_ring_energy>  (1) 
0

>  <r_i_docking_score>  (1) 
-5.2027260784583449

>  <r_i_glide_ecoul>  (1) 
-1.5339066010519924

>  <r_i_glide_eff_state_penalty>  (1) 
-0

>  <r_i_glide_einternal>  (1) 
0.28238778011454713

>  <r_i_glide_emodel>  (1) 
-29.607221976056316

>  <r_i_glide_emodel_strain>  (1) 
0.25070335283707124

>  <r_i_glide_energy>  (1) 
-22.697578244505141

>  <r_i_glide_erotb>  (1) 
0

>  <r_i_glide_esite>  (1) 
0

>  <r_i_glide_evdw>  (1) 
-21.163671643453149

>  <r_i_glide_gscore>  (1) 
-5.2027260784583449

>  <r_i_glide_gscore_strain>  (1) 
0

>  <r_i_glide_hbond>  (1) 
0

>  <r_i_glide_ligand_efficiency>  (1) 
-0.43356050653819539

>  <r_i_glide_ligand_efficiency_ln>  (1) 
-1.492931260805751

>  <r_i_glide_ligand_efficiency_sa>  (1) 
-0.99260577368581859

>  <r_i_glide_lipo>  (1) 
-1.1606918050426591

>  <r_i_glide_metal>  (1) 
-0

>  <r_i_glide_rewards>  (1) 
-2.7537647010852293

>  <r_lp_Energy>  (1) 
16.449425999999999

>  <r_lp_tautomer_probability>  (1) 
1

>  <s_epik_cmdline>  (1) 
J2VwaWtfcHl0aG9uJywgJy1waHQnLCAnMS4wJywgJy1waCcsICc3LjQnLCAnLXRuJywgJzgnLCAnLW1hJywgJzUwMCcsICctaW1hZScsICc8aW5maWxlLm1hZT4nLCAnLW9tYWUnLCAnPG91dGZpbGUubWFlPic=

>  <s_epik_input>  (1) 
TzFbQ0gyXVtDSDJdYyhjMTIpW2NIXWMoT1tDSDNdKWMoW09IXSlbY0hdMg==

>  <s_glide_docking_method>  (1) 
confgen

>  <s_i_glide_gridfile>  (1) 
gpcr_drd2_6luq_protein_autoprepared_prepared

>  <s_lp_Force_Field>  (1) 
S-OPLS

>  <s_lp_Variant>  (1) 
Pocket2Mol_82-1

>  <s_m_source_file>  (1) 
generated_generic_title2_ligand_Pocket2Mol_2026-06-23_prepared.sdf

>  <GenAI_Model>  (1) 
Pocket2Mol

>  <Protein>  (1) 
generic_title2

$$$$
Pocket2Mol_29
     RDKit          3D

  0  0  0  0  0  0  0  0  0  0999 V3000
M  V30 BEGIN CTAB
M  V30 COUNTS 18 18 0 0 1
M  V30 BEGIN ATOM
M  V30 1 C 11.365912 8.636456 -5.825715 0
M  V30 2 O 11.677707 9.193549 -7.098993 0
M  V30 3 C 11.701239 8.365907 -8.261677 0
M  V30 4 C 10.340656 7.771042 -8.661218 0
M  V30 5 O 9.385737 8.786634 -8.969339 0
M  V30 6 C 10.968430 7.152145 -5.780078 0
M  V30 7 C 9.755361 6.666227 -7.757827 0
M  V30 8 O 9.700273 6.991427 -6.380243 0
M  V30 9 H 12.234232 8.788819 -5.189661 0
M  V30 10 H 10.572692 9.242111 -5.383664 0
M  V30 11 H 12.454618 7.584537 -8.127025 0
M  V30 12 H 12.073186 8.986209 -9.082275 0
M  V30 13 H 10.498302 7.284364 -9.623341 0
M  V30 14 H 8.521363 8.389879 -9.185080 0
M  V30 15 H 11.724370 6.486494 -6.196339 0
M  V30 16 H 10.855403 6.857034 -4.739103 0
M  V30 17 H 8.742240 6.415300 -8.091684 0
M  V30 18 H 10.336336 5.752289 -7.875111 0
M  V30 END ATOM
M  V30 BEGIN BOND
M  V30 1 1 2 1
M  V30 2 1 3 2
M  V30 3 1 4 3
M  V30 4 1 5 4
M  V30 5 1 6 1
M  V30 6 1 7 4
M  V30 7 1 8 6
M  V30 8 1 8 7
M  V30 9 1 9 1
M  V30 10 1 10 1
M  V30 11 1 11 3
M  V30 12 1 12 3
M  V30 13 1 13 4
M  V30 14 1 14 5
M  V30 15 1 15 6
M  V30 16 1 16 6
M  V30 17 1 17 7
M  V30 18 1 18 7
M  V30 END BOND
M  V30 END CTAB
M  END
>  <i_epik_Tot_Q>  (1) 
0

>  <i_epik_Tot_abs_Q>  (1) 
0

>  <i_i_glide_confnum>  (1) 
11

>  <i_i_glide_lignum>  (1) 
33

>  <i_i_glide_posenum>  (1) 
24

>  <i_i_glide_rotatable_bonds>  (1) 
1

>  <i_lp_mmshare_version>  (1) 
72125

>  <i_m_source_file_index>  (1) 
30

>  <i_f3d_flags>  (1) 
0

>  <num_sample>  (1) 
100

>  <b_lp_Chiralities_Consistent>  (1) 
1

>  <r_epik_Charging_Adjusted_Penalty>  (1) 
0

>  <r_epik_Ionization_Penalty>  (1) 
1.4561355789117501e-07

>  <r_epik_Ionization_Penalty_Charging>  (1) 
0

>  <r_epik_Ionization_Penalty_Neutral>  (1) 
1.4561355789117501e-07

>  <r_epik_State_Penalty>  (1) 
-0

>  <r_glide_ring_energy>  (1) 
0.7060708747243859

>  <r_i_docking_score>  (1) 
-5.1948623614792417

>  <r_i_glide_ecoul>  (1) 
-5.4491849917693838

>  <r_i_glide_eff_state_penalty>  (1) 
-0

>  <r_i_glide_einternal>  (1) 
0.33672314882471233

>  <r_i_glide_emodel>  (1) 
-27.032205727461999

>  <r_i_glide_emodel_strain>  (1) 
1.0634221007863189

>  <r_i_glide_energy>  (1) 
-20.972517794928784

>  <r_i_glide_erotb>  (1) 
0

>  <r_i_glide_esite>  (1) 
0

>  <r_i_glide_evdw>  (1) 
-15.523332803159398

>  <r_i_glide_gscore>  (1) 
-5.1948623614792417

>  <r_i_glide_gscore_strain>  (1) 
0

>  <r_i_glide_hbond>  (1) 
-0.16

>  <r_i_glide_ligand_efficiency>  (1) 
-0.64935779518490522

>  <r_i_glide_ligand_efficiency_ln>  (1) 
-1.6869494975525476

>  <r_i_glide_ligand_efficiency_sa>  (1) 
-1.2987155903698107

>  <r_i_glide_lipo>  (1) 
-0.79609214353286539

>  <r_i_glide_metal>  (1) 
-0

>  <r_i_glide_rewards>  (1) 
-2.6452258290229986

>  <r_lp_Energy>  (1) 
13.809562999999999

>  <r_lp_tautomer_probability>  (1) 
1

>  <s_epik_cmdline>  (1) 
J2VwaWtfcHl0aG9uJywgJy1waHQnLCAnMS4wJywgJy1waCcsICc3LjQnLCAnLXRuJywgJzgnLCAnLW1hJywgJzUwMCcsICctaW1hZScsICc8aW5maWxlLm1hZT4nLCAnLW9tYWUnLCAnPG91dGZpbGUubWFlPic=

>  <s_epik_input>  (1) 
W0NIMl0xT1tDSDJdW0NIMl1PW0NIMl1bQ0hdMVtPSF0=

>  <s_glide_docking_method>  (1) 
confgen

>  <s_i_glide_gridfile>  (1) 
gpcr_drd2_6luq_protein_autoprepared_prepared

>  <s_lp_Force_Field>  (1) 
S-OPLS

>  <s_lp_Variant>  (1) 
Pocket2Mol_29-1

>  <s_m_source_file>  (1) 
generated_generic_title2_ligand_Pocket2Mol_2026-06-23_prepared.sdf

>  <GenAI_Model>  (1) 
Pocket2Mol

>  <Protein>  (1) 
generic_title2

$$$$
Pocket2Mol_0
     RDKit          3D

  0  0  0  0  0  0  0  0  0  0999 V3000
M  V30 BEGIN CTAB
M  V30 COUNTS 21 23 0 0 1
M  V30 BEGIN ATOM
M  V30 1 C 11.375480 8.785034 -5.798404 0
M  V30 2 O 11.693983 9.190237 -7.182813 0
M  V30 3 C 11.040524 8.246539 -7.897639 0
M  V30 4 C 10.495167 7.251949 -7.185320 0
M  V30 5 C 9.781722 6.215484 -7.794802 0
M  V30 6 C 10.705084 7.340273 -5.741422 0
M  V30 7 C 10.927089 8.290851 -9.290764 0
M  V30 8 C 9.624599 6.195812 -9.202392 0
M  V30 9 N 8.941023 5.190225 -9.805883 0
M  V30 10 C 8.845738 5.255972 -11.145979 0
M  V30 11 C 10.218646 7.271232 -9.979470 0
M  V30 12 C 9.416993 6.291758 -11.895433 0
M  V30 13 N 10.106974 7.302106 -11.333386 0
M  V30 14 H 10.674286 9.521888 -5.403595 0
M  V30 15 H 12.260955 8.833953 -5.165472 0
M  V30 16 H 9.350147 5.429782 -7.193707 0
M  V30 17 H 9.775348 7.307587 -5.185004 0
M  V30 18 H 11.391069 6.564139 -5.400306 0
M  V30 19 H 11.377558 9.101830 -9.842510 0
M  V30 20 H 8.300453 4.460663 -11.632023 0
M  V30 21 H 9.320316 6.310503 -12.970533 0
M  V30 END ATOM
M  V30 BEGIN BOND
M  V30 1 1 2 1
M  V30 2 1 3 2
M  V30 3 1 4 3
M  V30 4 2 5 4
M  V30 5 1 6 1
M  V30 6 1 6 4
M  V30 7 2 7 3
M  V30 8 1 8 5
M  V30 9 2 9 8
M  V30 10 1 10 9
M  V30 11 1 11 7
M  V30 12 1 11 8
M  V30 13 2 12 10
M  V30 14 2 13 11
M  V30 15 1 13 12
M  V30 16 1 14 1
M  V30 17 1 15 1
M  V30 18 1 16 5
M  V30 19 1 17 6
M  V30 20 1 18 6
M  V30 21 1 19 7
M  V30 22 1 20 10
M  V30 23 1 21 12
M  V30 END BOND
M  V30 END CTAB
M  END
>  <i_epik_Tot_Q>  (1) 
0

>  <i_epik_Tot_abs_Q>  (1) 
0

>  <i_i_glide_confnum>  (1) 
1

>  <i_i_glide_lignum>  (1) 
1

>  <i_i_glide_posenum>  (1) 
37

>  <i_i_glide_rotatable_bonds>  (1) 
0

>  <i_lp_mmshare_version>  (1) 
72125

>  <i_m_source_file_index>  (1) 
1

>  <i_f3d_flags>  (1) 
0

>  <num_sample>  (1) 
100

>  <b_lp_Chiralities_Consistent>  (1) 
1

>  <r_epik_Charging_Adjusted_Penalty>  (1) 
0

>  <r_epik_Ionization_Penalty>  (1) 
2.4588925185764017e-06

>  <r_epik_Ionization_Penalty_Charging>  (1) 
0

>  <r_epik_Ionization_Penalty_Neutral>  (1) 
2.4588925185764017e-06

>  <r_epik_State_Penalty>  (1) 
-0

>  <r_glide_ring_energy>  (1) 
0

>  <r_i_docking_score>  (1) 
-5.1918472745577278

>  <r_i_glide_ecoul>  (1) 
-0.53648040352922099

>  <r_i_glide_eff_state_penalty>  (1) 
-0

>  <r_i_glide_einternal>  (1) 
0

>  <r_i_glide_emodel>  (1) 
-33.945000142877674

>  <r_i_glide_emodel_strain>  (1) 
0.00044241771686159836

>  <r_i_glide_energy>  (1) 
-25.655933801770317

>  <r_i_glide_erotb>  (1) 
0

>  <r_i_glide_esite>  (1) 
0

>  <r_i_glide_evdw>  (1) 
-25.119453398241095

>  <r_i_glide_gscore>  (1) 
-5.1918472745577278

>  <r_i_glide_gscore_strain>  (1) 
0

>  <r_i_glide_hbond>  (1) 
0

>  <r_i_glide_ligand_efficiency>  (1) 
-0.39937286727367138

>  <r_i_glide_ligand_efficiency_ln>  (1) 
-1.4563593347240822

>  <r_i_glide_ligand_efficiency_sa>  (1) 
-0.93905927615508178

>  <r_i_glide_lipo>  (1) 
-0.92032113502538004

>  <r_i_glide_metal>  (1) 
-0

>  <r_i_glide_rewards>  (1) 
-2.9350814090909094

>  <r_lp_Energy>  (1) 
22.769921999999998

>  <r_lp_tautomer_probability>  (1) 
1

>  <s_epik_cmdline>  (1) 
J2VwaWtfcHl0aG9uJywgJy1waHQnLCAnMS4wJywgJy1waCcsICc3LjQnLCAnLXRuJywgJzgnLCAnLW1hJywgJzUwMCcsICctaW1hZScsICc8aW5maWxlLm1hZT4nLCAnLW9tYWUnLCAnPG91dGZpbGUubWFlPic=

>  <s_epik_input>  (1) 
TzFbQ0gyXVtDSDJdYyhjMTIpW2NIXWMzYyhbY0hdMiluW2NIXVtjSF1uMw==

>  <s_glide_docking_method>  (1) 
confgen

>  <s_i_glide_gridfile>  (1) 
gpcr_drd2_6luq_protein_autoprepared_prepared

>  <s_lp_Force_Field>  (1) 
S-OPLS

>  <s_lp_Variant>  (1) 
Pocket2Mol_0-1

>  <s_m_source_file>  (1) 
generated_generic_title2_ligand_Pocket2Mol_2026-06-23_prepared.sdf

>  <GenAI_Model>  (1) 
Pocket2Mol

>  <Protein>  (1) 
generic_title2

$$$$
Pocket2Mol_59
     RDKit          3D

  0  0  0  0  0  0  0  0  0  0999 V3000
M  V30 BEGIN CTAB
M  V30 COUNTS 17 18 0 0 1
M  V30 BEGIN ATOM
M  V30 1 C 9.375068 5.872799 -9.435563 0
M  V30 2 O 9.389843 5.606318 -7.982543 0
M  V30 3 C 10.076124 6.673580 -7.517778 0
M  V30 4 C 10.516211 7.536236 -8.433792 0
M  V30 5 C 11.247957 8.679402 -8.071108 0
M  V30 6 N 11.515707 8.937585 -6.736122 0 CHG=1
M  V30 7 C 10.175410 7.201053 -9.818617 0
M  V30 8 O 12.175409 9.982718 -6.384803 0 CHG=-1
M  V30 9 C 11.052118 8.039570 -5.786126 0
M  V30 10 C 10.326466 6.891002 -6.171823 0
M  V30 11 H 8.335584 5.967853 -9.751597 0
M  V30 12 H 9.777476 5.009294 -9.964807 0
M  V30 13 H 11.632500 9.411848 -8.765480 0
M  V30 14 H 9.536078 7.959859 -10.271667 0
M  V30 15 H 11.059370 7.021157 -10.428951 0
M  V30 16 H 11.295449 8.295344 -4.766708 0
M  V30 17 H 9.969755 6.196150 -5.429504 0
M  V30 END ATOM
M  V30 BEGIN BOND
M  V30 1 1 2 1
M  V30 2 1 3 2
M  V30 3 2 4 3
M  V30 4 1 5 4
M  V30 5 2 6 5
M  V30 6 1 7 1
M  V30 7 1 7 4
M  V30 8 1 8 6
M  V30 9 1 9 6
M  V30 10 1 10 3
M  V30 11 2 10 9
M  V30 12 1 11 1
M  V30 13 1 12 1
M  V30 14 1 13 5
M  V30 15 1 14 7
M  V30 16 1 15 7
M  V30 17 1 16 9
M  V30 18 1 17 10
M  V30 END BOND
M  V30 END CTAB
M  END
>  <i_epik_Tot_Q>  (1) 
0

>  <i_epik_Tot_abs_Q>  (1) 
2

>  <i_i_glide_confnum>  (1) 
1

>  <i_i_glide_lignum>  (1) 
66

>  <i_i_glide_posenum>  (1) 
262

>  <i_i_glide_rotatable_bonds>  (1) 
0

>  <i_lp_mmshare_version>  (1) 
72125

>  <i_m_source_file_index>  (1) 
60

>  <i_f3d_flags>  (1) 
0

>  <num_sample>  (1) 
100

>  <b_lp_Chiralities_Consistent>  (1) 
1

>  <r_epik_Charging_Adjusted_Penalty>  (1) 
1.5203065777176405e-06

>  <r_epik_Ionization_Penalty>  (1) 
1.5203065777176405e-06

>  <r_epik_Ionization_Penalty_Charging>  (1) 
1.5203065777176405e-06

>  <r_epik_Ionization_Penalty_Neutral>  (1) 
0

>  <r_epik_State_Penalty>  (1) 
-0

>  <r_glide_ring_energy>  (1) 
0

>  <r_i_docking_score>  (1) 
-5.190938794949056

>  <r_i_glide_ecoul>  (1) 
-2.9988083020871166

>  <r_i_glide_eff_state_penalty>  (1) 
-0

>  <r_i_glide_einternal>  (1) 
0

>  <r_i_glide_emodel>  (1) 
-26.865676226069635

>  <r_i_glide_emodel_strain>  (1) 
0

>  <r_i_glide_energy>  (1) 
-19.286414418373546

>  <r_i_glide_erotb>  (1) 
0

>  <r_i_glide_esite>  (1) 
0

>  <r_i_glide_evdw>  (1) 
-16.28760611628643

>  <r_i_glide_gscore>  (1) 
-5.190938794949056

>  <r_i_glide_gscore_strain>  (1) 
0

>  <r_i_glide_hbond>  (1) 
0

>  <r_i_glide_ligand_efficiency>  (1) 
-0.5190938794949056

>  <r_i_glide_ligand_efficiency_ln>  (1) 
-1.5717804837068023

>  <r_i_glide_ligand_efficiency_sa>  (1) 
-1.1183538613670549

>  <r_i_glide_lipo>  (1) 
-0.79780738922487426

>  <r_i_glide_metal>  (1) 
-0

>  <r_i_glide_rewards>  (1) 
-3.1289298545967923

>  <r_lp_Energy>  (1) 
12.910414999999999

>  <r_lp_tautomer_probability>  (1) 
1

>  <s_epik_cmdline>  (1) 
J2VwaWtfcHl0aG9uJywgJy1waHQnLCAnMS4wJywgJy1waCcsICc3LjQnLCAnLXRuJywgJzgnLCAnLW1hJywgJzUwMCcsICctaW1hZScsICc8aW5maWxlLm1hZT4nLCAnLW9tYWUnLCAnPG91dGZpbGUubWFlPic=

>  <s_epik_input>  (1) 
TzFbQ0gyXVtDSDJdYyhjMTIpW2NIXVtuK10oW08tXSlbY0hdW2NIXTI=

>  <s_glide_docking_method>  (1) 
confgen

>  <s_i_glide_gridfile>  (1) 
gpcr_drd2_6luq_protein_autoprepared_prepared

>  <s_lp_Force_Field>  (1) 
S-OPLS

>  <s_lp_Variant>  (1) 
Pocket2Mol_59-1

>  <s_m_source_file>  (1) 
generated_generic_title2_ligand_Pocket2Mol_2026-06-23_prepared.sdf

>  <GenAI_Model>  (1) 
Pocket2Mol

>  <Protein>  (1) 
generic_title2

$$$$
Pocket2Mol_85
     RDKit          3D

  0  0  0  0  0  0  0  0  0  0999 V3000
M  V30 BEGIN CTAB
M  V30 COUNTS 22 23 0 0 1
M  V30 BEGIN ATOM
M  V30 1 C 11.476490 8.643603 -5.275147 0
M  V30 2 O 10.234652 8.041920 -5.585025 0
M  V30 3 C 12.084445 9.311937 -6.513222 0
M  V30 4 O 12.561527 8.390227 -7.481386 0
M  V30 5 C 10.338351 6.857362 -6.355534 0
M  V30 6 C 11.617730 7.854903 -8.321698 0
M  V30 7 C 11.721388 8.019308 -9.710032 0
M  V30 8 C 10.531163 7.114587 -7.838877 0
M  V30 9 C 12.870207 8.790158 -10.309510 0
M  V30 10 N 10.817188 7.512269 -10.585221 0
M  V30 11 N 9.775410 6.792712 -10.121144 0
M  V30 12 C 9.630028 6.597735 -8.783412 0
M  V30 13 H 11.274170 9.416543 -4.533254 0
M  V30 14 H 12.157934 7.940956 -4.793289 0
M  V30 15 H 11.375410 9.998028 -6.964765 0
M  V30 16 H 12.936126 9.917058 -6.201614 0
M  V30 17 H 11.133133 6.208809 -5.983134 0
M  V30 18 H 9.407910 6.305999 -6.216057 0
M  V30 19 H 13.760871 8.720817 -9.685511 0
M  V30 20 H 12.575410 9.835047 -10.385025 0
M  V30 21 H 13.127988 8.406702 -11.296280 0
M  V30 22 H 8.777407 6.012933 -8.470335 0
M  V30 END ATOM
M  V30 BEGIN BOND
M  V30 1 1 2 1
M  V30 2 1 3 1
M  V30 3 1 4 3
M  V30 4 1 5 2
M  V30 5 1 6 4
M  V30 6 1 7 6
M  V30 7 1 8 5
M  V30 8 2 8 6
M  V30 9 1 9 7
M  V30 10 2 10 7
M  V30 11 1 11 10
M  V30 12 1 12 8
M  V30 13 2 12 11
M  V30 14 1 13 1
M  V30 15 1 14 1
M  V30 16 1 15 3
M  V30 17 1 16 3
M  V30 18 1 17 5
M  V30 19 1 18 5
M  V30 20 1 19 9
M  V30 21 1 20 9
M  V30 22 1 21 9
M  V30 23 1 22 12
M  V30 END BOND
M  V30 END CTAB
M  END
>  <i_epik_Tot_Q>  (1) 
0

>  <i_epik_Tot_abs_Q>  (1) 
0

>  <i_i_glide_confnum>  (1) 
1

>  <i_i_glide_lignum>  (1) 
92

>  <i_i_glide_posenum>  (1) 
268

>  <i_i_glide_rotatable_bonds>  (1) 
0

>  <i_lp_mmshare_version>  (1) 
72125

>  <i_m_source_file_index>  (1) 
86

>  <i_f3d_flags>  (1) 
0

>  <num_sample>  (1) 
100

>  <b_lp_Chiralities_Consistent>  (1) 
1

>  <r_epik_Charging_Adjusted_Penalty>  (1) 
0.0091269655628041547

>  <r_epik_Ionization_Penalty>  (1) 
0.0091374853106045584

>  <r_epik_Ionization_Penalty_Charging>  (1) 
0

>  <r_epik_Ionization_Penalty_Neutral>  (1) 
0.0091374853106045584

>  <r_epik_State_Penalty>  (1) 
0.0091269655628041547

>  <r_glide_ring_energy>  (1) 
0

>  <r_i_docking_score>  (1) 
-5.1776300842777152

>  <r_i_glide_ecoul>  (1) 
-0.50279919426516084

>  <r_i_glide_eff_state_penalty>  (1) 
0.0091269655628041547

>  <r_i_glide_einternal>  (1) 
0

>  <r_i_glide_emodel>  (1) 
-24.96897608520506

>  <r_i_glide_emodel_strain>  (1) 
0.042763210895916615

>  <r_i_glide_energy>  (1) 
-18.828430937751566

>  <r_i_glide_erotb>  (1) 
0

>  <r_i_glide_esite>  (1) 
-0.083344867364479006

>  <r_i_glide_evdw>  (1) 
-18.325631743486404

>  <r_i_glide_gscore>  (1) 
-5.1867570498405193

>  <r_i_glide_gscore_strain>  (1) 
0

>  <r_i_glide_hbond>  (1) 
0

>  <r_i_glide_ligand_efficiency>  (1) 
-0.43146917368980958

>  <r_i_glide_ligand_efficiency_ln>  (1) 
-1.4857299218022639

>  <r_i_glide_ligand_efficiency_sa>  (1) 
-0.98781781669088486

>  <r_i_glide_lipo>  (1) 
-1.2074351944645259

>  <r_i_glide_metal>  (1) 
-0

>  <r_i_glide_rewards>  (1) 
-2.9042755216974196

>  <r_lp_Energy>  (1) 
19.395567

>  <r_lp_tautomer_probability>  (1) 
1

>  <s_epik_cmdline>  (1) 
J2VwaWtfcHl0aG9uJywgJy1waHQnLCAnMS4wJywgJy1waCcsICc3LjQnLCAnLXRuJywgJzgnLCAnLW1hJywgJzUwMCcsICctaW1hZScsICc8aW5maWxlLm1hZT4nLCAnLW9tYWUnLCAnPG91dGZpbGUubWFlPic=

>  <s_epik_input>  (1) 
TzFbQ0gyXVtDSDJdT1tDSDJdYyhjMTIpW2NIXW5uYzJbQ0gzXQ==

>  <s_glide_docking_method>  (1) 
confgen

>  <s_i_glide_gridfile>  (1) 
gpcr_drd2_6luq_protein_autoprepared_prepared

>  <s_lp_Force_Field>  (1) 
S-OPLS

>  <s_lp_Variant>  (1) 
Pocket2Mol_85-1

>  <s_m_source_file>  (1) 
generated_generic_title2_ligand_Pocket2Mol_2026-06-23_prepared.sdf

>  <GenAI_Model>  (1) 
Pocket2Mol

>  <Protein>  (1) 
generic_title2

$$$$
Pocket2Mol_63
     RDKit          3D

  0  0  0  0  0  0  0  0  0  0999 V3000
M  V30 BEGIN CTAB
M  V30 COUNTS 19 20 0 0 1
M  V30 BEGIN ATOM
M  V30 1 C 9.601335 6.555855 -10.733433 0
M  V30 2 O 10.442623 7.648757 -10.630709 0
M  V30 3 C 10.750891 7.796164 -9.298896 0
M  V30 4 C 10.113092 6.789476 -8.558720 0
M  V30 5 C 10.328083 6.790626 -7.155856 0
M  V30 6 C 11.159242 7.779965 -6.547347 0
M  V30 7 O 11.375410 7.780714 -5.185284 0
M  V30 8 C 11.567499 8.778001 -8.731836 0
M  V30 9 C 9.375728 5.990237 -9.490841 0
M  V30 10 C 11.772598 8.774036 -7.343346 0
M  V30 11 C 11.224363 6.554068 -4.482181 0
M  V30 12 H 9.260179 6.314094 -11.729607 0
M  V30 13 H 9.854679 6.034910 -6.550949 0
M  V30 14 H 12.032842 9.529462 -9.353080 0
M  V30 15 H 8.764993 5.130007 -9.260316 0
M  V30 16 H 12.399353 9.524385 -6.883568 0
M  V30 17 H 11.645553 6.659004 -3.482109 0
M  V30 18 H 10.175441 6.285522 -4.370776 0
M  V30 19 H 11.749333 5.735751 -4.978453 0
M  V30 END ATOM
M  V30 BEGIN BOND
M  V30 1 1 2 1
M  V30 2 1 3 2
M  V30 3 1 4 3
M  V30 4 2 5 4
M  V30 5 1 6 5
M  V30 6 1 7 6
M  V30 7 2 8 3
M  V30 8 2 9 1
M  V30 9 1 9 4
M  V30 10 2 10 6
M  V30 11 1 10 8
M  V30 12 1 11 7
M  V30 13 1 12 1
M  V30 14 1 13 5
M  V30 15 1 14 8
M  V30 16 1 15 9
M  V30 17 1 16 10
M  V30 18 1 17 11
M  V30 19 1 18 11
M  V30 20 1 19 11
M  V30 END BOND
M  V30 END CTAB
M  END
>  <i_epik_Tot_Q>  (1) 
0

>  <i_epik_Tot_abs_Q>  (1) 
0

>  <i_i_glide_confnum>  (1) 
1

>  <i_i_glide_lignum>  (1) 
70

>  <i_i_glide_posenum>  (1) 
275

>  <i_i_glide_rotatable_bonds>  (1) 
1

>  <i_lp_mmshare_version>  (1) 
72125

>  <i_m_source_file_index>  (1) 
64

>  <i_f3d_flags>  (1) 
0

>  <num_sample>  (1) 
100

>  <b_lp_Chiralities_Consistent>  (1) 
1

>  <r_epik_Charging_Adjusted_Penalty>  (1) 
0

>  <r_epik_Ionization_Penalty>  (1) 
0

>  <r_epik_Ionization_Penalty_Charging>  (1) 
0

>  <r_epik_Ionization_Penalty_Neutral>  (1) 
0

>  <r_epik_State_Penalty>  (1) 
-0

>  <r_glide_ring_energy>  (1) 
0

>  <r_i_docking_score>  (1) 
-5.1754924081260283

>  <r_i_glide_ecoul>  (1) 
-1.1867333052354732

>  <r_i_glide_eff_state_penalty>  (1) 
-0

>  <r_i_glide_einternal>  (1) 
0.30153763005882239

>  <r_i_glide_emodel>  (1) 
-29.895431074659484

>  <r_i_glide_emodel_strain>  (1) 
0.067280529651140952

>  <r_i_glide_energy>  (1) 
-22.207482961797254

>  <r_i_glide_erotb>  (1) 
0

>  <r_i_glide_esite>  (1) 
0

>  <r_i_glide_evdw>  (1) 
-21.02074965656178

>  <r_i_glide_gscore>  (1) 
-5.1754924081260283

>  <r_i_glide_gscore_strain>  (1) 
0

>  <r_i_glide_hbond>  (1) 
0

>  <r_i_glide_ligand_efficiency>  (1) 
-0.47049930982963895

>  <r_i_glide_ligand_efficiency_ln>  (1) 
-1.5231465341377928

>  <r_i_glide_ligand_efficiency_sa>  (1) 
-1.046381097687721

>  <r_i_glide_lipo>  (1) 
-1.1892427049188434

>  <r_i_glide_metal>  (1) 
-0

>  <r_i_glide_rewards>  (1) 
-2.7572022245937755

>  <r_lp_Energy>  (1) 
14.639571

>  <r_lp_tautomer_probability>  (1) 
1

>  <s_epik_cmdline>  (1) 
J2VwaWtfcHl0aG9uJywgJy1waHQnLCAnMS4wJywgJy1waCcsICc3LjQnLCAnLXRuJywgJzgnLCAnLW1hJywgJzUwMCcsICctaW1hZScsICc8aW5maWxlLm1hZT4nLCAnLW9tYWUnLCAnPG91dGZpbGUubWFlPic=

>  <s_epik_input>  (1) 
bzFbY0hdW2NIXWMoYzEyKVtjSF1jKE9bQ0gzXSlbY0hdW2NIXTI=

>  <s_glide_docking_method>  (1) 
confgen

>  <s_i_glide_gridfile>  (1) 
gpcr_drd2_6luq_protein_autoprepared_prepared

>  <s_lp_Force_Field>  (1) 
S-OPLS

>  <s_lp_Variant>  (1) 
Pocket2Mol_63-1

>  <s_m_source_file>  (1) 
generated_generic_title2_ligand_Pocket2Mol_2026-06-23_prepared.sdf

>  <GenAI_Model>  (1) 
Pocket2Mol

>  <Protein>  (1) 
generic_title2

$$$$
Pocket2Mol_80
     RDKit          3D

  0  0  0  0  0  0  0  0  0  0999 V3000
M  V30 BEGIN CTAB
M  V30 COUNTS 19 20 0 0 1
M  V30 BEGIN ATOM
M  V30 1 C 11.375410 8.779017 -5.859493 0
M  V30 2 O 11.931282 9.190227 -7.166056 0
M  V30 3 C 11.261346 8.380088 -8.015646 0
M  V30 4 C 10.455975 7.464049 -7.438381 0
M  V30 5 C 9.695809 6.564013 -8.202556 0
M  V30 6 C 10.438176 7.491632 -5.977996 0
M  V30 7 C 9.775410 6.624996 -9.616131 0
M  V30 8 N 8.983030 5.695399 -10.449833 0 CHG=1
M  V30 9 O 8.276459 4.874884 -9.872762 0 CHG=-1
M  V30 10 O 9.085743 5.798020 -11.668706 0
M  V30 11 C 10.626345 7.590227 -10.224143 0
M  V30 12 C 11.376575 8.472396 -9.412717 0
M  V30 13 H 12.175410 8.616119 -5.137939 0
M  V30 14 H 10.787756 9.616330 -5.480340 0
M  V30 15 H 9.054904 5.841480 -7.718058 0
M  V30 16 H 9.434013 7.647318 -5.585031 0
M  V30 17 H 10.888744 6.590907 -5.559630 0
M  V30 18 H 10.699998 7.650368 -11.299676 0
M  V30 19 H 12.025514 9.211063 -9.860707 0
M  V30 END ATOM
M  V30 BEGIN BOND
M  V30 1 1 2 1
M  V30 2 1 3 2
M  V30 3 2 4 3
M  V30 4 1 5 4
M  V30 5 1 6 1
M  V30 6 1 6 4
M  V30 7 2 7 5
M  V30 8 1 8 7
M  V30 9 1 9 8
M  V30 10 2 10 8
M  V30 11 1 11 7
M  V30 12 1 12 3
M  V30 13 2 12 11
M  V30 14 1 13 1
M  V30 15 1 14 1
M  V30 16 1 15 5
M  V30 17 1 16 6
M  V30 18 1 17 6
M  V30 19 1 18 11
M  V30 20 1 19 12
M  V30 END BOND
M  V30 END CTAB
M  END
>  <i_epik_Tot_Q>  (1) 
0

>  <i_epik_Tot_abs_Q>  (1) 
2

>  <i_i_glide_confnum>  (1) 
1

>  <i_i_glide_lignum>  (1) 
87

>  <i_i_glide_posenum>  (1) 
145

>  <i_i_glide_rotatable_bonds>  (1) 
1

>  <i_lp_mmshare_version>  (1) 
72125

>  <i_m_source_file_index>  (1) 
81

>  <i_f3d_flags>  (1) 
0

>  <num_sample>  (1) 
100

>  <b_lp_Chiralities_Consistent>  (1) 
1

>  <r_epik_Charging_Adjusted_Penalty>  (1) 
0

>  <r_epik_Ionization_Penalty>  (1) 
0

>  <r_epik_Ionization_Penalty_Charging>  (1) 
0

>  <r_epik_Ionization_Penalty_Neutral>  (1) 
0

>  <r_epik_State_Penalty>  (1) 
-0

>  <r_glide_ring_energy>  (1) 
0

>  <r_i_docking_score>  (1) 
-5.1752358896210886

>  <r_i_glide_ecoul>  (1) 
-0.3785584119479512

>  <r_i_glide_eff_state_penalty>  (1) 
-0

>  <r_i_glide_einternal>  (1) 
0.0038677827953379484

>  <r_i_glide_emodel>  (1) 
-31.731107018245915

>  <r_i_glide_emodel_strain>  (1) 
5.0904702675325098e-10

>  <r_i_glide_energy>  (1) 
-23.153699448631862

>  <r_i_glide_erotb>  (1) 
0

>  <r_i_glide_esite>  (1) 
-0.11413968749615054

>  <r_i_glide_evdw>  (1) 
-22.775141036683912

>  <r_i_glide_gscore>  (1) 
-5.1752358896210886

>  <r_i_glide_gscore_strain>  (1) 
0

>  <r_i_glide_hbond>  (1) 
0

>  <r_i_glide_ligand_efficiency>  (1) 
-0.43126965746842405

>  <r_i_glide_ligand_efficiency_ln>  (1) 
-1.485042903498123

>  <r_i_glide_ligand_efficiency_sa>  (1) 
-0.98736103857040391

>  <r_i_glide_lipo>  (1) 
-0.92388872183188353

>  <r_i_glide_metal>  (1) 
-0

>  <r_i_glide_rewards>  (1) 
-2.9416666666666664

>  <r_lp_Energy>  (1) 
14.797289999999998

>  <r_lp_tautomer_probability>  (1) 
1

>  <s_epik_cmdline>  (1) 
J2VwaWtfcHl0aG9uJywgJy1waHQnLCAnMS4wJywgJy1waCcsICc3LjQnLCAnLXRuJywgJzgnLCAnLW1hJywgJzUwMCcsICctaW1hZScsICc8aW5maWxlLm1hZT4nLCAnLW9tYWUnLCAnPG91dGZpbGUubWFlPic=

>  <s_epik_input>  (1) 
TzFbQ0gyXVtDSDJdYyhjMTIpW2NIXWMoW04rXShbTy1dKT1PKVtjSF1bY0hdMg==

>  <s_glide_docking_method>  (1) 
confgen

>  <s_i_glide_gridfile>  (1) 
gpcr_drd2_6luq_protein_autoprepared_prepared

>  <s_lp_Force_Field>  (1) 
S-OPLS

>  <s_lp_Variant>  (1) 
Pocket2Mol_80-1

>  <s_m_source_file>  (1) 
generated_generic_title2_ligand_Pocket2Mol_2026-06-23_prepared.sdf

>  <GenAI_Model>  (1) 
Pocket2Mol

>  <Protein>  (1) 
generic_title2

$$$$
Pocket2Mol_29
     RDKit          3D

  0  0  0  0  0  0  0  0  0  0999 V3000
M  V30 BEGIN CTAB
M  V30 COUNTS 18 18 0 0 1
M  V30 BEGIN ATOM
M  V30 1 C 12.000635 9.334419 -6.548569 0
M  V30 2 O 11.836496 9.138987 -7.946512 0
M  V30 3 C 11.618570 7.821024 -8.436398 0
M  V30 4 C 10.137777 7.455971 -8.409510 0
M  V30 5 O 9.379363 8.371833 -9.168774 0
M  V30 6 C 11.105148 8.481216 -5.643331 0
M  V30 7 C 9.583859 7.224563 -7.005188 0
M  V30 8 O 9.781256 8.341937 -6.142270 0
M  V30 9 H 13.045075 9.192581 -6.279970 0
M  V30 10 H 11.851518 10.396466 -6.356855 0
M  V30 11 H 12.185578 7.094983 -7.860621 0
M  V30 12 H 11.974455 7.765502 -9.465662 0
M  V30 13 H 10.025074 6.515638 -8.945957 0
M  V30 14 H 8.449175 8.105700 -9.185084 0
M  V30 15 H 11.572056 7.516283 -5.439627 0
M  V30 16 H 11.046843 8.995763 -4.682282 0
M  V30 17 H 8.524183 7.021174 -7.086723 0
M  V30 18 H 10.002498 6.313144 -6.567498 0
M  V30 END ATOM
M  V30 BEGIN BOND
M  V30 1 1 2 1
M  V30 2 1 3 2
M  V30 3 1 4 3
M  V30 4 1 5 4
M  V30 5 1 6 1
M  V30 6 1 7 4
M  V30 7 1 8 6
M  V30 8 1 8 7
M  V30 9 1 9 1
M  V30 10 1 10 1
M  V30 11 1 11 3
M  V30 12 1 12 3
M  V30 13 1 13 4
M  V30 14 1 14 5
M  V30 15 1 15 6
M  V30 16 1 16 6
M  V30 17 1 17 7
M  V30 18 1 18 7
M  V30 END BOND
M  V30 END CTAB
M  END
>  <i_epik_Tot_Q>  (1) 
0

>  <i_epik_Tot_abs_Q>  (1) 
0

>  <i_i_glide_confnum>  (1) 
11

>  <i_i_glide_lignum>  (1) 
33

>  <i_i_glide_posenum>  (1) 
237

>  <i_i_glide_rotatable_bonds>  (1) 
1

>  <i_lp_mmshare_version>  (1) 
72125

>  <i_m_source_file_index>  (1) 
30

>  <i_f3d_flags>  (1) 
0

>  <num_sample>  (1) 
100

>  <b_lp_Chiralities_Consistent>  (1) 
1

>  <r_epik_Charging_Adjusted_Penalty>  (1) 
0

>  <r_epik_Ionization_Penalty>  (1) 
1.4561355789117501e-07

>  <r_epik_Ionization_Penalty_Charging>  (1) 
0

>  <r_epik_Ionization_Penalty_Neutral>  (1) 
1.4561355789117501e-07

>  <r_epik_State_Penalty>  (1) 
-0

>  <r_glide_ring_energy>  (1) 
0.7060708747243859

>  <r_i_docking_score>  (1) 
-5.1738006429507264

>  <r_i_glide_ecoul>  (1) 
-7.2556012050766219

>  <r_i_glide_eff_state_penalty>  (1) 
-0

>  <r_i_glide_einternal>  (1) 
0.32915298195449405

>  <r_i_glide_emodel>  (1) 
-26.247381001557436

>  <r_i_glide_emodel_strain>  (1) 
0.0019418114798490649

>  <r_i_glide_energy>  (1) 
-19.151989773576442

>  <r_i_glide_erotb>  (1) 
0

>  <r_i_glide_esite>  (1) 
0

>  <r_i_glide_evdw>  (1) 
-11.896388568499821

>  <r_i_glide_gscore>  (1) 
-5.1738006429507264

>  <r_i_glide_gscore_strain>  (1) 
0

>  <r_i_glide_hbond>  (1) 
-0.15846921270922629

>  <r_i_glide_ligand_efficiency>  (1) 
-0.6467250803688408

>  <r_i_glide_ligand_efficiency_ln>  (1) 
-1.6801100371362847

>  <r_i_glide_ligand_efficiency_sa>  (1) 
-1.2934501607376818

>  <r_i_glide_lipo>  (1) 
-0.76039807955596039

>  <r_i_glide_metal>  (1) 
-0

>  <r_i_glide_rewards>  (1) 
-2.5717737414990554

>  <r_lp_Energy>  (1) 
13.809562999999999

>  <r_lp_tautomer_probability>  (1) 
1

>  <s_epik_cmdline>  (1) 
J2VwaWtfcHl0aG9uJywgJy1waHQnLCAnMS4wJywgJy1waCcsICc3LjQnLCAnLXRuJywgJzgnLCAnLW1hJywgJzUwMCcsICctaW1hZScsICc8aW5maWxlLm1hZT4nLCAnLW9tYWUnLCAnPG91dGZpbGUubWFlPic=

>  <s_epik_input>  (1) 
W0NIMl0xT1tDSDJdW0NIMl1PW0NIMl1bQ0hdMVtPSF0=

>  <s_glide_docking_method>  (1) 
confgen

>  <s_i_glide_gridfile>  (1) 
gpcr_drd2_6luq_protein_autoprepared_prepared

>  <s_lp_Force_Field>  (1) 
S-OPLS

>  <s_lp_Variant>  (1) 
Pocket2Mol_29-1

>  <s_m_source_file>  (1) 
generated_generic_title2_ligand_Pocket2Mol_2026-06-23_prepared.sdf

>  <GenAI_Model>  (1) 
Pocket2Mol

>  <Protein>  (1) 
generic_title2

$$$$
Pocket2Mol_42
     RDKit          3D

  0  0  0  0  0  0  0  0  0  0999 V3000
M  V30 BEGIN CTAB
M  V30 COUNTS 23 24 0 0 1
M  V30 BEGIN ATOM
M  V30 1 C 12.542072 8.203371 -9.175184 0
M  V30 2 O 12.575984 8.182535 -7.752239 0
M  V30 3 C 11.264061 8.136172 -7.193993 0 CFG=2
M  V30 4 C 11.167062 9.276564 -6.171672 0
M  V30 5 C 10.976621 6.764527 -6.554180 0
M  V30 6 C 11.184732 8.786453 -9.513081 0
M  V30 7 C 9.689928 6.273756 -7.213910 0
M  V30 8 C 10.310887 8.255467 -8.394090 0 CFG=1
M  V30 9 C 9.790448 6.831036 -8.622215 0
M  V30 10 H 13.364467 8.789982 -9.584949 0
M  V30 11 H 12.621643 7.190351 -9.569462 0
M  V30 12 H 10.175400 9.320213 -5.724724 0
M  V30 13 H 11.886939 9.138633 -5.364649 0
M  V30 14 H 11.375422 10.241821 -6.631260 0
M  V30 15 H 11.785994 6.070441 -6.784863 0
M  V30 16 H 10.884379 6.803459 -5.468158 0
M  V30 17 H 11.247418 9.873056 -9.467017 0
M  V30 18 H 10.832196 8.500843 -10.504170 0
M  V30 19 H 9.592899 5.190227 -7.203090 0
M  V30 20 H 8.817889 6.693350 -6.708481 0
M  V30 21 H 9.465969 8.912667 -8.182885 0
M  V30 22 H 10.506371 6.236004 -9.188241 0
M  V30 23 H 8.848794 6.790225 -9.161438 0
M  V30 END ATOM
M  V30 BEGIN BOND
M  V30 1 1 2 1
M  V30 2 1 3 2
M  V30 3 1 3 4 CFG=1
M  V30 4 1 5 3
M  V30 5 1 6 1
M  V30 6 1 7 5
M  V30 7 1 8 3
M  V30 8 1 8 6
M  V30 9 1 9 7
M  V30 10 1 9 8
M  V30 11 1 10 1
M  V30 12 1 11 1
M  V30 13 1 12 4
M  V30 14 1 13 4
M  V30 15 1 14 4
M  V30 16 1 15 5
M  V30 17 1 16 5
M  V30 18 1 17 6
M  V30 19 1 18 6
M  V30 20 1 19 7
M  V30 21 1 20 7
M  V30 22 1 8 21 CFG=1
M  V30 23 1 22 9
M  V30 24 1 23 9
M  V30 END BOND
M  V30 END CTAB
M  END
>  <i_epik_Tot_Q>  (1) 
0

>  <i_epik_Tot_abs_Q>  (1) 
0

>  <i_i_glide_confnum>  (1) 
3

>  <i_i_glide_lignum>  (1) 
47

>  <i_i_glide_posenum>  (1) 
165

>  <i_i_glide_rotatable_bonds>  (1) 
0

>  <i_lp_mmshare_version>  (1) 
72125

>  <i_m_source_file_index>  (1) 
43

>  <i_f3d_flags>  (1) 
0

>  <num_sample>  (1) 
100

>  <b_lp_Chiralities_Consistent>  (1) 
1

>  <r_epik_Charging_Adjusted_Penalty>  (1) 
0

>  <r_epik_Ionization_Penalty>  (1) 
2.4347883345708157e-11

>  <r_epik_Ionization_Penalty_Charging>  (1) 
0

>  <r_epik_Ionization_Penalty_Neutral>  (1) 
2.4347883345708157e-11

>  <r_epik_State_Penalty>  (1) 
-0

>  <r_glide_ring_energy>  (1) 
1.1035134730129632

>  <r_i_docking_score>  (1) 
-5.1625742167100093

>  <r_i_glide_ecoul>  (1) 
-0.55265866638488581

>  <r_i_glide_eff_state_penalty>  (1) 
-0

>  <r_i_glide_einternal>  (1) 
0

>  <r_i_glide_emodel>  (1) 
-23.903624014894056

>  <r_i_glide_emodel_strain>  (1) 
0

>  <r_i_glide_energy>  (1) 
-18.353465673320418

>  <r_i_glide_erotb>  (1) 
0

>  <r_i_glide_esite>  (1) 
0

>  <r_i_glide_evdw>  (1) 
-17.800807006935532

>  <r_i_glide_gscore>  (1) 
-5.1625742167100093

>  <r_i_glide_gscore_strain>  (1) 
0

>  <r_i_glide_hbond>  (1) 
0

>  <r_i_glide_ligand_efficiency>  (1) 
-0.57361935741222325

>  <r_i_glide_ligand_efficiency_ln>  (1) 
-1.6147049079083549

>  <r_i_glide_ligand_efficiency_sa>  (1) 
-1.1931763459425941

>  <r_i_glide_lipo>  (1) 
-1.2044006371364901

>  <r_i_glide_metal>  (1) 
-0

>  <r_i_glide_rewards>  (1) 
-2.9852344292690103

>  <r_lp_Energy>  (1) 
5.4699619999999998

>  <r_lp_tautomer_probability>  (1) 
1

>  <s_epik_cmdline>  (1) 
J2VwaWtfcHl0aG9uJywgJy1waHQnLCAnMS4wJywgJy1waCcsICc3LjQnLCAnLXRuJywgJzgnLCAnLW1hJywgJzUwMCcsICctaW1hZScsICc8aW5maWxlLm1hZT4nLCAnLW9tYWUnLCAnPG91dGZpbGUubWFlPic=

>  <s_epik_input>  (1) 
TzFbQ0gyXVtDSDJdW0NASF0oW0NAXTEyW0NIM10pW0NIMl1bQ0gyXVtDSDJdMg==

>  <s_glide_docking_method>  (1) 
confgen

>  <s_i_glide_gridfile>  (1) 
gpcr_drd2_6luq_protein_autoprepared_prepared

>  <s_lp_Force_Field>  (1) 
S-OPLS

>  <s_lp_Variant>  (1) 
Pocket2Mol_42-1

>  <s_m_source_file>  (1) 
generated_generic_title2_ligand_Pocket2Mol_2026-06-23_prepared.sdf

>  <GenAI_Model>  (1) 
Pocket2Mol

>  <Protein>  (1) 
generic_title2

$$$$
Pocket2Mol_27
     RDKit          3D

  0  0  0  0  0  0  0  0  0  0999 V3000
M  V30 BEGIN CTAB
M  V30 COUNTS 15 15 0 0 1
M  V30 BEGIN ATOM
M  V30 1 C 12.009844 6.608299 -2.539478 0
M  V30 2 O 11.477004 6.390246 -3.873227 0
M  V30 3 C 11.375410 7.435288 -4.785191 0
M  V30 4 C 10.786336 7.020539 -6.114923 0
M  V30 5 C 12.439067 8.033357 -2.272369 0
M  V30 6 C 11.775434 8.685013 -4.471838 0
M  V30 7 C 12.320752 8.986400 -3.186009 0
M  V30 8 H 11.250130 6.324453 -1.810866 0
M  V30 9 H 12.862806 5.947308 -2.385022 0
M  V30 10 H 10.778656 7.849473 -6.823093 0
M  V30 11 H 11.366995 6.204028 -6.544921 0
M  V30 12 H 9.760519 6.676310 -5.978507 0
M  V30 13 H 12.850432 8.256399 -1.298733 0
M  V30 14 H 11.681538 9.472432 -5.205509 0
M  V30 15 H 12.636719 9.990227 -2.957036 0
M  V30 END ATOM
M  V30 BEGIN BOND
M  V30 1 1 2 1
M  V30 2 1 3 2
M  V30 3 1 4 3
M  V30 4 1 5 1
M  V30 5 2 6 3
M  V30 6 2 7 5
M  V30 7 1 7 6
M  V30 8 1 8 1
M  V30 9 1 9 1
M  V30 10 1 10 4
M  V30 11 1 11 4
M  V30 12 1 12 4
M  V30 13 1 13 5
M  V30 14 1 14 6
M  V30 15 1 15 7
M  V30 END BOND
M  V30 END CTAB
M  END
>  <i_epik_Tot_Q>  (1) 
0

>  <i_epik_Tot_abs_Q>  (1) 
0

>  <i_i_glide_confnum>  (1) 
1

>  <i_i_glide_lignum>  (1) 
31

>  <i_i_glide_posenum>  (1) 
33

>  <i_i_glide_rotatable_bonds>  (1) 
0

>  <i_lp_mmshare_version>  (1) 
72125

>  <i_m_source_file_index>  (1) 
28

>  <i_f3d_flags>  (1) 
0

>  <num_sample>  (1) 
100

>  <b_lp_Chiralities_Consistent>  (1) 
1

>  <r_epik_Charging_Adjusted_Penalty>  (1) 
0

>  <r_epik_Ionization_Penalty>  (1) 
0

>  <r_epik_Ionization_Penalty_Charging>  (1) 
0

>  <r_epik_Ionization_Penalty_Neutral>  (1) 
0

>  <r_epik_State_Penalty>  (1) 
-0

>  <r_glide_ring_energy>  (1) 
0

>  <r_i_docking_score>  (1) 
-5.1597333473583813

>  <r_i_glide_ecoul>  (1) 
0.045797462674398354

>  <r_i_glide_eff_state_penalty>  (1) 
-0

>  <r_i_glide_einternal>  (1) 
0

>  <r_i_glide_emodel>  (1) 
-23.103240229938475

>  <r_i_glide_emodel_strain>  (1) 
0.01124238439410874

>  <r_i_glide_energy>  (1) 
-17.458321140660725

>  <r_i_glide_erotb>  (1) 
0

>  <r_i_glide_esite>  (1) 
0

>  <r_i_glide_evdw>  (1) 
-17.504118603335122

>  <r_i_glide_gscore>  (1) 
-5.1597333473583813

>  <r_i_glide_gscore_strain>  (1) 
0

>  <r_i_glide_hbond>  (1) 
0

>  <r_i_glide_ligand_efficiency>  (1) 
-0.73710476390834023

>  <r_i_glide_ligand_efficiency_ln>  (1) 
-1.7514904006875398

>  <r_i_glide_ligand_efficiency_sa>  (1) 
-1.4100306878503439

>  <r_i_glide_lipo>  (1) 
-1.6450991976052729

>  <r_i_glide_metal>  (1) 
-0

>  <r_i_glide_rewards>  (1) 
-2.6462978389875116

>  <r_lp_Energy>  (1) 
4.7929789999999999

>  <r_lp_tautomer_probability>  (1) 
1

>  <s_epik_cmdline>  (1) 
J2VwaWtfcHl0aG9uJywgJy1waHQnLCAnMS4wJywgJy1waCcsICc3LjQnLCAnLXRuJywgJzgnLCAnLW1hJywgJzUwMCcsICctaW1hZScsICc8aW5maWxlLm1hZT4nLCAnLW9tYWUnLCAnPG91dGZpbGUubWFlPic=

>  <s_epik_input>  (1) 
TzFbQ0gyXVtDSF09W0NIXVtDSF09QzFbQ0gzXQ==

>  <s_glide_docking_method>  (1) 
confgen

>  <s_i_glide_gridfile>  (1) 
gpcr_drd2_6luq_protein_autoprepared_prepared

>  <s_lp_Force_Field>  (1) 
S-OPLS

>  <s_lp_Variant>  (1) 
Pocket2Mol_27-1

>  <s_m_source_file>  (1) 
generated_generic_title2_ligand_Pocket2Mol_2026-06-23_prepared.sdf

>  <GenAI_Model>  (1) 
Pocket2Mol

>  <Protein>  (1) 
generic_title2

$$$$
Pocket2Mol_97
     RDKit          3D

  0  0  0  0  0  0  0  0  0  0999 V3000
M  V30 BEGIN CTAB
M  V30 COUNTS 24 25 0 0 1
M  V30 BEGIN ATOM
M  V30 1 C 11.424678 8.626923 -5.384525 0
M  V30 2 O 10.175410 8.017309 -5.634037 0
M  V30 3 C 12.040557 9.190227 -6.670494 0
M  V30 4 O 12.453727 8.184953 -7.585025 0
M  V30 5 C 10.258987 6.784505 -6.328071 0
M  V30 6 C 11.479149 7.650097 -8.390801 0
M  V30 7 C 11.587858 7.784202 -9.789127 0
M  V30 8 C 10.380512 6.950538 -7.832488 0
M  V30 9 C 12.770380 8.519946 -10.385025 0
M  V30 10 C 10.600417 7.230096 -10.631898 0
M  V30 11 C 9.512668 6.530694 -10.078646 0
M  V30 12 F 8.575412 5.988169 -10.891152 0
M  V30 13 C 9.401211 6.390228 -8.681480 0
M  V30 14 H 12.097089 7.947571 -4.859785 0
M  V30 15 H 11.242051 9.454128 -4.697998 0
M  V30 16 H 12.930868 9.755015 -6.392194 0
M  V30 17 H 11.375410 9.900125 -7.154412 0
M  V30 18 H 9.342764 6.235851 -6.108127 0
M  V30 19 H 11.077351 6.167164 -5.953164 0
M  V30 20 H 13.676006 8.346886 -9.803201 0
M  V30 21 H 12.975410 8.199031 -11.405697 0
M  V30 22 H 12.575400 9.590228 -10.385025 0
M  V30 23 H 10.683360 7.333620 -11.703688 0
M  V30 24 H 8.562722 5.853888 -8.261213 0
M  V30 END ATOM
M  V30 BEGIN BOND
M  V30 1 1 2 1
M  V30 2 1 3 1
M  V30 3 1 4 3
M  V30 4 1 5 2
M  V30 5 1 6 4
M  V30 6 2 7 6
M  V30 7 1 8 5
M  V30 8 1 8 6
M  V30 9 1 9 7
M  V30 10 1 10 7
M  V30 11 2 11 10
M  V30 12 1 12 11
M  V30 13 2 13 8
M  V30 14 1 13 11
M  V30 15 1 14 1
M  V30 16 1 15 1
M  V30 17 1 16 3
M  V30 18 1 17 3
M  V30 19 1 18 5
M  V30 20 1 19 5
M  V30 21 1 20 9
M  V30 22 1 21 9
M  V30 23 1 22 9
M  V30 24 1 23 10
M  V30 25 1 24 13
M  V30 END BOND
M  V30 END CTAB
M  END
>  <i_epik_Tot_Q>  (1) 
0

>  <i_epik_Tot_abs_Q>  (1) 
0

>  <i_i_glide_confnum>  (1) 
1

>  <i_i_glide_lignum>  (1) 
106

>  <i_i_glide_posenum>  (1) 
29

>  <i_i_glide_rotatable_bonds>  (1) 
0

>  <i_lp_mmshare_version>  (1) 
72125

>  <i_m_source_file_index>  (1) 
98

>  <i_f3d_flags>  (1) 
0

>  <num_sample>  (1) 
100

>  <b_lp_Chiralities_Consistent>  (1) 
1

>  <r_epik_Charging_Adjusted_Penalty>  (1) 
0

>  <r_epik_Ionization_Penalty>  (1) 
1.3261073421285308e-13

>  <r_epik_Ionization_Penalty_Charging>  (1) 
0

>  <r_epik_Ionization_Penalty_Neutral>  (1) 
1.3261073421285308e-13

>  <r_epik_State_Penalty>  (1) 
-0

>  <r_glide_ring_energy>  (1) 
0

>  <r_i_docking_score>  (1) 
-5.1559992138215049

>  <r_i_glide_ecoul>  (1) 
0.025511530374929758

>  <r_i_glide_eff_state_penalty>  (1) 
-0

>  <r_i_glide_einternal>  (1) 
0

>  <r_i_glide_emodel>  (1) 
-24.73865268064603

>  <r_i_glide_emodel_strain>  (1) 
0.023492457223216689

>  <r_i_glide_energy>  (1) 
-18.054451169846125

>  <r_i_glide_erotb>  (1) 
0

>  <r_i_glide_esite>  (1) 
-0.070885463262772966

>  <r_i_glide_evdw>  (1) 
-18.079962700221056

>  <r_i_glide_gscore>  (1) 
-5.1559992138215049

>  <r_i_glide_gscore_strain>  (1) 
0

>  <r_i_glide_hbond>  (1) 
0

>  <r_i_glide_ligand_efficiency>  (1) 
-0.39661532414011574

>  <r_i_glide_ligand_efficiency_ln>  (1) 
-1.4463036348692744

>  <r_i_glide_ligand_efficiency_sa>  (1) 
-0.93257536933226626

>  <r_i_glide_lipo>  (1) 
-1.1185298333545624

>  <r_i_glide_metal>  (1) 
-0

>  <r_i_glide_rewards>  (1) 
-3.0664125117493564

>  <r_lp_Energy>  (1) 
15.481259999999999

>  <r_lp_tautomer_probability>  (1) 
1

>  <s_epik_cmdline>  (1) 
J2VwaWtfcHl0aG9uJywgJy1waHQnLCAnMS4wJywgJy1waCcsICc3LjQnLCAnLXRuJywgJzgnLCAnLW1hJywgJzUwMCcsICctaW1hZScsICc8aW5maWxlLm1hZT4nLCAnLW9tYWUnLCAnPG91dGZpbGUubWFlPic=

>  <s_epik_input>  (1) 
TzFbQ0gyXVtDSDJdT1tDSDJdYyhjMTIpW2NIXWMoRilbY0hdYzJbQ0gzXQ==

>  <s_glide_docking_method>  (1) 
confgen

>  <s_i_glide_gridfile>  (1) 
gpcr_drd2_6luq_protein_autoprepared_prepared

>  <s_lp_Force_Field>  (1) 
S-OPLS

>  <s_lp_Variant>  (1) 
Pocket2Mol_97-1

>  <s_m_source_file>  (1) 
generated_generic_title2_ligand_Pocket2Mol_2026-06-23_prepared.sdf

>  <GenAI_Model>  (1) 
Pocket2Mol

>  <Protein>  (1) 
generic_title2

$$$$
Pocket2Mol_14
     RDKit          3D

  0  0  0  0  0  0  0  0  0  0999 V3000
M  V30 BEGIN CTAB
M  V30 COUNTS 17 17 0 0 1
M  V30 BEGIN ATOM
M  V30 1 C 9.896729 7.893543 -7.519123 0
M  V30 2 O 10.890506 8.790272 -7.035121 0
M  V30 3 C 12.175410 8.526511 -7.585018 0
M  V30 4 C 12.167333 8.725699 -9.108271 0 CFG=1
M  V30 5 O 13.431550 8.390227 -9.636928 0
M  V30 6 C 9.775400 8.025487 -9.045485 0
M  V30 7 C 11.117623 7.821460 -9.738764 0
M  V30 8 H 10.145254 6.869377 -7.235881 0
M  V30 9 H 8.943882 8.130977 -7.045278 0
M  V30 10 H 12.472045 7.506473 -7.337520 0
M  V30 11 H 12.902940 9.190250 -7.118334 0
M  V30 12 H 11.940429 9.764183 -9.350798 0
M  V30 13 H 13.983709 9.164381 -9.585077 0
M  V30 14 H 9.057912 7.294053 -9.419497 0
M  V30 15 H 9.374206 9.008335 -9.294379 0
M  V30 16 H 11.030865 8.002551 -10.809491 0
M  V30 17 H 11.422570 6.790224 -9.610794 0
M  V30 END ATOM
M  V30 BEGIN BOND
M  V30 1 1 2 1
M  V30 2 1 3 2
M  V30 3 1 4 3
M  V30 4 1 5 4
M  V30 5 1 6 1
M  V30 6 1 7 4
M  V30 7 1 7 6
M  V30 8 1 8 1
M  V30 9 1 9 1
M  V30 10 1 10 3
M  V30 11 1 11 3
M  V30 12 1 4 12 CFG=1
M  V30 13 1 13 5
M  V30 14 1 14 6
M  V30 15 1 15 6
M  V30 16 1 16 7
M  V30 17 1 17 7
M  V30 END BOND
M  V30 END CTAB
M  END
>  <i_epik_Tot_Q>  (1) 
0

>  <i_epik_Tot_abs_Q>  (1) 
0

>  <i_i_glide_confnum>  (1) 
1

>  <i_i_glide_lignum>  (1) 
17

>  <i_i_glide_posenum>  (1) 
161

>  <i_i_glide_rotatable_bonds>  (1) 
1

>  <i_lp_mmshare_version>  (1) 
72125

>  <i_m_source_file_index>  (1) 
15

>  <i_f3d_flags>  (1) 
0

>  <num_sample>  (1) 
100

>  <b_lp_Chiralities_Consistent>  (1) 
1

>  <r_epik_Charging_Adjusted_Penalty>  (1) 
0

>  <r_epik_Ionization_Penalty>  (1) 
4.2263924331700322e-08

>  <r_epik_Ionization_Penalty_Charging>  (1) 
0

>  <r_epik_Ionization_Penalty_Neutral>  (1) 
4.2263924331700322e-08

>  <r_epik_State_Penalty>  (1) 
-0

>  <r_glide_ring_energy>  (1) 
0

>  <r_i_docking_score>  (1) 
-5.154397697534419

>  <r_i_glide_ecoul>  (1) 
-5.4183955519495957

>  <r_i_glide_eff_state_penalty>  (1) 
-0

>  <r_i_glide_einternal>  (1) 
0.82022950572638509

>  <r_i_glide_emodel>  (1) 
-24.278232543146665

>  <r_i_glide_emodel_strain>  (1) 
0.10226593598107403

>  <r_i_glide_energy>  (1) 
-18.256109644438219

>  <r_i_glide_erotb>  (1) 
0

>  <r_i_glide_esite>  (1) 
0

>  <r_i_glide_evdw>  (1) 
-12.837714092488623

>  <r_i_glide_gscore>  (1) 
-5.154397697534419

>  <r_i_glide_gscore_strain>  (1) 
0

>  <r_i_glide_hbond>  (1) 
-0.32000000000000001

>  <r_i_glide_ligand_efficiency>  (1) 
-0.73634252821920276

>  <r_i_glide_ligand_efficiency_ln>  (1) 
-1.7496791947939476

>  <r_i_glide_ligand_efficiency_sa>  (1) 
-1.4085725834319709

>  <r_i_glide_lipo>  (1) 
-0.77975266011754962

>  <r_i_glide_metal>  (1) 
-0

>  <r_i_glide_rewards>  (1) 
-2.6000000000000001

>  <r_lp_Energy>  (1) 
6.7642049999999996

>  <r_lp_tautomer_probability>  (1) 
1

>  <s_epik_cmdline>  (1) 
J2VwaWtfcHl0aG9uJywgJy1waHQnLCAnMS4wJywgJy1waCcsICc3LjQnLCAnLXRuJywgJzgnLCAnLW1hJywgJzUwMCcsICctaW1hZScsICc8aW5maWxlLm1hZT4nLCAnLW9tYWUnLCAnPG91dGZpbGUubWFlPic=

>  <s_epik_input>  (1) 
W0NIMl0xW0NIMl1bQ0gyXU9bQ0gyXVtDQEhdMVtPSF0=

>  <s_glide_docking_method>  (1) 
confgen

>  <s_i_glide_gridfile>  (1) 
gpcr_drd2_6luq_protein_autoprepared_prepared

>  <s_lp_Force_Field>  (1) 
S-OPLS

>  <s_lp_Variant>  (1) 
Pocket2Mol_14-1

>  <s_m_source_file>  (1) 
generated_generic_title2_ligand_Pocket2Mol_2026-06-23_prepared.sdf

>  <GenAI_Model>  (1) 
Pocket2Mol

>  <Protein>  (1) 
generic_title2

$$$$
Pocket2Mol_86
     RDKit          3D

  0  0  0  0  0  0  0  0  0  0999 V3000
M  V30 BEGIN CTAB
M  V30 COUNTS 25 26 0 0 1
M  V30 BEGIN ATOM
M  V30 1 C 11.775415 8.834847 -5.148190 0
M  V30 2 O 12.174232 9.399836 -6.456363 0
M  V30 3 C 11.529898 8.573279 -7.312478 0
M  V30 4 C 10.917845 7.512519 -6.750332 0
M  V30 5 C 10.193967 6.586367 -7.516444 0
M  V30 6 C 11.067787 7.411254 -5.298857 0
M  V30 7 C 11.484399 8.790227 -8.699291 0
M  V30 8 C 10.105892 6.768955 -8.925704 0
M  V30 9 N 9.375417 5.849196 -9.731061 0
M  V30 10 C 10.770136 7.886050 -9.516099 0
M  V30 11 C 8.430616 4.998067 -9.016421 0
M  V30 12 C 9.044237 6.296231 -11.080626 0
M  V30 13 H 12.628230 8.790190 -4.470377 0
M  V30 14 H 11.068698 9.536911 -4.703065 0
M  V30 15 H 9.713061 5.750923 -7.033940 0
M  V30 16 H 10.116933 7.315334 -4.785035 0
M  V30 17 H 11.727260 6.582055 -5.040080 0
M  V30 18 H 11.984143 9.640740 -9.136674 0
M  V30 19 H 10.729266 8.049557 -10.580856 0
M  V30 20 H 7.762354 5.591973 -8.392616 0
M  V30 21 H 7.813342 4.429740 -9.712440 0
M  V30 22 H 8.957961 4.285402 -8.384944 0
M  V30 23 H 8.575423 7.281445 -11.066696 0
M  V30 24 H 9.932235 6.326881 -11.712481 0
M  V30 25 H 8.339913 5.608814 -11.549275 0
M  V30 END ATOM
M  V30 BEGIN BOND
M  V30 1 1 2 1
M  V30 2 1 3 2
M  V30 3 2 4 3
M  V30 4 1 5 4
M  V30 5 1 6 1
M  V30 6 1 6 4
M  V30 7 1 7 3
M  V30 8 2 8 5
M  V30 9 1 9 8
M  V30 10 2 10 7
M  V30 11 1 10 8
M  V30 12 1 11 9
M  V30 13 1 12 9
M  V30 14 1 13 1
M  V30 15 1 14 1
M  V30 16 1 15 5
M  V30 17 1 16 6
M  V30 18 1 17 6
M  V30 19 1 18 7
M  V30 20 1 19 10
M  V30 21 1 20 11
M  V30 22 1 21 11
M  V30 23 1 22 11
M  V30 24 1 23 12
M  V30 25 1 24 12
M  V30 26 1 25 12
M  V30 END BOND
M  V30 END CTAB
M  END
>  <i_epik_Tot_Q>  (1) 
0

>  <i_epik_Tot_abs_Q>  (1) 
0

>  <i_i_glide_confnum>  (1) 
1

>  <i_i_glide_lignum>  (1) 
93

>  <i_i_glide_posenum>  (1) 
47

>  <i_i_glide_rotatable_bonds>  (1) 
1

>  <i_lp_mmshare_version>  (1) 
72125

>  <i_m_source_file_index>  (1) 
87

>  <i_f3d_flags>  (1) 
0

>  <num_sample>  (1) 
100

>  <b_lp_Chiralities_Consistent>  (1) 
1

>  <r_epik_Charging_Adjusted_Penalty>  (1) 
0.017477600144237933

>  <r_epik_Ionization_Penalty>  (1) 
0.017477600144237951

>  <r_epik_Ionization_Penalty_Charging>  (1) 
0

>  <r_epik_Ionization_Penalty_Neutral>  (1) 
0.017477600144237951

>  <r_epik_State_Penalty>  (1) 
0.017477600144237933

>  <r_glide_ring_energy>  (1) 
0

>  <r_i_docking_score>  (1) 
-5.151319120245466

>  <r_i_glide_ecoul>  (1) 
0.13271962846901814

>  <r_i_glide_eff_state_penalty>  (1) 
0.017477600144237933

>  <r_i_glide_einternal>  (1) 
0.0027986273483422419

>  <r_i_glide_emodel>  (1) 
-29.821003375829171

>  <r_i_glide_emodel_strain>  (1) 
0.0040634915999007148

>  <r_i_glide_energy>  (1) 
-21.712420584889514

>  <r_i_glide_erotb>  (1) 
0

>  <r_i_glide_esite>  (1) 
-0.066551978314574142

>  <r_i_glide_evdw>  (1) 
-21.845140213358533

>  <r_i_glide_gscore>  (1) 
-5.1687967203897038

>  <r_i_glide_gscore_strain>  (1) 
0

>  <r_i_glide_hbond>  (1) 
0

>  <r_i_glide_ligand_efficiency>  (1) 
-0.42927659335378882

>  <r_i_glide_ligand_efficiency_ln>  (1) 
-1.4781799450951834

>  <r_i_glide_ligand_efficiency_sa>  (1) 
-0.98279806081371412

>  <r_i_glide_lipo>  (1) 
-1.3090560079749936

>  <r_i_glide_metal>  (1) 
-0

>  <r_i_glide_rewards>  (1) 
-2.7208396677025619

>  <r_lp_Energy>  (1) 
28.069341999999999

>  <r_lp_tautomer_probability>  (1) 
1

>  <s_epik_cmdline>  (1) 
J2VwaWtfcHl0aG9uJywgJy1waHQnLCAnMS4wJywgJy1waCcsICc3LjQnLCAnLXRuJywgJzgnLCAnLW1hJywgJzUwMCcsICctaW1hZScsICc8aW5maWxlLm1hZT4nLCAnLW9tYWUnLCAnPG91dGZpbGUubWFlPic=

>  <s_epik_input>  (1) 
TzFbQ0gyXVtDSDJdYyhjMTIpW2NIXWMoTihbQ0gzXSlbQ0gzXSlbY0hdW2NIXTI=

>  <s_glide_docking_method>  (1) 
confgen

>  <s_i_glide_gridfile>  (1) 
gpcr_drd2_6luq_protein_autoprepared_prepared

>  <s_lp_Force_Field>  (1) 
S-OPLS

>  <s_lp_Variant>  (1) 
Pocket2Mol_86-1

>  <s_m_source_file>  (1) 
generated_generic_title2_ligand_Pocket2Mol_2026-06-23_prepared.sdf

>  <GenAI_Model>  (1) 
Pocket2Mol

>  <Protein>  (1) 
generic_title2

$$$$
Pocket2Mol_35
     RDKit          3D

  0  0  0  0  0  0  0  0  0  0999 V3000
M  V30 BEGIN CTAB
M  V30 COUNTS 16 17 0 0 1
M  V30 BEGIN ATOM
M  V30 1 C 9.990185 7.560904 -7.584379 0
M  V30 2 O 10.577122 8.845021 -7.148062 0
M  V30 3 C 11.111936 8.512299 -5.957773 0
M  V30 4 C 10.971914 7.238054 -5.586222 0
M  V30 5 C 11.499290 6.790470 -4.363756 0
M  V30 6 N 12.175318 7.614169 -3.512886 0
M  V30 7 C 12.299767 8.917172 -3.905109 0
M  V30 8 C 11.782607 9.412166 -5.126221 0
M  V30 9 C 10.246211 6.390227 -6.529832 0
M  V30 10 H 8.919978 7.702123 -7.731543 0
M  V30 11 H 10.406605 7.290634 -8.555155 0
M  V30 12 H 11.388604 5.761873 -4.057235 0
M  V30 13 H 12.828928 9.573273 -3.229245 0
M  V30 14 H 11.903811 10.446900 -5.407065 0
M  V30 15 H 10.872495 5.590360 -6.924671 0
M  V30 16 H 9.325233 5.995937 -6.100118 0
M  V30 END ATOM
M  V30 BEGIN BOND
M  V30 1 1 2 1
M  V30 2 1 3 2
M  V30 3 2 4 3
M  V30 4 1 5 4
M  V30 5 2 6 5
M  V30 6 1 7 6
M  V30 7 1 8 3
M  V30 8 2 8 7
M  V30 9 1 9 1
M  V30 10 1 9 4
M  V30 11 1 10 1
M  V30 12 1 11 1
M  V30 13 1 12 5
M  V30 14 1 13 7
M  V30 15 1 14 8
M  V30 16 1 15 9
M  V30 17 1 16 9
M  V30 END BOND
M  V30 END CTAB
M  END
>  <i_epik_Tot_Q>  (1) 
0

>  <i_epik_Tot_abs_Q>  (1) 
0

>  <i_i_glide_confnum>  (1) 
1

>  <i_i_glide_lignum>  (1) 
40

>  <i_i_glide_posenum>  (1) 
141

>  <i_i_glide_rotatable_bonds>  (1) 
0

>  <i_lp_mmshare_version>  (1) 
72125

>  <i_m_source_file_index>  (1) 
36

>  <i_f3d_flags>  (1) 
0

>  <num_sample>  (1) 
100

>  <b_lp_Chiralities_Consistent>  (1) 
1

>  <r_epik_Charging_Adjusted_Penalty>  (1) 
0.44367302241175355

>  <r_epik_Ionization_Penalty>  (1) 
0.44367302241175355

>  <r_epik_Ionization_Penalty_Charging>  (1) 
0

>  <r_epik_Ionization_Penalty_Neutral>  (1) 
0.44367302241175355

>  <r_epik_State_Penalty>  (1) 
0.44367302241175355

>  <r_glide_ring_energy>  (1) 
0

>  <r_i_docking_score>  (1) 
-5.1506209775468585

>  <r_i_glide_ecoul>  (1) 
-1.5092118625722435

>  <r_i_glide_eff_state_penalty>  (1) 
0.44367302241175355

>  <r_i_glide_einternal>  (1) 
0

>  <r_i_glide_emodel>  (1) 
-27.797880241576934

>  <r_i_glide_emodel_strain>  (1) 
0

>  <r_i_glide_energy>  (1) 
-20.407741240282924

>  <r_i_glide_erotb>  (1) 
0

>  <r_i_glide_esite>  (1) 
0

>  <r_i_glide_evdw>  (1) 
-18.89852937771068

>  <r_i_glide_gscore>  (1) 
-5.5942939999586123

>  <r_i_glide_gscore_strain>  (1) 
0

>  <r_i_glide_hbond>  (1) 
0

>  <r_i_glide_ligand_efficiency>  (1) 
-0.57229121972742869

>  <r_i_glide_ligand_efficiency_ln>  (1) 
-1.6109662780830114

>  <r_i_glide_ligand_efficiency_sa>  (1) 
-1.1904137082296675

>  <r_i_glide_lipo>  (1) 
-1.6722220836543691

>  <r_i_glide_metal>  (1) 
-0

>  <r_i_glide_rewards>  (1) 
-2.7507636680328731

>  <r_lp_Energy>  (1) 
12.810587999999999

>  <s_epik_cmdline>  (1) 
J2VwaWtfcHl0aG9uJywgJy1waHQnLCAnMS4wJywgJy1waCcsICc3LjQnLCAnLXRuJywgJzgnLCAnLW1hJywgJzUwMCcsICctaW1hZScsICc8aW5maWxlLm1hZT4nLCAnLW9tYWUnLCAnPG91dGZpbGUubWFlPic=

>  <s_epik_input>  (1) 
TzFbQ0gyXVtDSDJdYyhjMTIpW2NIXW5bY0hdW2NIXTI=

>  <s_glide_docking_method>  (1) 
confgen

>  <s_i_glide_gridfile>  (1) 
gpcr_drd2_6luq_protein_autoprepared_prepared

>  <s_lp_Force_Field>  (1) 
S-OPLS

>  <s_lp_Variant>  (1) 
Pocket2Mol_35-2

>  <s_m_source_file>  (1) 
generated_generic_title2_ligand_Pocket2Mol_2026-06-23_prepared.sdf

>  <GenAI_Model>  (1) 
Pocket2Mol

>  <Protein>  (1) 
generic_title2

$$$$
Pocket2Mol_24
     RDKit          3D

  0  0  0  0  0  0  0  0  0  0999 V3000
M  V30 BEGIN CTAB
M  V30 COUNTS 15 16 0 0 1
M  V30 BEGIN ATOM
M  V30 1 C 10.976475 7.214535 -5.413625 0
M  V30 2 O 11.120602 8.593028 -5.769586 0
M  V30 3 C 10.973127 8.774637 -7.177852 0 CFG=2
M  V30 4 C 9.697027 8.224759 -7.775374 0 CFG=1
M  V30 5 O 9.375452 8.692315 -9.063183 0
M  V30 6 C 11.192063 6.411423 -6.694719 0
M  V30 7 C 10.963545 7.403710 -7.774545 0 CFG=2
M  V30 8 H 11.663420 6.937526 -4.616117 0
M  V30 9 H 9.965150 7.048561 -5.049303 0
M  V30 10 H 11.532657 9.587132 -7.639275 0
M  V30 11 H 8.849843 7.957736 -7.146015 0
M  V30 12 H 8.474462 8.390207 -9.244960 0
M  V30 13 H 12.206405 6.028964 -6.761055 0
M  V30 14 H 10.488611 5.589540 -6.788288 0
M  V30 15 H 11.467281 7.237836 -8.725305 0
M  V30 END ATOM
M  V30 BEGIN BOND
M  V30 1 1 2 1
M  V30 2 1 3 2
M  V30 3 1 4 3
M  V30 4 1 5 4
M  V30 5 1 6 1
M  V30 6 1 7 3
M  V30 7 1 7 4
M  V30 8 1 7 6
M  V30 9 1 8 1
M  V30 10 1 9 1
M  V30 11 1 3 10 CFG=3
M  V30 12 1 4 11 CFG=1
M  V30 13 1 12 5
M  V30 14 1 13 6
M  V30 15 1 14 6
M  V30 16 1 7 15 CFG=3
M  V30 END BOND
M  V30 END CTAB
M  END
>  <i_epik_Tot_Q>  (1) 
0

>  <i_epik_Tot_abs_Q>  (1) 
0

>  <i_i_glide_confnum>  (1) 
1

>  <i_i_glide_lignum>  (1) 
28

>  <i_i_glide_posenum>  (1) 
303

>  <i_i_glide_rotatable_bonds>  (1) 
1

>  <i_lp_mmshare_version>  (1) 
72125

>  <i_m_source_file_index>  (1) 
25

>  <i_f3d_flags>  (1) 
0

>  <num_sample>  (1) 
100

>  <b_lp_Chiralities_Consistent>  (1) 
1

>  <r_epik_Charging_Adjusted_Penalty>  (1) 
0

>  <r_epik_Ionization_Penalty>  (1) 
4.3639151522347116e-08

>  <r_epik_Ionization_Penalty_Charging>  (1) 
0

>  <r_epik_Ionization_Penalty_Neutral>  (1) 
4.3639151522347116e-08

>  <r_epik_State_Penalty>  (1) 
-0

>  <r_glide_ring_energy>  (1) 
0

>  <r_i_docking_score>  (1) 
-5.1468453199503141

>  <r_i_glide_ecoul>  (1) 
-7.0498761318335355

>  <r_i_glide_eff_state_penalty>  (1) 
-0

>  <r_i_glide_einternal>  (1) 
0.7322155554752936

>  <r_i_glide_emodel>  (1) 
-24.412532398569866

>  <r_i_glide_emodel_strain>  (1) 
0.34422948977395151

>  <r_i_glide_energy>  (1) 
-18.16075484032212

>  <r_i_glide_erotb>  (1) 
0

>  <r_i_glide_esite>  (1) 
0

>  <r_i_glide_evdw>  (1) 
-11.110878708488583

>  <r_i_glide_gscore>  (1) 
-5.1468453199503141

>  <r_i_glide_gscore_strain>  (1) 
0

>  <r_i_glide_hbond>  (1) 
-0.16

>  <r_i_glide_ligand_efficiency>  (1) 
-0.73526361713575916

>  <r_i_glide_ligand_efficiency_ln>  (1) 
-1.7471155125355031

>  <r_i_glide_ligand_efficiency_sa>  (1) 
-1.406508700777013

>  <r_i_glide_lipo>  (1) 
-0.83165324001870011

>  <r_i_glide_metal>  (1) 
-0

>  <r_i_glide_rewards>  (1) 
-2.5421667247321547

>  <r_lp_Energy>  (1) 
3.2309049999999999

>  <r_lp_tautomer_probability>  (1) 
1

>  <s_epik_cmdline>  (1) 
J2VwaWtfcHl0aG9uJywgJy1waHQnLCAnMS4wJywgJy1waCcsICc3LjQnLCAnLXRuJywgJzgnLCAnLW1hJywgJzUwMCcsICctaW1hZScsICc8aW5maWxlLm1hZT4nLCAnLW9tYWUnLCAnPG91dGZpbGUubWFlPic=

>  <s_epik_input>  (1) 
TzFbQ0gyXVtDSDJdW0NIXShbQ0BIXTEyKVtDQEBIXTJbT0hd

>  <s_glide_docking_method>  (1) 
confgen

>  <s_i_glide_gridfile>  (1) 
gpcr_drd2_6luq_protein_autoprepared_prepared

>  <s_lp_Force_Field>  (1) 
S-OPLS

>  <s_lp_Variant>  (1) 
Pocket2Mol_24-1

>  <s_m_source_file>  (1) 
generated_generic_title2_ligand_Pocket2Mol_2026-06-23_prepared.sdf

>  <GenAI_Model>  (1) 
Pocket2Mol

>  <Protein>  (1) 
generic_title2

$$$$
Pocket2Mol_78
     RDKit          3D

  0  0  0  0  0  0  0  0  0  0999 V3000
M  V30 BEGIN CTAB
M  V30 COUNTS 22 23 0 0 1
M  V30 BEGIN ATOM
M  V30 1 C 10.384009 6.783916 -5.815221 0
M  V30 2 O 11.157074 7.775567 -6.471740 0
M  V30 3 C 11.147016 7.709625 -7.847223 0
M  V30 4 C 9.020271 6.686836 -6.500058 0
M  V30 5 O 9.228115 6.221957 -7.819149 0
M  V30 6 C 10.173102 6.925860 -8.527154 0
M  V30 7 C 10.175410 6.864441 -9.934169 0
M  V30 8 O 9.230162 6.090287 -10.579797 0
M  V30 9 C 12.108536 8.423880 -8.581542 0
M  V30 10 C 12.111241 8.365470 -9.985025 0
M  V30 11 C 11.149998 7.590227 -10.664116 0
M  V30 12 C 9.213510 6.030400 -11.998751 0
M  V30 13 H 10.912744 5.831701 -5.838555 0
M  V30 14 H 10.264980 7.064928 -4.773729 0
M  V30 15 H 8.362259 5.990227 -5.985025 0
M  V30 16 H 8.527173 7.659643 -6.512508 0
M  V30 17 H 12.847652 9.017853 -8.065791 0
M  V30 18 H 12.853311 8.916199 -10.544576 0
M  V30 19 H 11.164634 7.552050 -11.741000 0
M  V30 20 H 8.393555 5.387687 -12.318368 0
M  V30 21 H 9.047444 7.014893 -12.437868 0
M  V30 22 H 10.136834 5.602975 -12.392676 0
M  V30 END ATOM
M  V30 BEGIN BOND
M  V30 1 1 2 1
M  V30 2 1 3 2
M  V30 3 1 4 1
M  V30 4 1 5 4
M  V30 5 1 6 3
M  V30 6 1 6 5
M  V30 7 2 7 6
M  V30 8 1 8 7
M  V30 9 2 9 3
M  V30 10 1 10 9
M  V30 11 1 11 7
M  V30 12 2 11 10
M  V30 13 1 12 8
M  V30 14 1 13 1
M  V30 15 1 14 1
M  V30 16 1 15 4
M  V30 17 1 16 4
M  V30 18 1 17 9
M  V30 19 1 18 10
M  V30 20 1 19 11
M  V30 21 1 20 12
M  V30 22 1 21 12
M  V30 23 1 22 12
M  V30 END BOND
M  V30 END CTAB
M  END
>  <i_epik_Tot_Q>  (1) 
0

>  <i_epik_Tot_abs_Q>  (1) 
0

>  <i_i_glide_confnum>  (1) 
1

>  <i_i_glide_lignum>  (1) 
85

>  <i_i_glide_posenum>  (1) 
69

>  <i_i_glide_rotatable_bonds>  (1) 
1

>  <i_lp_mmshare_version>  (1) 
72125

>  <i_m_source_file_index>  (1) 
79

>  <i_f3d_flags>  (1) 
0

>  <num_sample>  (1) 
100

>  <b_lp_Chiralities_Consistent>  (1) 
1

>  <r_epik_Charging_Adjusted_Penalty>  (1) 
0

>  <r_epik_Ionization_Penalty>  (1) 
0

>  <r_epik_Ionization_Penalty_Charging>  (1) 
0

>  <r_epik_Ionization_Penalty_Neutral>  (1) 
0

>  <r_epik_State_Penalty>  (1) 
-0

>  <r_glide_ring_energy>  (1) 
0

>  <r_i_docking_score>  (1) 
-5.1401070037186409

>  <r_i_glide_ecoul>  (1) 
-0.081665280965574905

>  <r_i_glide_eff_state_penalty>  (1) 
-0

>  <r_i_glide_einternal>  (1) 
0.00089270238732286344

>  <r_i_glide_emodel>  (1) 
-25.851879321085999

>  <r_i_glide_emodel_strain>  (1) 
0

>  <r_i_glide_energy>  (1) 
-19.387810911168135

>  <r_i_glide_erotb>  (1) 
0

>  <r_i_glide_esite>  (1) 
0

>  <r_i_glide_evdw>  (1) 
-19.306145630202561

>  <r_i_glide_gscore>  (1) 
-5.1401070037186409

>  <r_i_glide_gscore_strain>  (1) 
0

>  <r_i_glide_hbond>  (1) 
0

>  <r_i_glide_ligand_efficiency>  (1) 
-0.42834225030988676

>  <r_i_glide_ligand_efficiency_ln>  (1) 
-1.4749626088352561

>  <r_i_glide_ligand_efficiency_sa>  (1) 
-0.98065894923414343

>  <r_i_glide_lipo>  (1) 
-1.1904473146260361

>  <r_i_glide_metal>  (1) 
-0

>  <r_i_glide_rewards>  (1) 
-2.9721026154376409

>  <r_lp_Energy>  (1) 
20.318058000000001

>  <r_lp_tautomer_probability>  (1) 
1

>  <s_epik_cmdline>  (1) 
J2VwaWtfcHl0aG9uJywgJy1waHQnLCAnMS4wJywgJy1waCcsICc3LjQnLCAnLXRuJywgJzgnLCAnLW1hJywgJzUwMCcsICctaW1hZScsICc8aW5maWxlLm1hZT4nLCAnLW9tYWUnLCAnPG91dGZpbGUubWFlPic=

>  <s_epik_input>  (1) 
TzFbQ0gyXVtDSDJdT2MoYzEyKWMoT1tDSDNdKVtjSF1bY0hdW2NIXTI=

>  <s_glide_docking_method>  (1) 
confgen

>  <s_i_glide_gridfile>  (1) 
gpcr_drd2_6luq_protein_autoprepared_prepared

>  <s_lp_Force_Field>  (1) 
S-OPLS

>  <s_lp_Variant>  (1) 
Pocket2Mol_78-1

>  <s_m_source_file>  (1) 
generated_generic_title2_ligand_Pocket2Mol_2026-06-23_prepared.sdf

>  <GenAI_Model>  (1) 
Pocket2Mol

>  <Protein>  (1) 
generic_title2

$$$$
Pocket2Mol_35
     RDKit          3D

  0  0  0  0  0  0  0  0  0  0999 V3000
M  V30 BEGIN CTAB
M  V30 COUNTS 16 17 0 0 1
M  V30 BEGIN ATOM
M  V30 1 C 12.021993 7.244537 -2.551310 0
M  V30 2 O 11.437836 6.390216 -3.611236 0
M  V30 3 C 11.375409 7.251643 -4.646599 0
M  V30 4 C 11.775410 8.505684 -4.396744 0
M  V30 5 C 11.756762 9.471226 -5.415269 0
M  V30 6 N 11.345151 9.190215 -6.679119 0
M  V30 7 C 10.930492 7.911316 -6.914619 0
M  V30 8 C 10.931523 6.903732 -5.923829 0
M  V30 9 C 12.225189 8.762271 -3.025865 0
M  V30 10 H 11.376124 7.209114 -1.673613 0
M  V30 11 H 12.975395 6.811521 -2.251600 0
M  V30 12 H 12.079782 10.482590 -5.223910 0
M  V30 13 H 10.595950 7.691860 -7.917748 0
M  V30 14 H 10.601365 5.901949 -6.147050 0
M  V30 15 H 13.262935 9.094122 -2.983562 0
M  V30 16 H 11.570101 9.464837 -2.509647 0
M  V30 END ATOM
M  V30 BEGIN BOND
M  V30 1 1 2 1
M  V30 2 1 3 2
M  V30 3 2 4 3
M  V30 4 1 5 4
M  V30 5 2 6 5
M  V30 6 1 7 6
M  V30 7 1 8 3
M  V30 8 2 8 7
M  V30 9 1 9 1
M  V30 10 1 9 4
M  V30 11 1 10 1
M  V30 12 1 11 1
M  V30 13 1 12 5
M  V30 14 1 13 7
M  V30 15 1 14 8
M  V30 16 1 15 9
M  V30 17 1 16 9
M  V30 END BOND
M  V30 END CTAB
M  END
>  <i_epik_Tot_Q>  (1) 
0

>  <i_epik_Tot_abs_Q>  (1) 
0

>  <i_i_glide_confnum>  (1) 
1

>  <i_i_glide_lignum>  (1) 
40

>  <i_i_glide_posenum>  (1) 
6

>  <i_i_glide_rotatable_bonds>  (1) 
0

>  <i_lp_mmshare_version>  (1) 
72125

>  <i_m_source_file_index>  (1) 
36

>  <i_f3d_flags>  (1) 
0

>  <num_sample>  (1) 
100

>  <b_lp_Chiralities_Consistent>  (1) 
1

>  <r_epik_Charging_Adjusted_Penalty>  (1) 
0.44367302241175355

>  <r_epik_Ionization_Penalty>  (1) 
0.44367302241175355

>  <r_epik_Ionization_Penalty_Charging>  (1) 
0

>  <r_epik_Ionization_Penalty_Neutral>  (1) 
0.44367302241175355

>  <r_epik_State_Penalty>  (1) 
0.44367302241175355

>  <r_glide_ring_energy>  (1) 
0

>  <r_i_docking_score>  (1) 
-5.1356891184722793

>  <r_i_glide_ecoul>  (1) 
-0.13647326732117032

>  <r_i_glide_eff_state_penalty>  (1) 
0.44367302241175355

>  <r_i_glide_einternal>  (1) 
0

>  <r_i_glide_emodel>  (1) 
-27.526000325737478

>  <r_i_glide_emodel_strain>  (1) 
0

>  <r_i_glide_energy>  (1) 
-20.155586514808807

>  <r_i_glide_erotb>  (1) 
0

>  <r_i_glide_esite>  (1) 
0

>  <r_i_glide_evdw>  (1) 
-20.019113247487635

>  <r_i_glide_gscore>  (1) 
-5.579362140884033

>  <r_i_glide_gscore_strain>  (1) 
0

>  <r_i_glide_hbond>  (1) 
0

>  <r_i_glide_ligand_efficiency>  (1) 
-0.57063212427469767

>  <r_i_glide_ligand_efficiency_ln>  (1) 
-1.6062960215172308

>  <r_i_glide_ligand_efficiency_sa>  (1) 
-1.1869626506175426

>  <r_i_glide_lipo>  (1) 
-1.844378965789147

>  <r_i_glide_metal>  (1) 
-0

>  <r_i_glide_rewards>  (1) 
-2.7135565226223282

>  <r_lp_Energy>  (1) 
12.810587999999999

>  <s_epik_cmdline>  (1) 
J2VwaWtfcHl0aG9uJywgJy1waHQnLCAnMS4wJywgJy1waCcsICc3LjQnLCAnLXRuJywgJzgnLCAnLW1hJywgJzUwMCcsICctaW1hZScsICc8aW5maWxlLm1hZT4nLCAnLW9tYWUnLCAnPG91dGZpbGUubWFlPic=

>  <s_epik_input>  (1) 
TzFbQ0gyXVtDSDJdYyhjMTIpW2NIXW5bY0hdW2NIXTI=

>  <s_glide_docking_method>  (1) 
confgen

>  <s_i_glide_gridfile>  (1) 
gpcr_drd2_6luq_protein_autoprepared_prepared

>  <s_lp_Force_Field>  (1) 
S-OPLS

>  <s_lp_Variant>  (1) 
Pocket2Mol_35-2

>  <s_m_source_file>  (1) 
generated_generic_title2_ligand_Pocket2Mol_2026-06-23_prepared.sdf

>  <GenAI_Model>  (1) 
Pocket2Mol

>  <Protein>  (1) 
generic_title2

$$$$
Pocket2Mol_23
     RDKit          3D

  0  0  0  0  0  0  0  0  0  0999 V3000
M  V30 BEGIN CTAB
M  V30 COUNTS 11 11 0 0 1
M  V30 BEGIN ATOM
M  V30 1 N 12.177746 9.190236 -3.216074 0
M  V30 2 C 11.781318 9.177281 -4.511610 0
M  V30 3 C 11.375388 8.008992 -5.185024 0
M  V30 4 C 12.175420 8.008735 -2.554554 0
M  V30 5 C 11.783467 6.790223 -3.143228 0
M  V30 6 F 10.990634 8.060486 -6.481734 0
M  V30 7 C 11.375407 6.790309 -4.487340 0
M  V30 8 H 11.789194 10.127744 -5.024332 0
M  V30 9 H 12.494771 8.037966 -1.523617 0
M  V30 10 H 11.796338 5.873262 -2.571833 0
M  V30 11 H 11.067965 5.876361 -4.972090 0
M  V30 END ATOM
M  V30 BEGIN BOND
M  V30 1 2 2 1
M  V30 2 1 3 2
M  V30 3 1 4 1
M  V30 4 2 5 4
M  V30 5 1 6 3
M  V30 6 2 7 3
M  V30 7 1 7 5
M  V30 8 1 8 2
M  V30 9 1 9 4
M  V30 10 1 10 5
M  V30 11 1 11 7
M  V30 END BOND
M  V30 END CTAB
M  END
>  <i_epik_Tot_Q>  (1) 
0

>  <i_epik_Tot_abs_Q>  (1) 
0

>  <i_i_glide_confnum>  (1) 
1

>  <i_i_glide_lignum>  (1) 
27

>  <i_i_glide_posenum>  (1) 
71

>  <i_i_glide_rotatable_bonds>  (1) 
0

>  <i_lp_mmshare_version>  (1) 
72125

>  <i_m_source_file_index>  (1) 
24

>  <i_f3d_flags>  (1) 
0

>  <num_sample>  (1) 
100

>  <b_lp_Chiralities_Consistent>  (1) 
1

>  <r_epik_Charging_Adjusted_Penalty>  (1) 
0

>  <r_epik_Ionization_Penalty>  (1) 
7.3223601380878174e-05

>  <r_epik_Ionization_Penalty_Charging>  (1) 
0

>  <r_epik_Ionization_Penalty_Neutral>  (1) 
7.3223601380878174e-05

>  <r_epik_State_Penalty>  (1) 
-0

>  <r_glide_ring_energy>  (1) 
0

>  <r_i_docking_score>  (1) 
-5.1303805736070931

>  <r_i_glide_ecoul>  (1) 
-0.15616399415308885

>  <r_i_glide_eff_state_penalty>  (1) 
-0

>  <r_i_glide_einternal>  (1) 
0

>  <r_i_glide_emodel>  (1) 
-20.690052626907455

>  <r_i_glide_emodel_strain>  (1) 
0

>  <r_i_glide_energy>  (1) 
-15.44921620488809

>  <r_i_glide_erotb>  (1) 
0

>  <r_i_glide_esite>  (1) 
0

>  <r_i_glide_evdw>  (1) 
-15.293052210735002

>  <r_i_glide_gscore>  (1) 
-5.1303805736070931

>  <r_i_glide_gscore_strain>  (1) 
0

>  <r_i_glide_hbond>  (1) 
0

>  <r_i_glide_ligand_efficiency>  (1) 
-0.73291151051529901

>  <r_i_glide_ligand_efficiency_ln>  (1) 
-1.7415264940284378

>  <r_i_glide_ligand_efficiency_sa>  (1) 
-1.4020092826775292

>  <r_i_glide_lipo>  (1) 
-1.4679527585032204

>  <r_i_glide_metal>  (1) 
-0

>  <r_i_glide_rewards>  (1) 
-2.8743506054441594

>  <r_lp_Energy>  (1) 
10.789624

>  <r_lp_tautomer_probability>  (1) 
1

>  <s_epik_cmdline>  (1) 
J2VwaWtfcHl0aG9uJywgJy1waHQnLCAnMS4wJywgJy1waCcsICc3LjQnLCAnLXRuJywgJzgnLCAnLW1hJywgJzUwMCcsICctaW1hZScsICc8aW5maWxlLm1hZT4nLCAnLW9tYWUnLCAnPG91dGZpbGUubWFlPic=

>  <s_epik_input>  (1) 
W2NIXTFbY0hdW2NIXW5bY0hdYzFG

>  <s_glide_docking_method>  (1) 
confgen

>  <s_i_glide_gridfile>  (1) 
gpcr_drd2_6luq_protein_autoprepared_prepared

>  <s_lp_Force_Field>  (1) 
S-OPLS

>  <s_lp_Variant>  (1) 
Pocket2Mol_23-1

>  <s_m_source_file>  (1) 
generated_generic_title2_ligand_Pocket2Mol_2026-06-23_prepared.sdf

>  <GenAI_Model>  (1) 
Pocket2Mol

>  <Protein>  (1) 
generic_title2

$$$$
Pocket2Mol_35
     RDKit          3D

  0  0  0  0  0  0  0  0  0  0999 V3000
M  V30 BEGIN CTAB
M  V30 COUNTS 17 18 0 0 1
M  V30 BEGIN ATOM
M  V30 1 C 10.036984 7.543767 -7.744112 0
M  V30 2 O 10.668260 8.810486 -7.323394 0
M  V30 3 C 11.126450 8.504450 -6.094716 0
M  V30 4 C 10.928829 7.236359 -5.696899 0
M  V30 5 C 11.375397 6.798371 -4.437580 0
M  V30 6 N 12.009514 7.681045 -3.626515 0 CHG=1
M  V30 7 C 12.221842 8.973794 -3.985025 0
M  V30 8 C 11.777715 9.426944 -5.253679 0
M  V30 9 C 10.233176 6.389270 -6.661821 0
M  V30 10 H 10.437895 7.233323 -8.710005 0
M  V30 11 H 8.975313 7.734139 -7.897261 0
M  V30 12 H 11.250650 5.799691 -4.056907 0
M  V30 13 H 12.734228 9.590666 -3.260672 0
M  V30 14 H 11.936217 10.446015 -5.570429 0
M  V30 15 H 10.879170 5.590311 -7.021303 0
M  V30 16 H 9.293167 5.992537 -6.276459 0
M  V30 17 H 12.333937 7.364395 -2.711552 0
M  V30 END ATOM
M  V30 BEGIN BOND
M  V30 1 1 2 1
M  V30 2 1 3 2
M  V30 3 2 4 3
M  V30 4 1 5 4
M  V30 5 2 6 5
M  V30 6 1 7 6
M  V30 7 1 8 3
M  V30 8 2 8 7
M  V30 9 1 9 1
M  V30 10 1 9 4
M  V30 11 1 10 1
M  V30 12 1 11 1
M  V30 13 1 12 5
M  V30 14 1 13 7
M  V30 15 1 14 8
M  V30 16 1 15 9
M  V30 17 1 16 9
M  V30 18 1 17 6
M  V30 END BOND
M  V30 END CTAB
M  END
>  <i_epik_Tot_Q>  (1) 
1

>  <i_epik_Tot_abs_Q>  (1) 
1

>  <i_i_glide_confnum>  (1) 
1

>  <i_i_glide_lignum>  (1) 
39

>  <i_i_glide_posenum>  (1) 
136

>  <i_i_glide_rotatable_bonds>  (1) 
0

>  <i_lp_mmshare_version>  (1) 
72125

>  <i_m_source_file_index>  (1) 
36

>  <i_f3d_flags>  (1) 
0

>  <num_sample>  (1) 
100

>  <b_lp_Chiralities_Consistent>  (1) 
1

>  <r_epik_Charging_Adjusted_Penalty>  (1) 
0.75885481127580245

>  <r_epik_Ionization_Penalty>  (1) 
0.37942740563790117

>  <r_epik_Ionization_Penalty_Charging>  (1) 
0.37942740563790117

>  <r_epik_Ionization_Penalty_Neutral>  (1) 
0

>  <r_epik_State_Penalty>  (1) 
0.37942740563790123

>  <r_glide_ring_energy>  (1) 
0

>  <r_i_docking_score>  (1) 
-5.1282316690390353

>  <r_i_glide_ecoul>  (1) 
-1.892554031019086

>  <r_i_glide_eff_state_penalty>  (1) 
0.37942740563790123

>  <r_i_glide_einternal>  (1) 
0

>  <r_i_glide_emodel>  (1) 
-29.574092776938794

>  <r_i_glide_emodel_strain>  (1) 
0

>  <r_i_glide_energy>  (1) 
-19.096824814771704

>  <r_i_glide_erotb>  (1) 
0

>  <r_i_glide_esite>  (1) 
0

>  <r_i_glide_evdw>  (1) 
-17.204270783752619

>  <r_i_glide_gscore>  (1) 
-5.5076590746769369

>  <r_i_glide_gscore_strain>  (1) 
0

>  <r_i_glide_hbond>  (1) 
0

>  <r_i_glide_ligand_efficiency>  (1) 
-0.56980351878211499

>  <r_i_glide_ligand_efficiency_ln>  (1) 
-1.6039635455672752

>  <r_i_glide_ligand_efficiency_sa>  (1) 
-1.1852390817367295

>  <r_i_glide_lipo>  (1) 
-1.687637963859963

>  <r_i_glide_metal>  (1) 
-0

>  <r_i_glide_rewards>  (1) 
-2.6759244669764803

>  <r_lp_Energy>  (1) 
18.327531999999998

>  <s_epik_cmdline>  (1) 
J2VwaWtfcHl0aG9uJywgJy1waHQnLCAnMS4wJywgJy1waCcsICc3LjQnLCAnLXRuJywgJzgnLCAnLW1hJywgJzUwMCcsICctaW1hZScsICc8aW5maWxlLm1hZT4nLCAnLW9tYWUnLCAnPG91dGZpbGUubWFlPic=

>  <s_epik_input>  (1) 
TzFbQ0gyXVtDSDJdYyhjMTIpW2NIXW5bY0hdW2NIXTI=

>  <s_glide_docking_method>  (1) 
confgen

>  <s_i_glide_gridfile>  (1) 
gpcr_drd2_6luq_protein_autoprepared_prepared

>  <s_lp_Force_Field>  (1) 
S-OPLS

>  <s_lp_Variant>  (1) 
Pocket2Mol_35-1

>  <s_m_source_file>  (1) 
generated_generic_title2_ligand_Pocket2Mol_2026-06-23_prepared.sdf

>  <GenAI_Model>  (1) 
Pocket2Mol

>  <Protein>  (1) 
generic_title2

$$$$
Pocket2Mol_36
     RDKit          3D

  0  0  0  0  0  0  0  0  0  0999 V3000
M  V30 BEGIN CTAB
M  V30 COUNTS 15 16 0 0 1
M  V30 BEGIN ATOM
M  V30 1 C 9.941942 7.439012 -7.182549 0
M  V30 2 O 10.372669 6.441187 -6.206855 0
M  V30 3 C 10.975544 7.240770 -5.321126 0
M  V30 4 C 10.974558 8.530590 -5.659459 0
M  V30 5 C 11.566345 9.511198 -4.843714 0
M  V30 6 C 12.174907 9.109840 -3.629131 0
M  V30 7 C 12.175604 7.736185 -3.268632 0
M  V30 8 C 11.568338 6.790227 -4.128987 0
M  V30 9 O 10.364787 8.790215 -6.819353 0
M  V30 10 H 8.852958 7.415158 -7.250020 0
M  V30 11 H 10.349968 7.191657 -8.164263 0
M  V30 12 H 11.554117 10.551659 -5.136586 0
M  V30 13 H 12.631394 9.843650 -2.980060 0
M  V30 14 H 12.633378 7.415195 -2.343840 0
M  V30 15 H 11.557807 5.741858 -3.873155 0
M  V30 END ATOM
M  V30 BEGIN BOND
M  V30 1 1 2 1
M  V30 2 1 3 2
M  V30 3 1 4 3
M  V30 4 2 5 4
M  V30 5 1 6 5
M  V30 6 2 7 6
M  V30 7 2 8 3
M  V30 8 1 8 7
M  V30 9 1 9 1
M  V30 10 1 9 4
M  V30 11 1 10 1
M  V30 12 1 11 1
M  V30 13 1 12 5
M  V30 14 1 13 6
M  V30 15 1 14 7
M  V30 16 1 15 8
M  V30 END BOND
M  V30 END CTAB
M  END
>  <i_epik_Tot_Q>  (1) 
0

>  <i_epik_Tot_abs_Q>  (1) 
0

>  <i_i_glide_confnum>  (1) 
1

>  <i_i_glide_lignum>  (1) 
41

>  <i_i_glide_posenum>  (1) 
52

>  <i_i_glide_rotatable_bonds>  (1) 
0

>  <i_lp_mmshare_version>  (1) 
72125

>  <i_m_source_file_index>  (1) 
37

>  <i_f3d_flags>  (1) 
0

>  <num_sample>  (1) 
100

>  <b_lp_Chiralities_Consistent>  (1) 
1

>  <r_epik_Charging_Adjusted_Penalty>  (1) 
0

>  <r_epik_Ionization_Penalty>  (1) 
0

>  <r_epik_Ionization_Penalty_Charging>  (1) 
0

>  <r_epik_Ionization_Penalty_Neutral>  (1) 
0

>  <r_epik_State_Penalty>  (1) 
-0

>  <r_glide_ring_energy>  (1) 
0

>  <r_i_docking_score>  (1) 
-5.1253067864735673

>  <r_i_glide_ecoul>  (1) 
-1.0466097407821198

>  <r_i_glide_eff_state_penalty>  (1) 
-0

>  <r_i_glide_einternal>  (1) 
0

>  <r_i_glide_emodel>  (1) 
-26.698149706333957

>  <r_i_glide_emodel_strain>  (1) 
0

>  <r_i_glide_energy>  (1) 
-20.089135004612046

>  <r_i_glide_erotb>  (1) 
0

>  <r_i_glide_esite>  (1) 
-0.029581924224471881

>  <r_i_glide_evdw>  (1) 
-19.042525263829926

>  <r_i_glide_gscore>  (1) 
-5.1253067864735673

>  <r_i_glide_gscore_strain>  (1) 
0

>  <r_i_glide_hbond>  (1) 
0

>  <r_i_glide_ligand_efficiency>  (1) 
-0.56947853183039632

>  <r_i_glide_ligand_efficiency_ln>  (1) 
-1.6030487263249231

>  <r_i_glide_ligand_efficiency_sa>  (1) 
-1.1845630816357566

>  <r_i_glide_lipo>  (1) 
-1.7366071379402814

>  <r_i_glide_metal>  (1) 
-0

>  <r_i_glide_rewards>  (1) 
-2.25

>  <r_lp_Energy>  (1) 
19.342482

>  <r_lp_tautomer_probability>  (1) 
1

>  <s_epik_Chemistry_Notes>  (1) 
This compound contains an acetal/aminal-like group ( X-CH(R)-Y where X, Y are N, S, or O) that may be acid/base labile, releasing an aldehyde.

>  <s_epik_cmdline>  (1) 
J2VwaWtfcHl0aG9uJywgJy1waHQnLCAnMS4wJywgJy1waCcsICc3LjQnLCAnLXRuJywgJzgnLCAnLW1hJywgJzUwMCcsICctaW1hZScsICc8aW5maWxlLm1hZT4nLCAnLW9tYWUnLCAnPG91dGZpbGUubWFlPic=

>  <s_epik_input>  (1) 
TzFbQ0gyXU9jKGMxMilbY0hdW2NIXVtjSF1bY0hdMg==

>  <s_glide_docking_method>  (1) 
confgen

>  <s_i_glide_gridfile>  (1) 
gpcr_drd2_6luq_protein_autoprepared_prepared

>  <s_lp_Force_Field>  (1) 
S-OPLS

>  <s_lp_Variant>  (1) 
Pocket2Mol_36-1

>  <s_m_source_file>  (1) 
generated_generic_title2_ligand_Pocket2Mol_2026-06-23_prepared.sdf

>  <GenAI_Model>  (1) 
Pocket2Mol

>  <Protein>  (1) 
generic_title2

$$$$
Pocket2Mol_35
     RDKit          3D

  0  0  0  0  0  0  0  0  0  0999 V3000
M  V30 BEGIN CTAB
M  V30 COUNTS 17 18 0 0 1
M  V30 BEGIN ATOM
M  V30 1 C 12.494833 8.548980 -2.121085 0
M  V30 2 O 12.216049 9.590226 -3.135342 0
M  V30 3 C 11.792210 8.853485 -4.177764 0
M  V30 4 C 11.775410 7.519309 -3.985028 0
M  V30 5 C 11.340858 6.656619 -5.000833 0
M  V30 6 N 10.937629 7.181860 -6.181006 0 CHG=1
M  V30 7 C 10.939335 8.517027 -6.420643 0
M  V30 8 C 11.375410 9.406045 -5.406797 0
M  V30 9 C 12.219629 7.070019 -2.664181 0
M  V30 10 H 11.875403 8.746911 -1.245202 0
M  V30 11 H 13.530123 8.649453 -1.795673 0
M  V30 12 H 11.298440 5.590227 -4.912452 0
M  V30 13 H 10.595343 8.824913 -7.397587 0
M  V30 14 H 11.383861 10.473933 -5.568011 0
M  V30 15 H 11.428491 6.552073 -2.120250 0
M  V30 16 H 13.118823 6.457866 -2.719875 0
M  V30 17 H 10.617197 6.549824 -6.917838 0
M  V30 END ATOM
M  V30 BEGIN BOND
M  V30 1 1 2 1
M  V30 2 1 3 2
M  V30 3 2 4 3
M  V30 4 1 5 4
M  V30 5 2 6 5
M  V30 6 1 7 6
M  V30 7 1 8 3
M  V30 8 2 8 7
M  V30 9 1 9 1
M  V30 10 1 9 4
M  V30 11 1 10 1
M  V30 12 1 11 1
M  V30 13 1 12 5
M  V30 14 1 13 7
M  V30 15 1 14 8
M  V30 16 1 15 9
M  V30 17 1 16 9
M  V30 18 1 17 6
M  V30 END BOND
M  V30 END CTAB
M  END
>  <i_epik_Tot_Q>  (1) 
1

>  <i_epik_Tot_abs_Q>  (1) 
1

>  <i_i_glide_confnum>  (1) 
1

>  <i_i_glide_lignum>  (1) 
39

>  <i_i_glide_posenum>  (1) 
138

>  <i_i_glide_rotatable_bonds>  (1) 
0

>  <i_lp_mmshare_version>  (1) 
72125

>  <i_m_source_file_index>  (1) 
36

>  <i_f3d_flags>  (1) 
0

>  <num_sample>  (1) 
100

>  <b_lp_Chiralities_Consistent>  (1) 
1

>  <r_epik_Charging_Adjusted_Penalty>  (1) 
0.75885481127580245

>  <r_epik_Ionization_Penalty>  (1) 
0.37942740563790117

>  <r_epik_Ionization_Penalty_Charging>  (1) 
0.37942740563790117

>  <r_epik_Ionization_Penalty_Neutral>  (1) 
0

>  <r_epik_State_Penalty>  (1) 
0.37942740563790123

>  <r_glide_ring_energy>  (1) 
0

>  <r_i_docking_score>  (1) 
-5.1231330362413754

>  <r_i_glide_ecoul>  (1) 
-0.8011470168002246

>  <r_i_glide_eff_state_penalty>  (1) 
0.37942740563790123

>  <r_i_glide_einternal>  (1) 
0

>  <r_i_glide_emodel>  (1) 
-28.756570032269742

>  <r_i_glide_emodel_strain>  (1) 
0

>  <r_i_glide_energy>  (1) 
-18.289001243805579

>  <r_i_glide_erotb>  (1) 
0

>  <r_i_glide_esite>  (1) 
0

>  <r_i_glide_evdw>  (1) 
-17.487854227005354

>  <r_i_glide_gscore>  (1) 
-5.5025604418792771

>  <r_i_glide_gscore_strain>  (1) 
0

>  <r_i_glide_hbond>  (1) 
0

>  <r_i_glide_ligand_efficiency>  (1) 
-0.56923700402681954

>  <r_i_glide_ligand_efficiency_ln>  (1) 
-1.6023688396983782

>  <r_i_glide_ligand_efficiency_sa>  (1) 
-1.1840606835587191

>  <r_i_glide_lipo>  (1) 
-2.0223787753870743

>  <r_i_glide_metal>  (1) 
-0

>  <r_i_glide_rewards>  (1) 
-2.485616902621901

>  <r_lp_Energy>  (1) 
18.327531999999998

>  <s_epik_cmdline>  (1) 
J2VwaWtfcHl0aG9uJywgJy1waHQnLCAnMS4wJywgJy1waCcsICc3LjQnLCAnLXRuJywgJzgnLCAnLW1hJywgJzUwMCcsICctaW1hZScsICc8aW5maWxlLm1hZT4nLCAnLW9tYWUnLCAnPG91dGZpbGUubWFlPic=

>  <s_epik_input>  (1) 
TzFbQ0gyXVtDSDJdYyhjMTIpW2NIXW5bY0hdW2NIXTI=

>  <s_glide_docking_method>  (1) 
confgen

>  <s_i_glide_gridfile>  (1) 
gpcr_drd2_6luq_protein_autoprepared_prepared

>  <s_lp_Force_Field>  (1) 
S-OPLS

>  <s_lp_Variant>  (1) 
Pocket2Mol_35-1

>  <s_m_source_file>  (1) 
generated_generic_title2_ligand_Pocket2Mol_2026-06-23_prepared.sdf

>  <GenAI_Model>  (1) 
Pocket2Mol

>  <Protein>  (1) 
generic_title2

$$$$
Pocket2Mol_89
     RDKit          3D

  0  0  0  0  0  0  0  0  0  0999 V3000
M  V30 BEGIN CTAB
M  V30 COUNTS 23 24 0 0 1
M  V30 BEGIN ATOM
M  V30 1 C 9.152736 4.951533 -8.367967 0
M  V30 2 O 8.595103 5.606848 -9.492252 0
M  V30 3 C 9.059752 5.857285 -7.154070 0
M  V30 4 O 9.205676 7.203586 -7.516732 0
M  V30 5 C 9.375413 6.342101 -10.333743 0
M  V30 6 C 10.316976 7.527460 -8.241327 0
M  V30 7 C 11.348991 8.262273 -7.621902 0
M  V30 8 O 9.257693 6.303624 -11.558465 0
M  V30 9 C 10.432001 7.166875 -9.620894 0
M  V30 10 C 11.232941 8.647278 -6.159013 0
M  V30 11 C 11.561186 7.590234 -10.352888 0
M  V30 12 C 12.582726 8.320128 -9.721755 0
M  V30 13 C 12.483503 8.641498 -8.358675 0
M  V30 14 H 10.186257 4.669076 -8.567686 0
M  V30 15 H 8.608645 4.032201 -8.160456 0
M  V30 16 H 9.803799 5.590234 -6.404698 0
M  V30 17 H 8.078814 5.753197 -6.691733 0
M  V30 18 H 12.049254 9.300189 -5.847856 0
M  V30 19 H 10.294825 9.175932 -5.984249 0
M  V30 20 H 11.248966 7.755514 -5.532342 0
M  V30 21 H 11.652387 7.335518 -11.399084 0
M  V30 22 H 13.451351 8.628587 -10.285230 0
M  V30 23 H 13.277095 9.190225 -7.879271 0
M  V30 END ATOM
M  V30 BEGIN BOND
M  V30 1 1 2 1
M  V30 2 1 3 1
M  V30 3 1 4 3
M  V30 4 1 5 2
M  V30 5 1 6 4
M  V30 6 2 7 6
M  V30 7 2 8 5
M  V30 8 1 9 5
M  V30 9 1 9 6
M  V30 10 1 10 7
M  V30 11 2 11 9
M  V30 12 1 12 11
M  V30 13 1 13 7
M  V30 14 2 13 12
M  V30 15 1 14 1
M  V30 16 1 15 1
M  V30 17 1 16 3
M  V30 18 1 17 3
M  V30 19 1 18 10
M  V30 20 1 19 10
M  V30 21 1 20 10
M  V30 22 1 21 11
M  V30 23 1 22 12
M  V30 24 1 23 13
M  V30 END BOND
M  V30 END CTAB
M  END
>  <i_epik_Tot_Q>  (1) 
0

>  <i_epik_Tot_abs_Q>  (1) 
0

>  <i_i_glide_confnum>  (1) 
3

>  <i_i_glide_lignum>  (1) 
96

>  <i_i_glide_posenum>  (1) 
207

>  <i_i_glide_rotatable_bonds>  (1) 
0

>  <i_lp_mmshare_version>  (1) 
72125

>  <i_m_source_file_index>  (1) 
90

>  <i_f3d_flags>  (1) 
0

>  <num_sample>  (1) 
100

>  <b_lp_Chiralities_Consistent>  (1) 
1

>  <r_epik_Charging_Adjusted_Penalty>  (1) 
0

>  <r_epik_Ionization_Penalty>  (1) 
1.0524661445465699e-15

>  <r_epik_Ionization_Penalty_Charging>  (1) 
0

>  <r_epik_Ionization_Penalty_Neutral>  (1) 
1.0524661445465699e-15

>  <r_epik_State_Penalty>  (1) 
-0

>  <r_glide_ring_energy>  (1) 
0.44692708829558941

>  <r_i_docking_score>  (1) 
-5.1221862282100084

>  <r_i_glide_ecoul>  (1) 
0.67858468502843516

>  <r_i_glide_eff_state_penalty>  (1) 
-0

>  <r_i_glide_einternal>  (1) 
0

>  <r_i_glide_emodel>  (1) 
-25.353789183039453

>  <r_i_glide_emodel_strain>  (1) 
0

>  <r_i_glide_energy>  (1) 
-18.967877291954967

>  <r_i_glide_erotb>  (1) 
0

>  <r_i_glide_esite>  (1) 
-0.083293379378648114

>  <r_i_glide_evdw>  (1) 
-19.646461976983403

>  <r_i_glide_gscore>  (1) 
-5.1221862282100084

>  <r_i_glide_gscore_strain>  (1) 
0

>  <r_i_glide_hbond>  (1) 
0

>  <r_i_glide_ligand_efficiency>  (1) 
-0.3940143252469237

>  <r_i_glide_ligand_efficiency_ln>  (1) 
-1.4368187916860957

>  <r_i_glide_ligand_efficiency_sa>  (1) 
-0.92645955041198047

>  <r_i_glide_lipo>  (1) 
-1.1678158985156284

>  <r_i_glide_metal>  (1) 
-0

>  <r_i_glide_rewards>  (1) 
-2.990541554220826

>  <r_lp_Energy>  (1) 
16.296869999999998

>  <r_lp_tautomer_probability>  (1) 
1

>  <s_epik_Chemistry_Notes>  (1) 
This compound has an ester and may undergo hydrolysis at high or low pH.

>  <s_epik_cmdline>  (1) 
J2VwaWtfcHl0aG9uJywgJy1waHQnLCAnMS4wJywgJy1waCcsICc3LjQnLCAnLXRuJywgJzgnLCAnLW1hJywgJzUwMCcsICctaW1hZScsICc8aW5maWxlLm1hZT4nLCAnLW9tYWUnLCAnPG91dGZpbGUubWFlPic=

>  <s_epik_input>  (1) 
TzFbQ0gyXVtDSDJdT0MoPU8pYyhjMTIpW2NIXVtjSF1bY0hdYzJbQ0gzXQ==

>  <s_glide_docking_method>  (1) 
confgen

>  <s_i_glide_gridfile>  (1) 
gpcr_drd2_6luq_protein_autoprepared_prepared

>  <s_lp_Force_Field>  (1) 
S-OPLS

>  <s_lp_Variant>  (1) 
Pocket2Mol_89-1

>  <s_m_source_file>  (1) 
generated_generic_title2_ligand_Pocket2Mol_2026-06-23_prepared.sdf

>  <GenAI_Model>  (1) 
Pocket2Mol

>  <Protein>  (1) 
generic_title2

$$$$
Pocket2Mol_89
     RDKit          3D

  0  0  0  0  0  0  0  0  0  0999 V3000
M  V30 BEGIN CTAB
M  V30 COUNTS 23 24 0 0 1
M  V30 BEGIN ATOM
M  V30 1 C 8.633561 6.259907 -11.303293 0
M  V30 2 O 9.098204 5.304299 -10.365317 0
M  V30 3 C 9.485515 7.521984 -11.243087 0
M  V30 4 O 10.712085 7.190533 -10.616235 0
M  V30 5 C 8.921242 5.469522 -9.043604 0
M  V30 6 C 10.666816 7.336462 -9.251215 0
M  V30 7 C 11.492221 8.298325 -8.634496 0
M  V30 8 O 8.144635 4.790192 -8.384485 0
M  V30 9 C 9.797827 6.537168 -8.449562 0
M  V30 10 C 12.422686 9.137214 -9.468782 0
M  V30 11 C 9.763482 6.737048 -7.050900 0
M  V30 12 C 10.586162 7.704969 -6.451129 0
M  V30 13 C 11.450635 8.480833 -7.239159 0
M  V30 14 H 7.571298 6.477733 -11.184062 0
M  V30 15 H 8.747722 5.806678 -12.288513 0
M  V30 16 H 8.974084 8.321861 -10.705112 0
M  V30 17 H 9.675637 7.898872 -12.247618 0
M  V30 18 H 13.381230 9.190149 -8.958405 0
M  V30 19 H 12.605705 8.715664 -10.455703 0
M  V30 20 H 12.010344 10.138057 -9.585025 0
M  V30 21 H 9.105161 6.139449 -6.436225 0
M  V30 22 H 10.556266 7.848919 -5.381530 0
M  V30 23 H 12.084400 9.221083 -6.773208 0
M  V30 END ATOM
M  V30 BEGIN BOND
M  V30 1 1 2 1
M  V30 2 1 3 1
M  V30 3 1 4 3
M  V30 4 1 5 2
M  V30 5 1 6 4
M  V30 6 2 7 6
M  V30 7 2 8 5
M  V30 8 1 9 5
M  V30 9 1 9 6
M  V30 10 1 10 7
M  V30 11 2 11 9
M  V30 12 1 12 11
M  V30 13 1 13 7
M  V30 14 2 13 12
M  V30 15 1 14 1
M  V30 16 1 15 1
M  V30 17 1 16 3
M  V30 18 1 17 3
M  V30 19 1 18 10
M  V30 20 1 19 10
M  V30 21 1 20 10
M  V30 22 1 21 11
M  V30 23 1 22 12
M  V30 24 1 23 13
M  V30 END BOND
M  V30 END CTAB
M  END
>  <i_epik_Tot_Q>  (1) 
0

>  <i_epik_Tot_abs_Q>  (1) 
0

>  <i_i_glide_confnum>  (1) 
6

>  <i_i_glide_lignum>  (1) 
96

>  <i_i_glide_posenum>  (1) 
200

>  <i_i_glide_rotatable_bonds>  (1) 
0

>  <i_lp_mmshare_version>  (1) 
72125

>  <i_m_source_file_index>  (1) 
90

>  <i_f3d_flags>  (1) 
0

>  <num_sample>  (1) 
100

>  <b_lp_Chiralities_Consistent>  (1) 
1

>  <r_epik_Charging_Adjusted_Penalty>  (1) 
0

>  <r_epik_Ionization_Penalty>  (1) 
1.0524661445465699e-15

>  <r_epik_Ionization_Penalty_Charging>  (1) 
0

>  <r_epik_Ionization_Penalty_Neutral>  (1) 
1.0524661445465699e-15

>  <r_epik_State_Penalty>  (1) 
-0

>  <r_glide_ring_energy>  (1) 
1.0468128739231415

>  <r_i_docking_score>  (1) 
-5.121980437537915

>  <r_i_glide_ecoul>  (1) 
-1.6015339175296242

>  <r_i_glide_eff_state_penalty>  (1) 
-0

>  <r_i_glide_einternal>  (1) 
0

>  <r_i_glide_emodel>  (1) 
-29.845045306472585

>  <r_i_glide_emodel_strain>  (1) 
0.73136965260942333

>  <r_i_glide_energy>  (1) 
-24.190759630535752

>  <r_i_glide_erotb>  (1) 
0

>  <r_i_glide_esite>  (1) 
-0.070828409225634201

>  <r_i_glide_evdw>  (1) 
-22.589225713006126

>  <r_i_glide_gscore>  (1) 
-5.121980437537915

>  <r_i_glide_gscore_strain>  (1) 
0

>  <r_i_glide_hbond>  (1) 
0

>  <r_i_glide_ligand_efficiency>  (1) 
-0.39399849519522423

>  <r_i_glide_ligand_efficiency_ln>  (1) 
-1.4367610655723537

>  <r_i_glide_ligand_efficiency_sa>  (1) 
-0.92642232866231111

>  <r_i_glide_lipo>  (1) 
-0.78348837307705732

>  <r_i_glide_metal>  (1) 
-0

>  <r_i_glide_rewards>  (1) 
-2.8979722819554725

>  <r_lp_Energy>  (1) 
16.296869999999998

>  <r_lp_tautomer_probability>  (1) 
1

>  <s_epik_Chemistry_Notes>  (1) 
This compound has an ester and may undergo hydrolysis at high or low pH.

>  <s_epik_cmdline>  (1) 
J2VwaWtfcHl0aG9uJywgJy1waHQnLCAnMS4wJywgJy1waCcsICc3LjQnLCAnLXRuJywgJzgnLCAnLW1hJywgJzUwMCcsICctaW1hZScsICc8aW5maWxlLm1hZT4nLCAnLW9tYWUnLCAnPG91dGZpbGUubWFlPic=

>  <s_epik_input>  (1) 
TzFbQ0gyXVtDSDJdT0MoPU8pYyhjMTIpW2NIXVtjSF1bY0hdYzJbQ0gzXQ==

>  <s_glide_docking_method>  (1) 
confgen

>  <s_i_glide_gridfile>  (1) 
gpcr_drd2_6luq_protein_autoprepared_prepared

>  <s_lp_Force_Field>  (1) 
S-OPLS

>  <s_lp_Variant>  (1) 
Pocket2Mol_89-1

>  <s_m_source_file>  (1) 
generated_generic_title2_ligand_Pocket2Mol_2026-06-23_prepared.sdf

>  <GenAI_Model>  (1) 
Pocket2Mol

>  <Protein>  (1) 
generic_title2

$$$$
Pocket2Mol_48
     RDKit          3D

  0  0  0  0  0  0  0  0  0  0999 V3000
M  V30 BEGIN CTAB
M  V30 COUNTS 20 21 0 0 1
M  V30 BEGIN ATOM
M  V30 1 C 10.492273 7.771424 -9.708467 0
M  V30 2 O 10.609718 8.790206 -8.765317 0
M  V30 3 C 10.854753 8.421869 -7.458803 0
M  V30 4 C 10.465374 7.147327 -6.981543 0
M  V30 5 C 10.730703 6.790228 -5.644442 0
M  V30 6 C 11.489499 9.330374 -6.587904 0
M  V30 7 C 11.749559 8.969637 -5.254269 0
M  V30 8 C 9.761064 6.165864 -7.903205 0
M  V30 9 C 11.375412 7.698173 -4.785024 0
M  V30 10 N 9.375410 6.790225 -9.179722 0 CHG=1
M  V30 11 H 10.183953 8.196609 -10.664002 0
M  V30 12 H 11.442314 7.248766 -9.830969 0
M  V30 13 H 10.438726 5.820401 -5.276344 0
M  V30 14 H 11.775417 10.306690 -6.945625 0
M  V30 15 H 12.238710 9.668002 -4.591059 0
M  V30 16 H 10.436338 5.333081 -8.101849 0
M  V30 17 H 8.872216 5.760824 -7.417134 0
M  V30 18 H 11.578073 7.419879 -3.761003 0
M  V30 19 H 8.484238 7.290285 -9.074778 0
M  V30 20 H 9.202729 6.059286 -9.853372 0
M  V30 END ATOM
M  V30 BEGIN BOND
M  V30 1 1 2 1
M  V30 2 1 3 2
M  V30 3 1 4 3
M  V30 4 2 5 4
M  V30 5 2 6 3
M  V30 6 1 7 6
M  V30 7 1 8 4
M  V30 8 1 9 5
M  V30 9 2 9 7
M  V30 10 1 10 1
M  V30 11 1 10 8
M  V30 12 1 11 1
M  V30 13 1 12 1
M  V30 14 1 13 5
M  V30 15 1 14 6
M  V30 16 1 15 7
M  V30 17 1 16 8
M  V30 18 1 17 8
M  V30 19 1 18 9
M  V30 20 1 19 10
M  V30 21 1 20 10
M  V30 END BOND
M  V30 END CTAB
M  END
>  <i_epik_Tot_Q>  (1) 
1

>  <i_epik_Tot_abs_Q>  (1) 
1

>  <i_i_glide_confnum>  (1) 
1

>  <i_i_glide_lignum>  (1) 
55

>  <i_i_glide_posenum>  (1) 
344

>  <i_i_glide_rotatable_bonds>  (1) 
0

>  <i_lp_mmshare_version>  (1) 
72125

>  <i_m_source_file_index>  (1) 
49

>  <i_f3d_flags>  (1) 
0

>  <num_sample>  (1) 
100

>  <b_lp_Chiralities_Consistent>  (1) 
1

>  <r_epik_Charging_Adjusted_Penalty>  (1) 
1.7789378330503367

>  <r_epik_Ionization_Penalty>  (1) 
0.88946891652516835

>  <r_epik_Ionization_Penalty_Charging>  (1) 
0.88946891652516835

>  <r_epik_Ionization_Penalty_Neutral>  (1) 
0

>  <r_epik_State_Penalty>  (1) 
0.88946891652516835

>  <r_glide_ring_energy>  (1) 
0

>  <r_i_docking_score>  (1) 
-5.119984545745309

>  <r_i_glide_ecoul>  (1) 
-6.2264606529620901

>  <r_i_glide_eff_state_penalty>  (1) 
0.88946891652516835

>  <r_i_glide_einternal>  (1) 
0

>  <r_i_glide_emodel>  (1) 
-36.515273409241104

>  <r_i_glide_emodel_strain>  (1) 
0

>  <r_i_glide_energy>  (1) 
-22.813699079200759

>  <r_i_glide_erotb>  (1) 
0

>  <r_i_glide_esite>  (1) 
-0.12979750534781925

>  <r_i_glide_evdw>  (1) 
-16.58723842623867

>  <r_i_glide_gscore>  (1) 
-6.0094534622704776

>  <r_i_glide_gscore_strain>  (1) 
0

>  <r_i_glide_hbond>  (1) 
-0.20000000000000001

>  <r_i_glide_ligand_efficiency>  (1) 
-0.51199845457453086

>  <r_i_glide_ligand_efficiency_ln>  (1) 
-1.5502960261664753

>  <r_i_glide_ligand_efficiency_sa>  (1) 
-1.1030672317780832

>  <r_i_glide_lipo>  (1) 
-1.2677046287003733

>  <r_i_glide_metal>  (1) 
-0

>  <r_i_glide_rewards>  (1) 
-2.6486203089660378

>  <r_lp_Energy>  (1) 
22.335957999999998

>  <r_lp_tautomer_probability>  (1) 
1

>  <s_epik_Chemistry_Notes>  (1) 
This compound contains an acetal/aminal-like group ( X-CH(R)-Y where X, Y are N, S, or O) that may be acid/base labile, releasing an aldehyde.

>  <s_epik_cmdline>  (1) 
J2VwaWtfcHl0aG9uJywgJy1waHQnLCAnMS4wJywgJy1waCcsICc3LjQnLCAnLXRuJywgJzgnLCAnLW1hJywgJzUwMCcsICctaW1hZScsICc8aW5maWxlLm1hZT4nLCAnLW9tYWUnLCAnPG91dGZpbGUubWFlPic=

>  <s_epik_input>  (1) 
TzFbQ0gyXVtOSF1bQ0gyXWMoYzEyKVtjSF1bY0hdW2NIXVtjSF0y

>  <s_glide_docking_method>  (1) 
confgen

>  <s_i_glide_gridfile>  (1) 
gpcr_drd2_6luq_protein_autoprepared_prepared

>  <s_lp_Force_Field>  (1) 
S-OPLS

>  <s_lp_Variant>  (1) 
Pocket2Mol_48-2

>  <s_m_source_file>  (1) 
generated_generic_title2_ligand_Pocket2Mol_2026-06-23_prepared.sdf

>  <GenAI_Model>  (1) 
Pocket2Mol

>  <Protein>  (1) 
generic_title2

$$$$
Pocket2Mol_26
     RDKit          3D

  0  0  0  0  0  0  0  0  0  0999 V3000
M  V30 BEGIN CTAB
M  V30 COUNTS 15 15 0 0 1
M  V30 BEGIN ATOM
M  V30 1 C 11.440049 9.107111 -5.326218 0
M  V30 2 O 12.504701 9.320009 -4.391754 0
M  V30 3 C 12.279941 8.763276 -3.092927 0
M  V30 4 C 12.172917 7.216377 -3.151360 0 CFG=1
M  V30 5 O 11.540277 6.739673 -1.985026 0
M  V30 6 C 11.043612 7.646696 -5.349422 0
M  V30 7 C 11.375406 6.794193 -4.373851 0
M  V30 8 H 11.776984 9.410455 -6.317494 0
M  V30 9 H 10.575416 9.720320 -5.069424 0
M  V30 10 H 11.375413 9.207553 -2.678054 0
M  V30 11 H 13.094560 9.056444 -2.430189 0
M  V30 12 H 13.172472 6.790239 -3.185052 0
M  V30 13 H 11.455880 5.797694 -2.043159 0
M  V30 14 H 10.468194 7.304627 -6.197798 0
M  V30 15 H 11.071595 5.759196 -4.432827 0
M  V30 END ATOM
M  V30 BEGIN BOND
M  V30 1 1 2 1
M  V30 2 1 3 2
M  V30 3 1 4 3
M  V30 4 1 5 4
M  V30 5 1 6 1
M  V30 6 1 7 4
M  V30 7 2 7 6
M  V30 8 1 8 1
M  V30 9 1 9 1
M  V30 10 1 10 3
M  V30 11 1 11 3
M  V30 12 1 4 12 CFG=3
M  V30 13 1 13 5
M  V30 14 1 14 6
M  V30 15 1 15 7
M  V30 END BOND
M  V30 END CTAB
M  END
>  <i_epik_Tot_Q>  (1) 
0

>  <i_epik_Tot_abs_Q>  (1) 
0

>  <i_i_glide_confnum>  (1) 
1

>  <i_i_glide_lignum>  (1) 
30

>  <i_i_glide_posenum>  (1) 
67

>  <i_i_glide_rotatable_bonds>  (1) 
1

>  <i_lp_mmshare_version>  (1) 
72125

>  <i_m_source_file_index>  (1) 
27

>  <i_f3d_flags>  (1) 
0

>  <num_sample>  (1) 
100

>  <b_lp_Chiralities_Consistent>  (1) 
1

>  <r_epik_Charging_Adjusted_Penalty>  (1) 
0

>  <r_epik_Ionization_Penalty>  (1) 
7.567869706951744e-07

>  <r_epik_Ionization_Penalty_Charging>  (1) 
0

>  <r_epik_Ionization_Penalty_Neutral>  (1) 
7.567869706951744e-07

>  <r_epik_State_Penalty>  (1) 
-0

>  <r_glide_ring_energy>  (1) 
0

>  <r_i_docking_score>  (1) 
-5.1176359829202047

>  <r_i_glide_ecoul>  (1) 
-2.4367590617288837

>  <r_i_glide_eff_state_penalty>  (1) 
-0

>  <r_i_glide_einternal>  (1) 
0.38460419168309479

>  <r_i_glide_emodel>  (1) 
-25.237972052358039

>  <r_i_glide_emodel_strain>  (1) 
0

>  <r_i_glide_energy>  (1) 
-18.967879603164555

>  <r_i_glide_erotb>  (1) 
0

>  <r_i_glide_esite>  (1) 
0

>  <r_i_glide_evdw>  (1) 
-16.531120541435673

>  <r_i_glide_gscore>  (1) 
-5.1176359829202047

>  <r_i_glide_gscore_strain>  (1) 
0

>  <r_i_glide_hbond>  (1) 
0

>  <r_i_glide_ligand_efficiency>  (1) 
-0.73109085470288637

>  <r_i_glide_ligand_efficiency_ln>  (1) 
-1.7372002959972539

>  <r_i_glide_ligand_efficiency_sa>  (1) 
-1.3985264934008694

>  <r_i_glide_lipo>  (1) 
-1.4973394968302025

>  <r_i_glide_metal>  (1) 
-0

>  <r_i_glide_rewards>  (1) 
-2.4282265997588857

>  <r_lp_Energy>  (1) 
2.4739009999999997

>  <r_lp_tautomer_probability>  (1) 
1

>  <s_epik_cmdline>  (1) 
J2VwaWtfcHl0aG9uJywgJy1waHQnLCAnMS4wJywgJy1waCcsICc3LjQnLCAnLXRuJywgJzgnLCAnLW1hJywgJzUwMCcsICctaW1hZScsICc8aW5maWxlLm1hZT4nLCAnLW9tYWUnLCAnPG91dGZpbGUubWFlPic=

>  <s_epik_input>  (1) 
W0NIXTE9W0NIXVtDSDJdT1tDSDJdW0NASF0xW09IXQ==

>  <s_glide_docking_method>  (1) 
confgen

>  <s_i_glide_gridfile>  (1) 
gpcr_drd2_6luq_protein_autoprepared_prepared

>  <s_lp_Force_Field>  (1) 
S-OPLS

>  <s_lp_Variant>  (1) 
Pocket2Mol_26-1

>  <s_m_source_file>  (1) 
generated_generic_title2_ligand_Pocket2Mol_2026-06-23_prepared.sdf

>  <GenAI_Model>  (1) 
Pocket2Mol

>  <Protein>  (1) 
generic_title2

$$$$
Pocket2Mol_35
     RDKit          3D

  0  0  0  0  0  0  0  0  0  0999 V3000
M  V30 BEGIN CTAB
M  V30 COUNTS 16 17 0 0 1
M  V30 BEGIN ATOM
M  V30 1 C 10.948952 8.830604 -6.584907 0
M  V30 2 O 10.818873 7.453620 -6.066798 0
M  V30 3 C 11.375535 7.577038 -4.845561 0
M  V30 4 C 11.823541 8.792902 -4.516609 0
M  V30 5 C 12.421064 9.012765 -3.263777 0
M  V30 6 N 12.575409 8.022640 -2.342077 0
M  V30 7 C 12.105434 6.790389 -2.696026 0
M  V30 8 C 11.495008 6.525593 -3.942804 0
M  V30 9 C 11.643236 9.825511 -5.538068 0
M  V30 10 H 11.521003 8.804748 -7.513210 0
M  V30 11 H 9.952527 9.190023 -6.841614 0
M  V30 12 H 12.783869 9.990318 -2.990438 0
M  V30 13 H 12.218902 6.003911 -1.964286 0
M  V30 14 H 11.131532 5.549118 -4.188624 0
M  V30 15 H 10.979401 10.623492 -5.202318 0
M  V30 16 H 12.595748 10.220521 -5.893134 0
M  V30 END ATOM
M  V30 BEGIN BOND
M  V30 1 1 2 1
M  V30 2 1 3 2
M  V30 3 2 4 3
M  V30 4 1 5 4
M  V30 5 2 6 5
M  V30 6 1 7 6
M  V30 7 1 8 3
M  V30 8 2 8 7
M  V30 9 1 9 1
M  V30 10 1 9 4
M  V30 11 1 10 1
M  V30 12 1 11 1
M  V30 13 1 12 5
M  V30 14 1 13 7
M  V30 15 1 14 8
M  V30 16 1 15 9
M  V30 17 1 16 9
M  V30 END BOND
M  V30 END CTAB
M  END
>  <i_epik_Tot_Q>  (1) 
0

>  <i_epik_Tot_abs_Q>  (1) 
0

>  <i_i_glide_confnum>  (1) 
1

>  <i_i_glide_lignum>  (1) 
40

>  <i_i_glide_posenum>  (1) 
67

>  <i_i_glide_rotatable_bonds>  (1) 
0

>  <i_lp_mmshare_version>  (1) 
72125

>  <i_m_source_file_index>  (1) 
36

>  <i_f3d_flags>  (1) 
0

>  <num_sample>  (1) 
100

>  <b_lp_Chiralities_Consistent>  (1) 
1

>  <r_epik_Charging_Adjusted_Penalty>  (1) 
0.44367302241175355

>  <r_epik_Ionization_Penalty>  (1) 
0.44367302241175355

>  <r_epik_Ionization_Penalty_Charging>  (1) 
0

>  <r_epik_Ionization_Penalty_Neutral>  (1) 
0.44367302241175355

>  <r_epik_State_Penalty>  (1) 
0.44367302241175355

>  <r_glide_ring_energy>  (1) 
0

>  <r_i_docking_score>  (1) 
-5.1152057969055518

>  <r_i_glide_ecoul>  (1) 
-0.17380703359714966

>  <r_i_glide_eff_state_penalty>  (1) 
0.44367302241175355

>  <r_i_glide_einternal>  (1) 
0

>  <r_i_glide_emodel>  (1) 
-27.369662220239658

>  <r_i_glide_emodel_strain>  (1) 
1.2002914218101068e-09

>  <r_i_glide_energy>  (1) 
-20.026307158869418

>  <r_i_glide_erotb>  (1) 
0

>  <r_i_glide_esite>  (1) 
0

>  <r_i_glide_evdw>  (1) 
-19.852500125272268

>  <r_i_glide_gscore>  (1) 
-5.5588788193173055

>  <r_i_glide_gscore_strain>  (1) 
0

>  <r_i_glide_hbond>  (1) 
0

>  <r_i_glide_ligand_efficiency>  (1) 
-0.56835619965617246

>  <r_i_glide_ligand_efficiency_ln>  (1) 
-1.5998894269627146

>  <r_i_glide_ligand_efficiency_sa>  (1) 
-1.1822285366360625

>  <r_i_glide_lipo>  (1) 
-1.9068494246807859

>  <r_i_glide_metal>  (1) 
-0

>  <r_i_glide_rewards>  (1) 
-2.6333333333333333

>  <r_lp_Energy>  (1) 
12.810587999999999

>  <s_epik_cmdline>  (1) 
J2VwaWtfcHl0aG9uJywgJy1waHQnLCAnMS4wJywgJy1waCcsICc3LjQnLCAnLXRuJywgJzgnLCAnLW1hJywgJzUwMCcsICctaW1hZScsICc8aW5maWxlLm1hZT4nLCAnLW9tYWUnLCAnPG91dGZpbGUubWFlPic=

>  <s_epik_input>  (1) 
TzFbQ0gyXVtDSDJdYyhjMTIpW2NIXW5bY0hdW2NIXTI=

>  <s_glide_docking_method>  (1) 
confgen

>  <s_i_glide_gridfile>  (1) 
gpcr_drd2_6luq_protein_autoprepared_prepared

>  <s_lp_Force_Field>  (1) 
S-OPLS

>  <s_lp_Variant>  (1) 
Pocket2Mol_35-2

>  <s_m_source_file>  (1) 
generated_generic_title2_ligand_Pocket2Mol_2026-06-23_prepared.sdf

>  <GenAI_Model>  (1) 
Pocket2Mol

>  <Protein>  (1) 
generic_title2

$$$$
Pocket2Mol_95
     RDKit          3D

  0  0  0  0  0  0  0  0  0  0999 V3000
M  V30 BEGIN CTAB
M  V30 COUNTS 23 24 0 0 1
M  V30 BEGIN ATOM
M  V30 1 C 9.226055 4.887041 -9.373218 0
M  V30 2 O 9.756603 6.057108 -9.971594 0
M  V30 3 C 10.374345 6.929845 -9.107136 0
M  V30 4 C 8.410808 5.296670 -8.151864 0
M  V30 5 O 9.260508 5.920334 -7.200651 0
M  V30 6 C 10.130700 6.858197 -7.707997 0
M  V30 7 C 10.788192 7.759529 -6.835262 0
M  V30 8 O 10.575492 7.712716 -5.479035 0
M  V30 9 C 11.665144 8.722167 -7.356490 0
M  V30 10 O 12.288513 9.590233 -6.510163 0
M  V30 11 C 11.256057 7.898116 -9.615603 0
M  V30 12 C 11.900851 8.790259 -8.744791 0
M  V30 13 C 10.764454 6.455167 -4.851942 0
M  V30 14 H 10.023998 4.198450 -9.094639 0
M  V30 15 H 8.591987 4.390215 -10.106253 0
M  V30 16 H 7.917390 4.434601 -7.704161 0
M  V30 17 H 7.638667 5.990226 -8.455265 0
M  V30 18 H 12.004691 9.444977 -5.619821 0
M  V30 19 H 11.440463 7.953061 -10.678304 0
M  V30 20 H 12.575409 9.533257 -9.143872 0
M  V30 21 H 11.230148 6.601775 -3.877882 0
M  V30 22 H 9.795810 5.990215 -4.686444 0
M  V30 23 H 11.403930 5.784089 -5.428100 0
M  V30 END ATOM
M  V30 BEGIN BOND
M  V30 1 1 2 1
M  V30 2 1 3 2
M  V30 3 1 4 1
M  V30 4 1 5 4
M  V30 5 2 6 3
M  V30 6 1 6 5
M  V30 7 1 7 6
M  V30 8 1 8 7
M  V30 9 2 9 7
M  V30 10 1 10 9
M  V30 11 1 11 3
M  V30 12 1 12 9
M  V30 13 2 12 11
M  V30 14 1 13 8
M  V30 15 1 14 1
M  V30 16 1 15 1
M  V30 17 1 16 4
M  V30 18 1 17 4
M  V30 19 1 18 10
M  V30 20 1 19 11
M  V30 21 1 20 12
M  V30 22 1 21 13
M  V30 23 1 22 13
M  V30 24 1 23 13
M  V30 END BOND
M  V30 END CTAB
M  END
>  <i_epik_Tot_Q>  (1) 
0

>  <i_epik_Tot_abs_Q>  (1) 
0

>  <i_i_glide_confnum>  (1) 
2

>  <i_i_glide_lignum>  (1) 
104

>  <i_i_glide_posenum>  (1) 
362

>  <i_i_glide_rotatable_bonds>  (1) 
2

>  <i_lp_mmshare_version>  (1) 
72125

>  <i_m_source_file_index>  (1) 
96

>  <i_f3d_flags>  (1) 
0

>  <num_sample>  (1) 
100

>  <b_lp_Chiralities_Consistent>  (1) 
1

>  <r_epik_Charging_Adjusted_Penalty>  (1) 
0

>  <r_epik_Ionization_Penalty>  (1) 
0.0014130578134093086

>  <r_epik_Ionization_Penalty_Charging>  (1) 
0

>  <r_epik_Ionization_Penalty_Neutral>  (1) 
0.0014130578134093086

>  <r_epik_State_Penalty>  (1) 
-0

>  <r_glide_ring_energy>  (1) 
0.003085301398031638

>  <r_i_docking_score>  (1) 
-5.1084443461896463

>  <r_i_glide_ecoul>  (1) 
-1.2584608039857819

>  <r_i_glide_eff_state_penalty>  (1) 
-0

>  <r_i_glide_einternal>  (1) 
0.0033525834475609528

>  <r_i_glide_emodel>  (1) 
-29.009773441757428

>  <r_i_glide_emodel_strain>  (1) 
0

>  <r_i_glide_energy>  (1) 
-22.297792351184476

>  <r_i_glide_erotb>  (1) 
0

>  <r_i_glide_esite>  (1) 
0

>  <r_i_glide_evdw>  (1) 
-21.039331547198696

>  <r_i_glide_gscore>  (1) 
-5.1084443461896463

>  <r_i_glide_gscore_strain>  (1) 
0

>  <r_i_glide_hbond>  (1) 
0

>  <r_i_glide_ligand_efficiency>  (1) 
-0.39295725739920356

>  <r_i_glide_ligand_efficiency_ln>  (1) 
-1.4329640715645882

>  <r_i_glide_ligand_efficiency_sa>  (1) 
-0.92397403011436174

>  <r_i_glide_lipo>  (1) 
-1.1067002034334077

>  <r_i_glide_metal>  (1) 
-0

>  <r_i_glide_rewards>  (1) 
-2.7610084447984367

>  <r_lp_Energy>  (1) 
25.525124999999999

>  <r_lp_tautomer_probability>  (1) 
1

>  <s_epik_cmdline>  (1) 
J2VwaWtfcHl0aG9uJywgJy1waHQnLCAnMS4wJywgJy1waCcsICc3LjQnLCAnLXRuJywgJzgnLCAnLW1hJywgJzUwMCcsICctaW1hZScsICc8aW5maWxlLm1hZT4nLCAnLW9tYWUnLCAnPG91dGZpbGUubWFlPic=

>  <s_epik_input>  (1) 
TzFbQ0gyXVtDSDJdT2MoYzEyKWMoT1tDSDNdKWMoW09IXSlbY0hdW2NIXTI=

>  <s_glide_docking_method>  (1) 
confgen

>  <s_i_glide_gridfile>  (1) 
gpcr_drd2_6luq_protein_autoprepared_prepared

>  <s_lp_Force_Field>  (1) 
S-OPLS

>  <s_lp_Variant>  (1) 
Pocket2Mol_95-1

>  <s_m_source_file>  (1) 
generated_generic_title2_ligand_Pocket2Mol_2026-06-23_prepared.sdf

>  <GenAI_Model>  (1) 
Pocket2Mol

>  <Protein>  (1) 
generic_title2

$$$$
Pocket2Mol_75
     RDKit          3D

  0  0  0  0  0  0  0  0  0  0999 V3000
M  V30 BEGIN CTAB
M  V30 COUNTS 17 18 0 0 1
M  V30 BEGIN ATOM
M  V30 1 C 11.369502 8.494866 -5.771392 0
M  V30 2 O 11.793853 9.008088 -6.983112 0
M  V30 3 C 11.184525 8.267938 -7.968715 0
M  V30 4 C 10.377131 7.283084 -7.379182 0
M  V30 5 C 9.668910 6.423429 -8.255832 0
M  V30 6 C 9.775448 6.576246 -9.668247 0
M  V30 7 C 10.504268 7.433845 -5.963589 0
M  V30 8 N 9.018800 5.678245 -10.571259 0 CHG=1
M  V30 9 C 10.606395 7.591942 -10.210314 0
M  V30 10 O 8.343049 4.790228 -10.058811 0 CHG=-1
M  V30 11 C 11.317398 8.439764 -9.348496 0
M  V30 12 O 9.119809 5.874383 -11.778875 0
M  V30 13 H 11.764784 8.977077 -4.887737 0
M  V30 14 H 9.032623 5.651924 -7.846073 0
M  V30 15 H 10.013692 6.836351 -5.207731 0
M  V30 16 H 10.690932 7.713434 -11.280732 0
M  V30 17 H 11.952631 9.218907 -9.746276 0
M  V30 END ATOM
M  V30 BEGIN BOND
M  V30 1 1 2 1
M  V30 2 1 3 2
M  V30 3 1 4 3
M  V30 4 2 5 4
M  V30 5 1 6 5
M  V30 6 2 7 1
M  V30 7 1 7 4
M  V30 8 1 8 6
M  V30 9 2 9 6
M  V30 10 1 10 8
M  V30 11 2 11 3
M  V30 12 1 11 9
M  V30 13 2 12 8
M  V30 14 1 13 1
M  V30 15 1 14 5
M  V30 16 1 15 7
M  V30 17 1 16 9
M  V30 18 1 17 11
M  V30 END BOND
M  V30 END CTAB
M  END
>  <i_epik_Tot_Q>  (1) 
0

>  <i_epik_Tot_abs_Q>  (1) 
2

>  <i_i_glide_confnum>  (1) 
1

>  <i_i_glide_lignum>  (1) 
82

>  <i_i_glide_posenum>  (1) 
119

>  <i_i_glide_rotatable_bonds>  (1) 
1

>  <i_lp_mmshare_version>  (1) 
72125

>  <i_m_source_file_index>  (1) 
76

>  <i_f3d_flags>  (1) 
0

>  <num_sample>  (1) 
100

>  <b_lp_Chiralities_Consistent>  (1) 
1

>  <r_epik_Charging_Adjusted_Penalty>  (1) 
0

>  <r_epik_Ionization_Penalty>  (1) 
0

>  <r_epik_Ionization_Penalty_Charging>  (1) 
0

>  <r_epik_Ionization_Penalty_Neutral>  (1) 
0

>  <r_epik_State_Penalty>  (1) 
-0

>  <r_glide_ring_energy>  (1) 
0

>  <r_i_docking_score>  (1) 
-5.1068063204496443

>  <r_i_glide_ecoul>  (1) 
-0.30272744881490254

>  <r_i_glide_eff_state_penalty>  (1) 
-0

>  <r_i_glide_einternal>  (1) 
0.0060412815925057206

>  <r_i_glide_emodel>  (1) 
-31.112978723426153

>  <r_i_glide_emodel_strain>  (1) 
0

>  <r_i_glide_energy>  (1) 
-22.804073390561889

>  <r_i_glide_erotb>  (1) 
0

>  <r_i_glide_esite>  (1) 
-0.08607251389280185

>  <r_i_glide_evdw>  (1) 
-22.501345941746987

>  <r_i_glide_gscore>  (1) 
-5.1068063204496443

>  <r_i_glide_gscore_strain>  (1) 
0

>  <r_i_glide_hbond>  (1) 
0

>  <r_i_glide_ligand_efficiency>  (1) 
-0.42556719337080368

>  <r_i_glide_ligand_efficiency_ln>  (1) 
-1.4654069200850215

>  <r_i_glide_ligand_efficiency_sa>  (1) 
-0.97430565483001386

>  <r_i_glide_lipo>  (1) 
-0.89767846868037715

>  <r_i_glide_metal>  (1) 
-0

>  <r_i_glide_rewards>  (1) 
-2.9525789234668802

>  <r_lp_Energy>  (1) 
17.097996999999999

>  <r_lp_tautomer_probability>  (1) 
1

>  <s_epik_cmdline>  (1) 
J2VwaWtfcHl0aG9uJywgJy1waHQnLCAnMS4wJywgJy1waCcsICc3LjQnLCAnLXRuJywgJzgnLCAnLW1hJywgJzUwMCcsICctaW1hZScsICc8aW5maWxlLm1hZT4nLCAnLW9tYWUnLCAnPG91dGZpbGUubWFlPic=

>  <s_epik_input>  (1) 
bzFbY0hdW2NIXWMoYzEyKVtjSF1jKFtOK10oW08tXSk9TylbY0hdW2NIXTI=

>  <s_glide_docking_method>  (1) 
confgen

>  <s_i_glide_gridfile>  (1) 
gpcr_drd2_6luq_protein_autoprepared_prepared

>  <s_lp_Force_Field>  (1) 
S-OPLS

>  <s_lp_Variant>  (1) 
Pocket2Mol_75-1

>  <s_m_source_file>  (1) 
generated_generic_title2_ligand_Pocket2Mol_2026-06-23_prepared.sdf

>  <GenAI_Model>  (1) 
Pocket2Mol

>  <Protein>  (1) 
generic_title2

$$$$
Pocket2Mol_79
     RDKit          3D

  0  0  0  0  0  0  0  0  0  0999 V3000
M  V30 BEGIN CTAB
M  V30 COUNTS 24 25 0 0 1
M  V30 BEGIN ATOM
M  V30 1 C 11.426166 8.635748 -5.385028 0
M  V30 2 O 10.175411 8.023403 -5.626757 0
M  V30 3 C 12.043786 9.190225 -6.675123 0
M  V30 4 O 12.457516 8.179672 -7.585025 0
M  V30 5 C 10.262452 6.790231 -6.319986 0
M  V30 6 C 11.477607 7.651502 -8.387075 0
M  V30 7 C 11.579853 7.789358 -9.785390 0
M  V30 8 C 10.377080 6.958926 -7.824397 0
M  V30 9 C 12.765750 8.518505 -10.385027 0
M  V30 10 C 10.581089 7.248751 -10.623931 0
M  V30 11 C 9.489004 6.559774 -10.064769 0
M  V30 12 C 9.387379 6.412230 -8.668000 0
M  V30 13 H 11.244438 9.468134 -4.704707 0
M  V30 14 H 12.099642 7.961336 -4.855267 0
M  V30 15 H 11.375411 9.895611 -7.162125 0
M  V30 16 H 12.933380 9.758146 -6.401079 0
M  V30 17 H 9.350086 6.236643 -6.096312 0
M  V30 18 H 11.085333 6.177165 -5.948310 0
M  V30 19 H 13.669611 8.343470 -9.801033 0
M  V30 20 H 12.975409 8.194458 -11.403817 0
M  V30 21 H 12.575410 9.590228 -10.385024 0
M  V30 22 H 10.656490 7.357962 -11.695774 0
M  V30 23 H 8.725583 6.145429 -10.706708 0
M  V30 24 H 8.545106 5.884450 -8.243481 0
M  V30 END ATOM
M  V30 BEGIN BOND
M  V30 1 1 2 1
M  V30 2 1 3 1
M  V30 3 1 4 3
M  V30 4 1 5 2
M  V30 5 1 6 4
M  V30 6 2 7 6
M  V30 7 1 8 5
M  V30 8 1 8 6
M  V30 9 1 9 7
M  V30 10 1 10 7
M  V30 11 2 11 10
M  V30 12 2 12 8
M  V30 13 1 12 11
M  V30 14 1 13 1
M  V30 15 1 14 1
M  V30 16 1 15 3
M  V30 17 1 16 3
M  V30 18 1 17 5
M  V30 19 1 18 5
M  V30 20 1 19 9
M  V30 21 1 20 9
M  V30 22 1 21 9
M  V30 23 1 22 10
M  V30 24 1 23 11
M  V30 25 1 24 12
M  V30 END BOND
M  V30 END CTAB
M  END
>  <i_epik_Tot_Q>  (1) 
0

>  <i_epik_Tot_abs_Q>  (1) 
0

>  <i_i_glide_confnum>  (1) 
1

>  <i_i_glide_lignum>  (1) 
86

>  <i_i_glide_posenum>  (1) 
65

>  <i_i_glide_rotatable_bonds>  (1) 
0

>  <i_lp_mmshare_version>  (1) 
72125

>  <i_m_source_file_index>  (1) 
80

>  <i_f3d_flags>  (1) 
0

>  <num_sample>  (1) 
100

>  <b_lp_Chiralities_Consistent>  (1) 
1

>  <r_epik_Charging_Adjusted_Penalty>  (1) 
0

>  <r_epik_Ionization_Penalty>  (1) 
2.8363962595523293e-13

>  <r_epik_Ionization_Penalty_Charging>  (1) 
0

>  <r_epik_Ionization_Penalty_Neutral>  (1) 
2.8363962595523293e-13

>  <r_epik_State_Penalty>  (1) 
-0

>  <r_glide_ring_energy>  (1) 
0

>  <r_i_docking_score>  (1) 
-5.1039306417211936

>  <r_i_glide_ecoul>  (1) 
-0.47732095774409011

>  <r_i_glide_eff_state_penalty>  (1) 
-0

>  <r_i_glide_einternal>  (1) 
0

>  <r_i_glide_emodel>  (1) 
-24.125636927221066

>  <r_i_glide_emodel_strain>  (1) 
0.031570283626514595

>  <r_i_glide_energy>  (1) 
-18.034347819511737

>  <r_i_glide_erotb>  (1) 
0

>  <r_i_glide_esite>  (1) 
0

>  <r_i_glide_evdw>  (1) 
-17.557026861767646

>  <r_i_glide_gscore>  (1) 
-5.1039306417211936

>  <r_i_glide_gscore_strain>  (1) 
0

>  <r_i_glide_hbond>  (1) 
0

>  <r_i_glide_ligand_efficiency>  (1) 
-0.42532755347676615

>  <r_i_glide_ligand_efficiency_ln>  (1) 
-1.4645817390924043

>  <r_i_glide_ligand_efficiency_sa>  (1) 
-0.97375701643043622

>  <r_i_glide_lipo>  (1) 
-1.1183729563531701

>  <r_i_glide_metal>  (1) 
-0

>  <r_i_glide_rewards>  (1) 
-3.0361081986180269

>  <r_lp_Energy>  (1) 
16.059718999999998

>  <r_lp_tautomer_probability>  (1) 
1

>  <s_epik_cmdline>  (1) 
J2VwaWtfcHl0aG9uJywgJy1waHQnLCAnMS4wJywgJy1waCcsICc3LjQnLCAnLXRuJywgJzgnLCAnLW1hJywgJzUwMCcsICctaW1hZScsICc8aW5maWxlLm1hZT4nLCAnLW9tYWUnLCAnPG91dGZpbGUubWFlPic=

>  <s_epik_input>  (1) 
TzFbQ0gyXVtDSDJdT1tDSDJdYyhjMTIpW2NIXVtjSF1bY0hdYzJbQ0gzXQ==

>  <s_glide_docking_method>  (1) 
confgen

>  <s_i_glide_gridfile>  (1) 
gpcr_drd2_6luq_protein_autoprepared_prepared

>  <s_lp_Force_Field>  (1) 
S-OPLS

>  <s_lp_Variant>  (1) 
Pocket2Mol_79-1

>  <s_m_source_file>  (1) 
generated_generic_title2_ligand_Pocket2Mol_2026-06-23_prepared.sdf

>  <GenAI_Model>  (1) 
Pocket2Mol

>  <Protein>  (1) 
generic_title2

$$$$
Pocket2Mol_80
     RDKit          3D

  0  0  0  0  0  0  0  0  0  0999 V3000
M  V30 BEGIN CTAB
M  V30 COUNTS 19 20 0 0 1
M  V30 BEGIN ATOM
M  V30 1 C 8.833848 5.363330 -9.971229 0
M  V30 2 O 9.661284 6.423568 -10.584952 0
M  V30 3 C 10.175409 7.040533 -9.498071 0
M  V30 4 C 9.820900 6.520191 -8.303898 0
M  V30 5 C 10.288943 7.066219 -7.093394 0
M  V30 6 C 8.922547 5.363991 -8.377310 0
M  V30 7 C 11.151037 8.193889 -7.137526 0
M  V30 8 N 11.662445 8.798387 -5.887358 0 CHG=1
M  V30 9 O 11.375410 8.249024 -4.829999 0 CHG=-1
M  V30 10 O 12.349051 9.810485 -5.985025 0
M  V30 11 C 11.520217 8.736449 -8.398907 0
M  V30 12 C 11.027542 8.151512 -9.585025 0
M  V30 13 H 7.798914 5.510575 -10.282662 0
M  V30 14 H 9.146307 4.396188 -10.366988 0
M  V30 15 H 9.992175 6.634683 -6.148009 0
M  V30 16 H 9.375409 4.455566 -7.985025 0
M  V30 17 H 7.963723 5.565075 -7.897950 0
M  V30 18 H 12.175350 9.590227 -8.453893 0
M  V30 19 H 11.301626 8.554050 -10.547109 0
M  V30 END ATOM
M  V30 BEGIN BOND
M  V30 1 1 2 1
M  V30 2 1 3 2
M  V30 3 2 4 3
M  V30 4 1 5 4
M  V30 5 1 6 1
M  V30 6 1 6 4
M  V30 7 2 7 5
M  V30 8 1 8 7
M  V30 9 1 9 8
M  V30 10 2 10 8
M  V30 11 1 11 7
M  V30 12 1 12 3
M  V30 13 2 12 11
M  V30 14 1 13 1
M  V30 15 1 14 1
M  V30 16 1 15 5
M  V30 17 1 16 6
M  V30 18 1 17 6
M  V30 19 1 18 11
M  V30 20 1 19 12
M  V30 END BOND
M  V30 END CTAB
M  END
>  <i_epik_Tot_Q>  (1) 
0

>  <i_epik_Tot_abs_Q>  (1) 
2

>  <i_i_glide_confnum>  (1) 
1

>  <i_i_glide_lignum>  (1) 
87

>  <i_i_glide_posenum>  (1) 
382

>  <i_i_glide_rotatable_bonds>  (1) 
1

>  <i_lp_mmshare_version>  (1) 
72125

>  <i_m_source_file_index>  (1) 
81

>  <i_f3d_flags>  (1) 
0

>  <num_sample>  (1) 
100

>  <b_lp_Chiralities_Consistent>  (1) 
1

>  <r_epik_Charging_Adjusted_Penalty>  (1) 
0

>  <r_epik_Ionization_Penalty>  (1) 
0

>  <r_epik_Ionization_Penalty_Charging>  (1) 
0

>  <r_epik_Ionization_Penalty_Neutral>  (1) 
0

>  <r_epik_State_Penalty>  (1) 
-0

>  <r_glide_ring_energy>  (1) 
0

>  <r_i_docking_score>  (1) 
-5.0976605953342125

>  <r_i_glide_ecoul>  (1) 
-0.6641124516914042

>  <r_i_glide_eff_state_penalty>  (1) 
-0

>  <r_i_glide_einternal>  (1) 
0.15536881021833038

>  <r_i_glide_emodel>  (1) 
-32.250943452267222

>  <r_i_glide_emodel_strain>  (1) 
0

>  <r_i_glide_energy>  (1) 
-23.877888251473411

>  <r_i_glide_erotb>  (1) 
0

>  <r_i_glide_esite>  (1) 
0

>  <r_i_glide_evdw>  (1) 
-23.213775799782006

>  <r_i_glide_gscore>  (1) 
-5.0976605953342125

>  <r_i_glide_gscore_strain>  (1) 
0

>  <r_i_glide_hbond>  (1) 
0

>  <r_i_glide_ligand_efficiency>  (1) 
-0.42480504961118437

>  <r_i_glide_ligand_efficiency_ln>  (1) 
-1.4627825384201674

>  <r_i_glide_ligand_efficiency_sa>  (1) 
-0.97256078119699507

>  <r_i_glide_lipo>  (1) 
-0.6813326555199829

>  <r_i_glide_metal>  (1) 
-0

>  <r_i_glide_rewards>  (1) 
-3.1560222820714188

>  <r_lp_Energy>  (1) 
14.797289999999998

>  <r_lp_tautomer_probability>  (1) 
1

>  <s_epik_cmdline>  (1) 
J2VwaWtfcHl0aG9uJywgJy1waHQnLCAnMS4wJywgJy1waCcsICc3LjQnLCAnLXRuJywgJzgnLCAnLW1hJywgJzUwMCcsICctaW1hZScsICc8aW5maWxlLm1hZT4nLCAnLW9tYWUnLCAnPG91dGZpbGUubWFlPic=

>  <s_epik_input>  (1) 
TzFbQ0gyXVtDSDJdYyhjMTIpW2NIXWMoW04rXShbTy1dKT1PKVtjSF1bY0hdMg==

>  <s_glide_docking_method>  (1) 
confgen

>  <s_i_glide_gridfile>  (1) 
gpcr_drd2_6luq_protein_autoprepared_prepared

>  <s_lp_Force_Field>  (1) 
S-OPLS

>  <s_lp_Variant>  (1) 
Pocket2Mol_80-1

>  <s_m_source_file>  (1) 
generated_generic_title2_ligand_Pocket2Mol_2026-06-23_prepared.sdf

>  <GenAI_Model>  (1) 
Pocket2Mol

>  <Protein>  (1) 
generic_title2

$$$$
Pocket2Mol_48
     RDKit          3D

  0  0  0  0  0  0  0  0  0  0999 V3000
M  V30 BEGIN CTAB
M  V30 COUNTS 20 21 0 0 1
M  V30 BEGIN ATOM
M  V30 1 C 9.796373 6.995411 -11.577466 0
M  V30 2 O 10.363348 7.990221 -10.777477 0
M  V30 3 C 10.565543 7.747323 -9.431753 0
M  V30 4 C 9.936051 6.650315 -8.784345 0
M  V30 5 C 10.145092 6.433563 -7.407393 0
M  V30 6 C 11.395669 8.611007 -8.691303 0
M  V30 7 C 11.600417 8.389300 -7.315731 0
M  V30 8 C 9.034511 5.716243 -9.566303 0
M  V30 9 C 10.975509 7.301928 -6.674571 0
M  V30 10 N 8.575417 6.390269 -10.785177 0 CHG=1
M  V30 11 H 9.435205 7.451136 -12.498736 0
M  V30 12 H 10.528837 6.223612 -11.818944 0
M  V30 13 H 9.665768 5.601688 -6.912160 0
M  V30 14 H 11.873971 9.447873 -9.179617 0
M  V30 15 H 12.236487 9.055167 -6.751496 0
M  V30 16 H 9.578511 4.805320 -9.818064 0
M  V30 17 H 8.168489 5.437540 -8.963867 0
M  V30 18 H 11.133150 7.134146 -5.618988 0
M  V30 19 H 7.942824 7.130551 -10.460355 0
M  V30 20 H 8.050934 5.743647 -11.354601 0
M  V30 END ATOM
M  V30 BEGIN BOND
M  V30 1 1 2 1
M  V30 2 1 3 2
M  V30 3 1 4 3
M  V30 4 2 5 4
M  V30 5 2 6 3
M  V30 6 1 7 6
M  V30 7 1 8 4
M  V30 8 1 9 5
M  V30 9 2 9 7
M  V30 10 1 10 1
M  V30 11 1 10 8
M  V30 12 1 11 1
M  V30 13 1 12 1
M  V30 14 1 13 5
M  V30 15 1 14 6
M  V30 16 1 15 7
M  V30 17 1 16 8
M  V30 18 1 17 8
M  V30 19 1 18 9
M  V30 20 1 19 10
M  V30 21 1 20 10
M  V30 END BOND
M  V30 END CTAB
M  END
>  <i_epik_Tot_Q>  (1) 
1

>  <i_epik_Tot_abs_Q>  (1) 
1

>  <i_i_glide_confnum>  (1) 
1

>  <i_i_glide_lignum>  (1) 
55

>  <i_i_glide_posenum>  (1) 
309

>  <i_i_glide_rotatable_bonds>  (1) 
0

>  <i_lp_mmshare_version>  (1) 
72125

>  <i_m_source_file_index>  (1) 
49

>  <i_f3d_flags>  (1) 
0

>  <num_sample>  (1) 
100

>  <b_lp_Chiralities_Consistent>  (1) 
1

>  <r_epik_Charging_Adjusted_Penalty>  (1) 
1.7789378330503367

>  <r_epik_Ionization_Penalty>  (1) 
0.88946891652516835

>  <r_epik_Ionization_Penalty_Charging>  (1) 
0.88946891652516835

>  <r_epik_Ionization_Penalty_Neutral>  (1) 
0

>  <r_epik_State_Penalty>  (1) 
0.88946891652516835

>  <r_glide_ring_energy>  (1) 
0

>  <r_i_docking_score>  (1) 
-5.0894988592362989

>  <r_i_glide_ecoul>  (1) 
-7.40683728808638

>  <r_i_glide_eff_state_penalty>  (1) 
0.88946891652516835

>  <r_i_glide_einternal>  (1) 
0

>  <r_i_glide_emodel>  (1) 
-38.050952960360142

>  <r_i_glide_emodel_strain>  (1) 
0

>  <r_i_glide_energy>  (1) 
-24.418886099231564

>  <r_i_glide_erotb>  (1) 
0

>  <r_i_glide_esite>  (1) 
-0.12891547326303815

>  <r_i_glide_evdw>  (1) 
-17.012048811145185

>  <r_i_glide_gscore>  (1) 
-5.9789677757614674

>  <r_i_glide_gscore_strain>  (1) 
0

>  <r_i_glide_hbond>  (1) 
-0.20000000000000001

>  <r_i_glide_ligand_efficiency>  (1) 
-0.50894988592362989

>  <r_i_glide_ligand_efficiency_ln>  (1) 
-1.5410651704426725

>  <r_i_glide_ligand_efficiency_sa>  (1) 
-1.0964992897216383

>  <r_i_glide_lipo>  (1) 
-0.85800852280448081

>  <r_i_glide_metal>  (1) 
-0

>  <r_i_glide_rewards>  (1) 
-2.830415745923732

>  <r_lp_Energy>  (1) 
22.335957999999998

>  <r_lp_tautomer_probability>  (1) 
1

>  <s_epik_Chemistry_Notes>  (1) 
This compound contains an acetal/aminal-like group ( X-CH(R)-Y where X, Y are N, S, or O) that may be acid/base labile, releasing an aldehyde.

>  <s_epik_cmdline>  (1) 
J2VwaWtfcHl0aG9uJywgJy1waHQnLCAnMS4wJywgJy1waCcsICc3LjQnLCAnLXRuJywgJzgnLCAnLW1hJywgJzUwMCcsICctaW1hZScsICc8aW5maWxlLm1hZT4nLCAnLW9tYWUnLCAnPG91dGZpbGUubWFlPic=

>  <s_epik_input>  (1) 
TzFbQ0gyXVtOSF1bQ0gyXWMoYzEyKVtjSF1bY0hdW2NIXVtjSF0y

>  <s_glide_docking_method>  (1) 
confgen

>  <s_i_glide_gridfile>  (1) 
gpcr_drd2_6luq_protein_autoprepared_prepared

>  <s_lp_Force_Field>  (1) 
S-OPLS

>  <s_lp_Variant>  (1) 
Pocket2Mol_48-2

>  <s_m_source_file>  (1) 
generated_generic_title2_ligand_Pocket2Mol_2026-06-23_prepared.sdf

>  <GenAI_Model>  (1) 
Pocket2Mol

>  <Protein>  (1) 
generic_title2

$$$$
Pocket2Mol_85
     RDKit          3D

  0  0  0  0  0  0  0  0  0  0999 V3000
M  V30 BEGIN CTAB
M  V30 COUNTS 22 23 0 0 1
M  V30 BEGIN ATOM
M  V30 1 C 11.188853 7.866491 -10.785025 0
M  V30 2 O 10.452024 6.790228 -10.251883 0
M  V30 3 C 12.175176 8.471919 -9.779847 0
M  V30 4 O 11.512089 9.190228 -8.752505 0
M  V30 5 C 9.485023 7.182296 -9.302423 0
M  V30 6 C 11.044153 8.412674 -7.723900 0
M  V30 7 C 11.513251 8.591017 -6.414163 0
M  V30 8 C 10.080103 7.423761 -7.934407 0
M  V30 9 C 12.548630 9.650902 -6.098007 0
M  V30 10 N 11.085850 7.837179 -5.369578 0
M  V30 11 N 10.181562 6.860464 -5.585025 0
M  V30 12 C 9.671752 6.670171 -6.827839 0
M  V30 13 H 11.752739 7.469075 -11.628004 0
M  V30 14 H 10.504034 8.609979 -11.185011 0
M  V30 15 H 12.837326 7.708275 -9.368114 0
M  V30 16 H 12.811543 9.189645 -10.299889 0
M  V30 17 H 8.975449 8.086481 -9.636135 0
M  V30 18 H 8.737588 6.390227 -9.238849 0
M  V30 19 H 12.131305 10.643579 -6.267930 0
M  V30 20 H 13.425452 9.530033 -6.734622 0
M  V30 21 H 12.875170 9.590227 -5.059047 0
M  V30 22 H 8.926804 5.895095 -6.931616 0
M  V30 END ATOM
M  V30 BEGIN BOND
M  V30 1 1 2 1
M  V30 2 1 3 1
M  V30 3 1 4 3
M  V30 4 1 5 2
M  V30 5 1 6 4
M  V30 6 1 7 6
M  V30 7 1 8 5
M  V30 8 2 8 6
M  V30 9 1 9 7
M  V30 10 2 10 7
M  V30 11 1 11 10
M  V30 12 1 12 8
M  V30 13 2 12 11
M  V30 14 1 13 1
M  V30 15 1 14 1
M  V30 16 1 15 3
M  V30 17 1 16 3
M  V30 18 1 17 5
M  V30 19 1 18 5
M  V30 20 1 19 9
M  V30 21 1 20 9
M  V30 22 1 21 9
M  V30 23 1 22 12
M  V30 END BOND
M  V30 END CTAB
M  END
>  <i_epik_Tot_Q>  (1) 
0

>  <i_epik_Tot_abs_Q>  (1) 
0

>  <i_i_glide_confnum>  (1) 
1

>  <i_i_glide_lignum>  (1) 
92

>  <i_i_glide_posenum>  (1) 
333

>  <i_i_glide_rotatable_bonds>  (1) 
0

>  <i_lp_mmshare_version>  (1) 
72125

>  <i_m_source_file_index>  (1) 
86

>  <i_f3d_flags>  (1) 
0

>  <num_sample>  (1) 
100

>  <b_lp_Chiralities_Consistent>  (1) 
1

>  <r_epik_Charging_Adjusted_Penalty>  (1) 
0.0091269655628041547

>  <r_epik_Ionization_Penalty>  (1) 
0.0091374853106045584

>  <r_epik_Ionization_Penalty_Charging>  (1) 
0

>  <r_epik_Ionization_Penalty_Neutral>  (1) 
0.0091374853106045584

>  <r_epik_State_Penalty>  (1) 
0.0091269655628041547

>  <r_glide_ring_energy>  (1) 
0

>  <r_i_docking_score>  (1) 
-5.0881549090384333

>  <r_i_glide_ecoul>  (1) 
-1.0642213653013746

>  <r_i_glide_eff_state_penalty>  (1) 
0.0091269655628041547

>  <r_i_glide_einternal>  (1) 
0

>  <r_i_glide_emodel>  (1) 
-24.581374531434893

>  <r_i_glide_emodel_strain>  (1) 
0

>  <r_i_glide_energy>  (1) 
-18.504732553177227

>  <r_i_glide_erotb>  (1) 
0

>  <r_i_glide_esite>  (1) 
0

>  <r_i_glide_evdw>  (1) 
-17.440511187875853

>  <r_i_glide_gscore>  (1) 
-5.0972818746012374

>  <r_i_glide_gscore_strain>  (1) 
0

>  <r_i_glide_hbond>  (1) 
0

>  <r_i_glide_ligand_efficiency>  (1) 
-0.42401290908653611

>  <r_i_glide_ligand_efficiency_ln>  (1) 
-1.4600548652710581

>  <r_i_glide_ligand_efficiency_sa>  (1) 
-0.97074723211565794

>  <r_i_glide_lipo>  (1) 
-1.0685837311325392

>  <r_i_glide_metal>  (1) 
-0

>  <r_i_glide_rewards>  (1) 
-2.9970393792796992

>  <r_lp_Energy>  (1) 
19.395567

>  <r_lp_tautomer_probability>  (1) 
1

>  <s_epik_cmdline>  (1) 
J2VwaWtfcHl0aG9uJywgJy1waHQnLCAnMS4wJywgJy1waCcsICc3LjQnLCAnLXRuJywgJzgnLCAnLW1hJywgJzUwMCcsICctaW1hZScsICc8aW5maWxlLm1hZT4nLCAnLW9tYWUnLCAnPG91dGZpbGUubWFlPic=

>  <s_epik_input>  (1) 
TzFbQ0gyXVtDSDJdT1tDSDJdYyhjMTIpW2NIXW5uYzJbQ0gzXQ==

>  <s_glide_docking_method>  (1) 
confgen

>  <s_i_glide_gridfile>  (1) 
gpcr_drd2_6luq_protein_autoprepared_prepared

>  <s_lp_Force_Field>  (1) 
S-OPLS

>  <s_lp_Variant>  (1) 
Pocket2Mol_85-1

>  <s_m_source_file>  (1) 
generated_generic_title2_ligand_Pocket2Mol_2026-06-23_prepared.sdf

>  <GenAI_Model>  (1) 
Pocket2Mol

>  <Protein>  (1) 
generic_title2

$$$$
Pocket2Mol_35
     RDKit          3D

  0  0  0  0  0  0  0  0  0  0999 V3000
M  V30 BEGIN CTAB
M  V30 COUNTS 16 17 0 0 1
M  V30 BEGIN ATOM
M  V30 1 C 11.058677 9.036140 -6.513144 0
M  V30 2 O 11.719560 9.792709 -5.424199 0
M  V30 3 C 11.858122 8.829927 -4.490051 0
M  V30 4 C 11.375412 7.622403 -4.806023 0
M  V30 5 C 11.476414 6.559950 -3.897690 0
M  V30 6 N 12.059484 6.694106 -2.675226 0
M  V30 7 C 12.544994 7.930550 -2.369820 0
M  V30 8 C 12.466729 9.031355 -3.249887 0
M  V30 9 C 10.757936 7.514859 -6.127531 0
M  V30 10 H 10.129403 9.536474 -6.778613 0
M  V30 11 H 11.695780 9.076246 -7.397708 0
M  V30 12 H 11.084947 5.590227 -4.144747 0
M  V30 13 H 13.004491 8.039047 -1.398950 0
M  V30 14 H 12.863758 9.990227 -2.972583 0
M  V30 15 H 11.270039 6.794893 -6.767291 0
M  V30 16 H 9.691566 7.293173 -6.059946 0
M  V30 END ATOM
M  V30 BEGIN BOND
M  V30 1 1 2 1
M  V30 2 1 3 2
M  V30 3 2 4 3
M  V30 4 1 5 4
M  V30 5 2 6 5
M  V30 6 1 7 6
M  V30 7 1 8 3
M  V30 8 2 8 7
M  V30 9 1 9 1
M  V30 10 1 9 4
M  V30 11 1 10 1
M  V30 12 1 11 1
M  V30 13 1 12 5
M  V30 14 1 13 7
M  V30 15 1 14 8
M  V30 16 1 15 9
M  V30 17 1 16 9
M  V30 END BOND
M  V30 END CTAB
M  END
>  <i_epik_Tot_Q>  (1) 
0

>  <i_epik_Tot_abs_Q>  (1) 
0

>  <i_i_glide_confnum>  (1) 
1

>  <i_i_glide_lignum>  (1) 
40

>  <i_i_glide_posenum>  (1) 
305

>  <i_i_glide_rotatable_bonds>  (1) 
0

>  <i_lp_mmshare_version>  (1) 
72125

>  <i_m_source_file_index>  (1) 
36

>  <i_f3d_flags>  (1) 
0

>  <num_sample>  (1) 
100

>  <b_lp_Chiralities_Consistent>  (1) 
1

>  <r_epik_Charging_Adjusted_Penalty>  (1) 
0.44367302241175355

>  <r_epik_Ionization_Penalty>  (1) 
0.44367302241175355

>  <r_epik_Ionization_Penalty_Charging>  (1) 
0

>  <r_epik_Ionization_Penalty_Neutral>  (1) 
0.44367302241175355

>  <r_epik_State_Penalty>  (1) 
0.44367302241175355

>  <r_glide_ring_energy>  (1) 
0

>  <r_i_docking_score>  (1) 
-5.0879136022931943

>  <r_i_glide_ecoul>  (1) 
-0.87082171059091162

>  <r_i_glide_eff_state_penalty>  (1) 
0.44367302241175355

>  <r_i_glide_einternal>  (1) 
0

>  <r_i_glide_emodel>  (1) 
-27.207772676895726

>  <r_i_glide_emodel_strain>  (1) 
0

>  <r_i_glide_energy>  (1) 
-19.900470977240548

>  <r_i_glide_erotb>  (1) 
0

>  <r_i_glide_esite>  (1) 
0

>  <r_i_glide_evdw>  (1) 
-19.029649266649638

>  <r_i_glide_gscore>  (1) 
-5.5315866247049481

>  <r_i_glide_gscore_strain>  (1) 
0

>  <r_i_glide_hbond>  (1) 
0

>  <r_i_glide_ligand_efficiency>  (1) 
-0.5653237335881327

>  <r_i_glide_ligand_efficiency_ln>  (1) 
-1.5913532125204073

>  <r_i_glide_ligand_efficiency_sa>  (1) 
-1.1759207530239795

>  <r_i_glide_lipo>  (1) 
-1.8328142381171617

>  <r_i_glide_metal>  (1) 
-0

>  <r_i_glide_rewards>  (1) 
-2.6166666666666667

>  <r_lp_Energy>  (1) 
12.810587999999999

>  <s_epik_cmdline>  (1) 
J2VwaWtfcHl0aG9uJywgJy1waHQnLCAnMS4wJywgJy1waCcsICc3LjQnLCAnLXRuJywgJzgnLCAnLW1hJywgJzUwMCcsICctaW1hZScsICc8aW5maWxlLm1hZT4nLCAnLW9tYWUnLCAnPG91dGZpbGUubWFlPic=

>  <s_epik_input>  (1) 
TzFbQ0gyXVtDSDJdYyhjMTIpW2NIXW5bY0hdW2NIXTI=

>  <s_glide_docking_method>  (1) 
confgen

>  <s_i_glide_gridfile>  (1) 
gpcr_drd2_6luq_protein_autoprepared_prepared

>  <s_lp_Force_Field>  (1) 
S-OPLS

>  <s_lp_Variant>  (1) 
Pocket2Mol_35-2

>  <s_m_source_file>  (1) 
generated_generic_title2_ligand_Pocket2Mol_2026-06-23_prepared.sdf

>  <GenAI_Model>  (1) 
Pocket2Mol

>  <Protein>  (1) 
generic_title2

$$$$
Pocket2Mol_29
     RDKit          3D

  0  0  0  0  0  0  0  0  0  0999 V3000
M  V30 BEGIN CTAB
M  V30 COUNTS 18 18 0 0 1
M  V30 BEGIN ATOM
M  V30 1 C 10.939955 6.894872 -5.742295 0
M  V30 2 O 9.715009 6.580169 -6.385035 0
M  V30 3 C 9.742704 6.642675 -7.802238 0
M  V30 4 C 10.061708 8.054930 -8.327664 0
M  V30 5 O 9.775410 8.092162 -9.708656 0
M  V30 6 C 11.137158 8.421639 -5.701844 0
M  V30 7 C 11.537651 8.441711 -8.111516 0
M  V30 8 O 11.830951 8.968664 -6.819490 0
M  V30 9 H 10.847599 6.529210 -4.719260 0
M  V30 10 H 11.785331 6.365797 -6.182481 0
M  V30 11 H 8.751578 6.341881 -8.144984 0
M  V30 12 H 10.442537 5.904723 -8.197660 0
M  V30 13 H 9.402552 8.790226 -7.863823 0
M  V30 14 H 8.827683 7.990222 -9.795901 0
M  V30 15 H 10.175413 8.922381 -5.585039 0
M  V30 16 H 11.719293 8.685010 -4.818509 0
M  V30 17 H 12.188174 7.590230 -8.313719 0
M  V30 18 H 11.828783 9.213493 -8.825245 0
M  V30 END ATOM
M  V30 BEGIN BOND
M  V30 1 1 2 1
M  V30 2 1 3 2
M  V30 3 1 4 3
M  V30 4 1 5 4
M  V30 5 1 6 1
M  V30 6 1 7 4
M  V30 7 1 8 6
M  V30 8 1 8 7
M  V30 9 1 9 1
M  V30 10 1 10 1
M  V30 11 1 11 3
M  V30 12 1 12 3
M  V30 13 1 13 4
M  V30 14 1 14 5
M  V30 15 1 15 6
M  V30 16 1 16 6
M  V30 17 1 17 7
M  V30 18 1 18 7
M  V30 END BOND
M  V30 END CTAB
M  END
>  <i_epik_Tot_Q>  (1) 
0

>  <i_epik_Tot_abs_Q>  (1) 
0

>  <i_i_glide_confnum>  (1) 
4

>  <i_i_glide_lignum>  (1) 
33

>  <i_i_glide_posenum>  (1) 
288

>  <i_i_glide_rotatable_bonds>  (1) 
1

>  <i_lp_mmshare_version>  (1) 
72125

>  <i_m_source_file_index>  (1) 
30

>  <i_f3d_flags>  (1) 
0

>  <num_sample>  (1) 
100

>  <b_lp_Chiralities_Consistent>  (1) 
1

>  <r_epik_Charging_Adjusted_Penalty>  (1) 
0

>  <r_epik_Ionization_Penalty>  (1) 
1.4561355789117501e-07

>  <r_epik_Ionization_Penalty_Charging>  (1) 
0

>  <r_epik_Ionization_Penalty_Neutral>  (1) 
1.4561355789117501e-07

>  <r_epik_State_Penalty>  (1) 
-0

>  <r_glide_ring_energy>  (1) 
0.067246547245782246

>  <r_i_docking_score>  (1) 
-5.0879027788979982

>  <r_i_glide_ecoul>  (1) 
-3.2563084829007374

>  <r_i_glide_eff_state_penalty>  (1) 
-0

>  <r_i_glide_einternal>  (1) 
0.34702136636643877

>  <r_i_glide_emodel>  (1) 
-28.08354567858278

>  <r_i_glide_emodel_strain>  (1) 
0

>  <r_i_glide_energy>  (1) 
-21.115712458157521

>  <r_i_glide_erotb>  (1) 
0

>  <r_i_glide_esite>  (1) 
0

>  <r_i_glide_evdw>  (1) 
-17.859403975256782

>  <r_i_glide_gscore>  (1) 
-5.0879027788979982

>  <r_i_glide_gscore_strain>  (1) 
0

>  <r_i_glide_hbond>  (1) 
-0.16

>  <r_i_glide_ligand_efficiency>  (1) 
-0.63598784736224978

>  <r_i_glide_ligand_efficiency_ln>  (1) 
-1.652216062566509

>  <r_i_glide_ligand_efficiency_sa>  (1) 
-1.2719756947244998

>  <r_i_glide_lipo>  (1) 
-0.85704914875739568

>  <r_i_glide_metal>  (1) 
-0

>  <r_i_glide_rewards>  (1) 
-2.6894371589426522

>  <r_lp_Energy>  (1) 
13.809562999999999

>  <r_lp_tautomer_probability>  (1) 
1

>  <s_epik_cmdline>  (1) 
J2VwaWtfcHl0aG9uJywgJy1waHQnLCAnMS4wJywgJy1waCcsICc3LjQnLCAnLXRuJywgJzgnLCAnLW1hJywgJzUwMCcsICctaW1hZScsICc8aW5maWxlLm1hZT4nLCAnLW9tYWUnLCAnPG91dGZpbGUubWFlPic=

>  <s_epik_input>  (1) 
W0NIMl0xT1tDSDJdW0NIMl1PW0NIMl1bQ0hdMVtPSF0=

>  <s_glide_docking_method>  (1) 
confgen

>  <s_i_glide_gridfile>  (1) 
gpcr_drd2_6luq_protein_autoprepared_prepared

>  <s_lp_Force_Field>  (1) 
S-OPLS

>  <s_lp_Variant>  (1) 
Pocket2Mol_29-1

>  <s_m_source_file>  (1) 
generated_generic_title2_ligand_Pocket2Mol_2026-06-23_prepared.sdf

>  <GenAI_Model>  (1) 
Pocket2Mol

>  <Protein>  (1) 
generic_title2

$$$$
Pocket2Mol_47
     RDKit          3D

  0  0  0  0  0  0  0  0  0  0999 V3000
M  V30 BEGIN CTAB
M  V30 COUNTS 16 17 0 0 1
M  V30 BEGIN ATOM
M  V30 1 C 11.747875 9.015944 -4.967248 0
M  V30 2 O 10.863764 7.991766 -5.185046 0
M  V30 3 C 10.612891 7.638101 -6.493143 0
M  V30 4 C 11.338845 8.245227 -7.546545 0
M  V30 5 C 11.079179 7.880969 -8.881102 0
M  V30 6 C 9.632227 6.672052 -6.785022 0
M  V30 7 C 9.375422 6.308839 -8.120893 0
M  V30 8 O 12.294711 9.190223 -7.269797 0
M  V30 9 C 10.098193 6.913058 -9.168219 0
M  V30 10 C 12.434068 9.590227 -5.969027 0
M  V30 11 H 11.823149 9.289408 -3.925004 0
M  V30 12 H 11.631597 8.345050 -9.684620 0
M  V30 13 H 9.074794 6.209786 -5.984643 0
M  V30 14 H 8.619586 5.569509 -8.343270 0
M  V30 15 H 9.896659 6.635339 -10.192276 0
M  V30 16 H 13.144342 10.390227 -5.855327 0
M  V30 END ATOM
M  V30 BEGIN BOND
M  V30 1 1 2 1
M  V30 2 1 3 2
M  V30 3 1 4 3
M  V30 4 2 5 4
M  V30 5 2 6 3
M  V30 6 1 7 6
M  V30 7 1 8 4
M  V30 8 1 9 5
M  V30 9 2 9 7
M  V30 10 2 10 1
M  V30 11 1 10 8
M  V30 12 1 11 1
M  V30 13 1 12 5
M  V30 14 1 13 6
M  V30 15 1 14 7
M  V30 16 1 15 9
M  V30 17 1 16 10
M  V30 END BOND
M  V30 END CTAB
M  END
>  <i_epik_Tot_Q>  (1) 
0

>  <i_epik_Tot_abs_Q>  (1) 
0

>  <i_i_glide_confnum>  (1) 
1

>  <i_i_glide_lignum>  (1) 
53

>  <i_i_glide_posenum>  (1) 
273

>  <i_i_glide_rotatable_bonds>  (1) 
0

>  <i_lp_mmshare_version>  (1) 
72125

>  <i_m_source_file_index>  (1) 
48

>  <i_f3d_flags>  (1) 
0

>  <num_sample>  (1) 
100

>  <b_lp_Chiralities_Consistent>  (1) 
1

>  <r_epik_Charging_Adjusted_Penalty>  (1) 
0

>  <r_epik_Ionization_Penalty>  (1) 
0

>  <r_epik_Ionization_Penalty_Charging>  (1) 
0

>  <r_epik_Ionization_Penalty_Neutral>  (1) 
0

>  <r_epik_State_Penalty>  (1) 
-0

>  <r_glide_ring_energy>  (1) 
0

>  <r_i_docking_score>  (1) 
-5.0833819610484916

>  <r_i_glide_ecoul>  (1) 
-0.34383473532704106

>  <r_i_glide_eff_state_penalty>  (1) 
-0

>  <r_i_glide_einternal>  (1) 
0

>  <r_i_glide_emodel>  (1) 
-25.379457626793013

>  <r_i_glide_emodel_strain>  (1) 
0

>  <r_i_glide_energy>  (1) 
-18.766934754884169

>  <r_i_glide_erotb>  (1) 
0

>  <r_i_glide_esite>  (1) 
0

>  <r_i_glide_evdw>  (1) 
-18.423100019557129

>  <r_i_glide_gscore>  (1) 
-5.0833819610484916

>  <r_i_glide_gscore_strain>  (1) 
0

>  <r_i_glide_hbond>  (1) 
0

>  <r_i_glide_ligand_efficiency>  (1) 
-0.5083381961048492

>  <r_i_glide_ligand_efficiency_ln>  (1) 
-1.5392130158378501

>  <r_i_glide_ligand_efficiency_sa>  (1) 
-1.0951814439565177

>  <r_i_glide_lipo>  (1) 
-1.2106517497715787

>  <r_i_glide_metal>  (1) 
-0

>  <r_i_glide_rewards>  (1) 
-2.8999999999999999

>  <r_lp_Energy>  (1) 
24.726983000000001

>  <r_lp_tautomer_probability>  (1) 
1

>  <s_epik_cmdline>  (1) 
J2VwaWtfcHl0aG9uJywgJy1waHQnLCAnMS4wJywgJy1waCcsICc3LjQnLCAnLXRuJywgJzgnLCAnLW1hJywgJzUwMCcsICctaW1hZScsICc8aW5maWxlLm1hZT4nLCAnLW9tYWUnLCAnPG91dGZpbGUubWFlPic=

>  <s_epik_input>  (1) 
TzFbQ0hdPVtDSF1PYyhjMTIpW2NIXVtjSF1bY0hdW2NIXTI=

>  <s_glide_docking_method>  (1) 
confgen

>  <s_i_glide_gridfile>  (1) 
gpcr_drd2_6luq_protein_autoprepared_prepared

>  <s_lp_Force_Field>  (1) 
S-OPLS

>  <s_lp_Variant>  (1) 
Pocket2Mol_47-1

>  <s_m_source_file>  (1) 
generated_generic_title2_ligand_Pocket2Mol_2026-06-23_prepared.sdf

>  <GenAI_Model>  (1) 
Pocket2Mol

>  <Protein>  (1) 
generic_title2

$$$$
Pocket2Mol_74
     RDKit          3D

  0  0  0  0  0  0  0  0  0  0999 V3000
M  V30 BEGIN CTAB
M  V30 COUNTS 20 21 0 0 1
M  V30 BEGIN ATOM
M  V30 1 C 8.839061 6.257242 -11.219012 0
M  V30 2 O 9.375382 5.372312 -10.256090 0
M  V30 3 C 9.576059 7.590227 -11.182432 0
M  V30 4 O 10.822993 7.406903 -10.531075 0
M  V30 5 C 9.151937 5.552263 -8.946923 0
M  V30 6 C 10.752642 7.561514 -9.168490 0
M  V30 7 C 11.493136 8.594322 -8.560138 0
M  V30 8 O 8.408035 4.826891 -8.288452 0
M  V30 9 C 9.940788 6.700730 -8.359220 0
M  V30 10 C 9.881873 6.916537 -6.963378 0
M  V30 11 C 10.622698 7.956859 -6.373174 0
M  V30 12 C 11.428926 8.790222 -7.168100 0
M  V30 13 H 7.765348 6.390139 -11.081721 0
M  V30 14 H 8.979847 5.792970 -12.195094 0
M  V30 15 H 8.975449 8.347311 -10.673249 0
M  V30 16 H 9.742096 7.958735 -12.194741 0
M  V30 17 H 12.109106 9.242485 -9.166635 0
M  V30 18 H 9.269937 6.276481 -6.343164 0
M  V30 19 H 10.574580 8.112854 -5.305756 0
M  V30 20 H 11.997322 9.585866 -6.709770 0
M  V30 END ATOM
M  V30 BEGIN BOND
M  V30 1 1 2 1
M  V30 2 1 3 1
M  V30 3 1 4 3
M  V30 4 1 5 2
M  V30 5 1 6 4
M  V30 6 2 7 6
M  V30 7 2 8 5
M  V30 8 1 9 5
M  V30 9 1 9 6
M  V30 10 2 10 9
M  V30 11 1 11 10
M  V30 12 1 12 7
M  V30 13 2 12 11
M  V30 14 1 13 1
M  V30 15 1 14 1
M  V30 16 1 15 3
M  V30 17 1 16 3
M  V30 18 1 17 7
M  V30 19 1 18 10
M  V30 20 1 19 11
M  V30 21 1 20 12
M  V30 END BOND
M  V30 END CTAB
M  END
>  <i_epik_Tot_Q>  (1) 
0

>  <i_epik_Tot_abs_Q>  (1) 
0

>  <i_i_glide_confnum>  (1) 
6

>  <i_i_glide_lignum>  (1) 
81

>  <i_i_glide_posenum>  (1) 
170

>  <i_i_glide_rotatable_bonds>  (1) 
0

>  <i_lp_mmshare_version>  (1) 
72125

>  <i_m_source_file_index>  (1) 
75

>  <i_f3d_flags>  (1) 
0

>  <num_sample>  (1) 
100

>  <b_lp_Chiralities_Consistent>  (1) 
1

>  <r_epik_Charging_Adjusted_Penalty>  (1) 
0

>  <r_epik_Ionization_Penalty>  (1) 
6.5779134034160639e-16

>  <r_epik_Ionization_Penalty_Charging>  (1) 
0

>  <r_epik_Ionization_Penalty_Neutral>  (1) 
6.5779134034160639e-16

>  <r_epik_State_Penalty>  (1) 
-0

>  <r_glide_ring_energy>  (1) 
1.0387810876674941

>  <r_i_docking_score>  (1) 
-5.0820250624821064

>  <r_i_glide_ecoul>  (1) 
-1.4971413827100188

>  <r_i_glide_eff_state_penalty>  (1) 
-0

>  <r_i_glide_einternal>  (1) 
0

>  <r_i_glide_emodel>  (1) 
-31.540885310373326

>  <r_i_glide_emodel_strain>  (1) 
0.71016450778052587

>  <r_i_glide_energy>  (1) 
-24.742999610535374

>  <r_i_glide_erotb>  (1) 
0

>  <r_i_glide_esite>  (1) 
-0.063752608530169771

>  <r_i_glide_evdw>  (1) 
-23.245858227825355

>  <r_i_glide_gscore>  (1) 
-5.0820250624821064

>  <r_i_glide_gscore_strain>  (1) 
0

>  <r_i_glide_hbond>  (1) 
0

>  <r_i_glide_ligand_efficiency>  (1) 
-0.42350208854017551

>  <r_i_glide_ligand_efficiency_ln>  (1) 
-1.4582958951830933

>  <r_i_glide_ligand_efficiency_sa>  (1) 
-0.96957774500604232

>  <r_i_glide_lipo>  (1) 
-0.75174590514775907

>  <r_i_glide_metal>  (1) 
-0

>  <r_i_glide_rewards>  (1) 
-2.8796624300064075

>  <r_lp_Energy>  (1) 
17.344456999999998

>  <r_lp_tautomer_probability>  (1) 
1

>  <s_epik_Chemistry_Notes>  (1) 
This compound has an ester and may undergo hydrolysis at high or low pH.

>  <s_epik_cmdline>  (1) 
J2VwaWtfcHl0aG9uJywgJy1waHQnLCAnMS4wJywgJy1waCcsICc3LjQnLCAnLXRuJywgJzgnLCAnLW1hJywgJzUwMCcsICctaW1hZScsICc8aW5maWxlLm1hZT4nLCAnLW9tYWUnLCAnPG91dGZpbGUubWFlPic=

>  <s_epik_input>  (1) 
TzFbQ0gyXVtDSDJdT0MoPU8pYyhjMTIpW2NIXVtjSF1bY0hdW2NIXTI=

>  <s_glide_docking_method>  (1) 
confgen

>  <s_i_glide_gridfile>  (1) 
gpcr_drd2_6luq_protein_autoprepared_prepared

>  <s_lp_Force_Field>  (1) 
S-OPLS

>  <s_lp_Variant>  (1) 
Pocket2Mol_74-1

>  <s_m_source_file>  (1) 
generated_generic_title2_ligand_Pocket2Mol_2026-06-23_prepared.sdf

>  <GenAI_Model>  (1) 
Pocket2Mol

>  <Protein>  (1) 
generic_title2

$$$$
Pocket2Mol_26
     RDKit          3D

  0  0  0  0  0  0  0  0  0  0999 V3000
M  V30 BEGIN CTAB
M  V30 COUNTS 15 15 0 0 1
M  V30 BEGIN ATOM
M  V30 1 C 10.108666 6.742645 -7.583902 0
M  V30 2 O 11.375410 7.202230 -7.104429 0
M  V30 3 C 11.725479 8.529146 -7.510843 0
M  V30 4 C 11.817890 8.676137 -9.052807 0 CFG=1
M  V30 5 O 13.119395 8.390229 -9.526199 0
M  V30 6 C 10.009681 6.950533 -9.076451 0
M  V30 7 C 10.783306 7.816143 -9.737899 0
M  V30 8 H 9.290810 7.264969 -7.085317 0
M  V30 9 H 10.011531 5.680987 -7.356326 0
M  V30 10 H 12.659229 8.829960 -7.035543 0
M  V30 11 H 10.955653 9.197544 -7.124859 0
M  V30 12 H 11.612849 9.713085 -9.320059 0
M  V30 13 H 13.601128 9.211707 -9.585034 0
M  V30 14 H 9.272468 6.365138 -9.607319 0
M  V30 15 H 10.676296 7.931181 -10.806171 0
M  V30 END ATOM
M  V30 BEGIN BOND
M  V30 1 1 2 1
M  V30 2 1 3 2
M  V30 3 1 4 3
M  V30 4 1 5 4
M  V30 5 1 6 1
M  V30 6 1 7 4
M  V30 7 2 7 6
M  V30 8 1 8 1
M  V30 9 1 9 1
M  V30 10 1 10 3
M  V30 11 1 11 3
M  V30 12 1 4 12 CFG=1
M  V30 13 1 13 5
M  V30 14 1 14 6
M  V30 15 1 15 7
M  V30 END BOND
M  V30 END CTAB
M  END
>  <i_epik_Tot_Q>  (1) 
0

>  <i_epik_Tot_abs_Q>  (1) 
0

>  <i_i_glide_confnum>  (1) 
2

>  <i_i_glide_lignum>  (1) 
30

>  <i_i_glide_posenum>  (1) 
228

>  <i_i_glide_rotatable_bonds>  (1) 
1

>  <i_lp_mmshare_version>  (1) 
72125

>  <i_m_source_file_index>  (1) 
27

>  <i_f3d_flags>  (1) 
0

>  <num_sample>  (1) 
100

>  <b_lp_Chiralities_Consistent>  (1) 
1

>  <r_epik_Charging_Adjusted_Penalty>  (1) 
0

>  <r_epik_Ionization_Penalty>  (1) 
7.567869706951744e-07

>  <r_epik_Ionization_Penalty_Charging>  (1) 
0

>  <r_epik_Ionization_Penalty_Neutral>  (1) 
7.567869706951744e-07

>  <r_epik_State_Penalty>  (1) 
-0

>  <r_glide_ring_energy>  (1) 
0.3802776858136746

>  <r_i_docking_score>  (1) 
-5.0805762520511415

>  <r_i_glide_ecoul>  (1) 
-4.4562737483031682

>  <r_i_glide_eff_state_penalty>  (1) 
-0

>  <r_i_glide_einternal>  (1) 
0.91845473118826004

>  <r_i_glide_emodel>  (1) 
-25.143174085110889

>  <r_i_glide_emodel_strain>  (1) 
0.11342427617556528

>  <r_i_glide_energy>  (1) 
-19.300229079040271

>  <r_i_glide_erotb>  (1) 
0

>  <r_i_glide_esite>  (1) 
0

>  <r_i_glide_evdw>  (1) 
-14.843955330737101

>  <r_i_glide_gscore>  (1) 
-5.0805762520511415

>  <r_i_glide_gscore_strain>  (1) 
0

>  <r_i_glide_hbond>  (1) 
-0.32000000000000001

>  <r_i_glide_ligand_efficiency>  (1) 
-0.72579660743587737

>  <r_i_glide_ligand_efficiency_ln>  (1) 
-1.7246202344903041

>  <r_i_glide_ligand_efficiency_sa>  (1) 
-1.3883989627145004

>  <r_i_glide_lipo>  (1) 
-0.63327075660214527

>  <r_i_glide_metal>  (1) 
-0

>  <r_i_glide_rewards>  (1) 
-2.7166666666666668

>  <r_lp_Energy>  (1) 
2.4739009999999997

>  <r_lp_tautomer_probability>  (1) 
1

>  <s_epik_cmdline>  (1) 
J2VwaWtfcHl0aG9uJywgJy1waHQnLCAnMS4wJywgJy1waCcsICc3LjQnLCAnLXRuJywgJzgnLCAnLW1hJywgJzUwMCcsICctaW1hZScsICc8aW5maWxlLm1hZT4nLCAnLW9tYWUnLCAnPG91dGZpbGUubWFlPic=

>  <s_epik_input>  (1) 
W0NIXTE9W0NIXVtDSDJdT1tDSDJdW0NASF0xW09IXQ==

>  <s_glide_docking_method>  (1) 
confgen

>  <s_i_glide_gridfile>  (1) 
gpcr_drd2_6luq_protein_autoprepared_prepared

>  <s_lp_Force_Field>  (1) 
S-OPLS

>  <s_lp_Variant>  (1) 
Pocket2Mol_26-1

>  <s_m_source_file>  (1) 
generated_generic_title2_ligand_Pocket2Mol_2026-06-23_prepared.sdf

>  <GenAI_Model>  (1) 
Pocket2Mol

>  <Protein>  (1) 
generic_title2

$$$$
Pocket2Mol_27
     RDKit          3D

  0  0  0  0  0  0  0  0  0  0999 V3000
M  V30 BEGIN CTAB
M  V30 COUNTS 15 15 0 0 1
M  V30 BEGIN ATOM
M  V30 1 C 11.447473 9.586554 -5.324573 0
M  V30 2 O 12.043400 9.500301 -4.002693 0
M  V30 3 C 12.175406 8.277113 -3.353577 0
M  V30 4 C 12.765749 8.390378 -1.970262 0
M  V30 5 C 11.030311 8.250334 -5.903095 0
M  V30 6 C 11.775420 7.125015 -3.931122 0
M  V30 7 C 11.193168 7.113394 -5.237033 0
M  V30 8 H 10.575410 10.239006 -5.272899 0
M  V30 9 H 12.162589 10.056287 -5.999922 0
M  V30 10 H 12.802592 7.415067 -1.486657 0
M  V30 11 H 13.775211 8.790604 -2.006389 0
M  V30 12 H 12.155374 9.055680 -1.358869 0
M  V30 13 H 10.588916 8.249650 -6.889753 0
M  V30 14 H 11.884991 6.194056 -3.393013 0
M  V30 15 H 10.881833 6.178105 -5.680370 0
M  V30 END ATOM
M  V30 BEGIN BOND
M  V30 1 1 2 1
M  V30 2 1 3 2
M  V30 3 1 4 3
M  V30 4 1 5 1
M  V30 5 2 6 3
M  V30 6 2 7 5
M  V30 7 1 7 6
M  V30 8 1 8 1
M  V30 9 1 9 1
M  V30 10 1 10 4
M  V30 11 1 11 4
M  V30 12 1 12 4
M  V30 13 1 13 5
M  V30 14 1 14 6
M  V30 15 1 15 7
M  V30 END BOND
M  V30 END CTAB
M  END
>  <i_epik_Tot_Q>  (1) 
0

>  <i_epik_Tot_abs_Q>  (1) 
0

>  <i_i_glide_confnum>  (1) 
1

>  <i_i_glide_lignum>  (1) 
31

>  <i_i_glide_posenum>  (1) 
127

>  <i_i_glide_rotatable_bonds>  (1) 
0

>  <i_lp_mmshare_version>  (1) 
72125

>  <i_m_source_file_index>  (1) 
28

>  <i_f3d_flags>  (1) 
0

>  <num_sample>  (1) 
100

>  <b_lp_Chiralities_Consistent>  (1) 
1

>  <r_epik_Charging_Adjusted_Penalty>  (1) 
0

>  <r_epik_Ionization_Penalty>  (1) 
0

>  <r_epik_Ionization_Penalty_Charging>  (1) 
0

>  <r_epik_Ionization_Penalty_Neutral>  (1) 
0

>  <r_epik_State_Penalty>  (1) 
-0

>  <r_glide_ring_energy>  (1) 
0

>  <r_i_docking_score>  (1) 
-5.0708271222185237

>  <r_i_glide_ecoul>  (1) 
-0.71769574767808952

>  <r_i_glide_eff_state_penalty>  (1) 
-0

>  <r_i_glide_einternal>  (1) 
0

>  <r_i_glide_emodel>  (1) 
-23.116487831046364

>  <r_i_glide_emodel_strain>  (1) 
0.012916895194491573

>  <r_i_glide_energy>  (1) 
-17.5707033210555

>  <r_i_glide_erotb>  (1) 
0

>  <r_i_glide_esite>  (1) 
0

>  <r_i_glide_evdw>  (1) 
-16.853007573377411

>  <r_i_glide_gscore>  (1) 
-5.0708271222185237

>  <r_i_glide_gscore_strain>  (1) 
0

>  <r_i_glide_hbond>  (1) 
0

>  <r_i_glide_ligand_efficiency>  (1) 
-0.72440387460264621

>  <r_i_glide_ligand_efficiency_ln>  (1) 
-1.7213108566276616

>  <r_i_glide_ligand_efficiency_sa>  (1) 
-1.3857347606485415

>  <r_i_glide_lipo>  (1) 
-1.7500761324165022

>  <r_i_glide_metal>  (1) 
-0

>  <r_i_glide_rewards>  (1) 
-2.370446248981438

>  <r_lp_Energy>  (1) 
4.7929789999999999

>  <r_lp_tautomer_probability>  (1) 
1

>  <s_epik_cmdline>  (1) 
J2VwaWtfcHl0aG9uJywgJy1waHQnLCAnMS4wJywgJy1waCcsICc3LjQnLCAnLXRuJywgJzgnLCAnLW1hJywgJzUwMCcsICctaW1hZScsICc8aW5maWxlLm1hZT4nLCAnLW9tYWUnLCAnPG91dGZpbGUubWFlPic=

>  <s_epik_input>  (1) 
TzFbQ0gyXVtDSF09W0NIXVtDSF09QzFbQ0gzXQ==

>  <s_glide_docking_method>  (1) 
confgen

>  <s_i_glide_gridfile>  (1) 
gpcr_drd2_6luq_protein_autoprepared_prepared

>  <s_lp_Force_Field>  (1) 
S-OPLS

>  <s_lp_Variant>  (1) 
Pocket2Mol_27-1

>  <s_m_source_file>  (1) 
generated_generic_title2_ligand_Pocket2Mol_2026-06-23_prepared.sdf

>  <GenAI_Model>  (1) 
Pocket2Mol

>  <Protein>  (1) 
generic_title2

$$$$
Pocket2Mol_28
     RDKit          3D

  0  0  0  0  0  0  0  0  0  0999 V3000
M  V30 BEGIN CTAB
M  V30 COUNTS 13 13 0 0 1
M  V30 BEGIN ATOM
M  V30 1 N 11.783352 6.649188 -3.045398 0
M  V30 2 C 11.375367 6.583510 -4.365406 0
M  V30 3 C 11.347250 7.653324 -5.185026 0
M  V30 4 C 12.188623 7.867553 -2.526133 0
M  V30 5 O 10.946527 7.580051 -6.461816 0
M  V30 6 C 11.775403 8.983593 -4.664843 0
M  V30 7 O 11.771361 9.992716 -5.366171 0
M  V30 8 C 12.208465 9.013782 -3.240595 0
M  V30 9 H 11.075810 5.593729 -4.685433 0
M  V30 10 H 12.490563 7.826406 -1.490596 0
M  V30 11 H 10.664117 6.693458 -6.625806 0
M  V30 12 H 12.529606 9.948771 -2.805694 0
M  V30 13 H 11.777702 5.818724 -2.465825 0
M  V30 END ATOM
M  V30 BEGIN BOND
M  V30 1 1 2 1
M  V30 2 2 3 2
M  V30 3 1 4 1
M  V30 4 1 5 3
M  V30 5 1 6 3
M  V30 6 2 7 6
M  V30 7 2 8 4
M  V30 8 1 8 6
M  V30 9 1 9 2
M  V30 10 1 10 4
M  V30 11 1 11 5
M  V30 12 1 12 8
M  V30 13 1 13 1
M  V30 END BOND
M  V30 END CTAB
M  END
>  <i_epik_Tot_Q>  (1) 
0

>  <i_epik_Tot_abs_Q>  (1) 
0

>  <i_i_glide_confnum>  (1) 
1

>  <i_i_glide_lignum>  (1) 
32

>  <i_i_glide_posenum>  (1) 
287

>  <i_i_glide_rotatable_bonds>  (1) 
1

>  <i_lp_mmshare_version>  (1) 
72125

>  <i_m_source_file_index>  (1) 
29

>  <i_f3d_flags>  (1) 
0

>  <num_sample>  (1) 
100

>  <b_lp_Chiralities_Consistent>  (1) 
1

>  <r_epik_Charging_Adjusted_Penalty>  (1) 
0.000203171374695584

>  <r_epik_Ionization_Penalty>  (1) 
0.014901896624084464

>  <r_epik_Ionization_Penalty_Charging>  (1) 
0.000203171374695584

>  <r_epik_Ionization_Penalty_Neutral>  (1) 
0.01469872524938888

>  <r_epik_State_Penalty>  (1) 
-0

>  <r_glide_ring_energy>  (1) 
0

>  <r_i_docking_score>  (1) 
-5.0676075317181306

>  <r_i_glide_ecoul>  (1) 
-2.4453207858921693

>  <r_i_glide_eff_state_penalty>  (1) 
-0

>  <r_i_glide_einternal>  (1) 
0.018955616378204754

>  <r_i_glide_emodel>  (1) 
-28.526085666936254

>  <r_i_glide_emodel_strain>  (1) 
0

>  <r_i_glide_energy>  (1) 
-21.20083506148416

>  <r_i_glide_erotb>  (1) 
0

>  <r_i_glide_esite>  (1) 
0

>  <r_i_glide_evdw>  (1) 
-18.755514275591992

>  <r_i_glide_gscore>  (1) 
-5.0676075317181306

>  <r_i_glide_gscore_strain>  (1) 
0

>  <r_i_glide_hbond>  (1) 
0

>  <r_i_glide_ligand_efficiency>  (1) 
-0.63345094146476633

>  <r_i_glide_ligand_efficiency_ln>  (1) 
-1.6456255016140848

>  <r_i_glide_ligand_efficiency_sa>  (1) 
-1.2669018829295329

>  <r_i_glide_lipo>  (1) 
-1.5130337000547056

>  <r_i_glide_metal>  (1) 
-0

>  <r_i_glide_rewards>  (1) 
-2.25

>  <r_lp_Energy>  (1) 
11.500328

>  <r_lp_tautomer_probability>  (1) 
1

>  <s_epik_cmdline>  (1) 
J2VwaWtfcHl0aG9uJywgJy1waHQnLCAnMS4wJywgJy1waCcsICc3LjQnLCAnLXRuJywgJzgnLCAnLW1hJywgJzUwMCcsICctaW1hZScsICc8aW5maWxlLm1hZT4nLCAnLW9tYWUnLCAnPG91dGZpbGUubWFlPic=

>  <s_epik_input>  (1) 
W09IXWMxW2NIXW5bY0hdW2NIXWMxW09IXQ==

>  <s_glide_docking_method>  (1) 
confgen

>  <s_i_glide_gridfile>  (1) 
gpcr_drd2_6luq_protein_autoprepared_prepared

>  <s_lp_Force_Field>  (1) 
S-OPLS

>  <s_lp_Variant>  (1) 
Pocket2Mol_28-1

>  <s_m_source_file>  (1) 
generated_generic_title2_ligand_Pocket2Mol_2026-06-23_prepared.sdf

>  <GenAI_Model>  (1) 
Pocket2Mol

>  <Protein>  (1) 
generic_title2

$$$$
Pocket2Mol_52
     RDKit          3D

  0  0  0  0  0  0  0  0  0  0999 V3000
M  V30 BEGIN CTAB
M  V30 COUNTS 15 16 0 0 1
M  V30 BEGIN ATOM
M  V30 1 C 8.975492 5.590137 -9.766503 0
M  V30 2 O 9.791344 6.694058 -10.182699 0
M  V30 3 C 10.275424 7.226445 -8.995131 0
M  V30 4 C 9.782319 6.491670 -7.986427 0
M  V30 5 C 10.128048 6.833865 -6.660578 0
M  V30 6 C 11.110775 8.304532 -8.801889 0
M  V30 7 C 8.966317 5.454122 -8.385024 0
M  V30 8 N 10.967927 7.914732 -6.399950 0 CHG=1
M  V30 9 O 11.283488 8.227462 -5.193185 0 CHG=-1
M  V30 10 C 11.460601 8.650458 -7.478438 0
M  V30 11 H 8.501531 5.047094 -10.570585 0
M  V30 12 H 9.782097 6.307679 -5.782912 0
M  V30 13 H 11.487700 8.870146 -9.640947 0
M  V30 14 H 8.467849 4.750878 -7.735800 0
M  V30 15 H 12.104862 9.473564 -7.209151 0
M  V30 END ATOM
M  V30 BEGIN BOND
M  V30 1 1 2 1
M  V30 2 1 3 2
M  V30 3 1 4 3
M  V30 4 2 5 4
M  V30 5 2 6 3
M  V30 6 2 7 1
M  V30 7 1 7 4
M  V30 8 1 8 5
M  V30 9 1 9 8
M  V30 10 1 10 6
M  V30 11 2 10 8
M  V30 12 1 11 1
M  V30 13 1 12 5
M  V30 14 1 13 6
M  V30 15 1 14 7
M  V30 16 1 15 10
M  V30 END BOND
M  V30 END CTAB
M  END
>  <i_epik_Tot_Q>  (1) 
0

>  <i_epik_Tot_abs_Q>  (1) 
2

>  <i_i_glide_confnum>  (1) 
1

>  <i_i_glide_lignum>  (1) 
59

>  <i_i_glide_posenum>  (1) 
322

>  <i_i_glide_rotatable_bonds>  (1) 
0

>  <i_lp_mmshare_version>  (1) 
72125

>  <i_m_source_file_index>  (1) 
53

>  <i_f3d_flags>  (1) 
0

>  <num_sample>  (1) 
100

>  <b_lp_Chiralities_Consistent>  (1) 
1

>  <r_epik_Charging_Adjusted_Penalty>  (1) 
1.0992902245007022e-07

>  <r_epik_Ionization_Penalty>  (1) 
1.0992902245007022e-07

>  <r_epik_Ionization_Penalty_Charging>  (1) 
1.0992902245007022e-07

>  <r_epik_Ionization_Penalty_Neutral>  (1) 
0

>  <r_epik_State_Penalty>  (1) 
-0

>  <r_glide_ring_energy>  (1) 
0

>  <r_i_docking_score>  (1) 
-5.0611360637121363

>  <r_i_glide_ecoul>  (1) 
-2.8601746690909184

>  <r_i_glide_eff_state_penalty>  (1) 
-0

>  <r_i_glide_einternal>  (1) 
0

>  <r_i_glide_emodel>  (1) 
-26.680965786769068

>  <r_i_glide_emodel_strain>  (1) 
0

>  <r_i_glide_energy>  (1) 
-19.559065603860681

>  <r_i_glide_erotb>  (1) 
0

>  <r_i_glide_esite>  (1) 
0

>  <r_i_glide_evdw>  (1) 
-16.698890934769761

>  <r_i_glide_gscore>  (1) 
-5.0611360637121363

>  <r_i_glide_gscore_strain>  (1) 
0

>  <r_i_glide_hbond>  (1) 
0

>  <r_i_glide_ligand_efficiency>  (1) 
-0.50611360637121361

>  <r_i_glide_ligand_efficiency_ln>  (1) 
-1.5324771114750686

>  <r_i_glide_ligand_efficiency_sa>  (1) 
-1.0903887106632846

>  <r_i_glide_lipo>  (1) 
-0.62539818635095767

>  <r_i_glide_metal>  (1) 
-0

>  <r_i_glide_rewards>  (1) 
-3.1717671302590533

>  <r_lp_Energy>  (1) 
10.75684

>  <r_lp_tautomer_probability>  (1) 
1

>  <s_epik_cmdline>  (1) 
J2VwaWtfcHl0aG9uJywgJy1waHQnLCAnMS4wJywgJy1waCcsICc3LjQnLCAnLXRuJywgJzgnLCAnLW1hJywgJzUwMCcsICctaW1hZScsICc8aW5maWxlLm1hZT4nLCAnLW9tYWUnLCAnPG91dGZpbGUubWFlPic=

>  <s_epik_input>  (1) 
bzFbY0hdW2NIXWMoYzEyKVtjSF1bbitdKFtPLV0pW2NIXVtjSF0y

>  <s_glide_docking_method>  (1) 
confgen

>  <s_i_glide_gridfile>  (1) 
gpcr_drd2_6luq_protein_autoprepared_prepared

>  <s_lp_Force_Field>  (1) 
S-OPLS

>  <s_lp_Variant>  (1) 
Pocket2Mol_52-1

>  <s_m_source_file>  (1) 
generated_generic_title2_ligand_Pocket2Mol_2026-06-23_prepared.sdf

>  <GenAI_Model>  (1) 
Pocket2Mol

>  <Protein>  (1) 
generic_title2

$$$$
Pocket2Mol_20
     RDKit          3D

  0  0  0  0  0  0  0  0  0  0999 V3000
M  V30 BEGIN CTAB
M  V30 COUNTS 12 12 0 0 1
M  V30 BEGIN ATOM
M  V30 1 N 11.856890 8.830041 -4.778257 0
M  V30 2 C 12.387922 9.053282 -3.553847 0
M  V30 3 C 12.436470 8.085815 -2.536171 0
M  V30 4 C 11.369179 7.591353 -5.019108 0
M  V30 5 O 12.975409 8.390232 -1.319141 0
M  V30 6 C 11.920323 6.807356 -2.795285 0
M  V30 7 C 11.375411 6.555531 -4.065155 0
M  V30 8 H 12.787747 10.030401 -3.380658 0
M  V30 9 H 10.955741 7.423539 -6.002364 0
M  V30 10 H 13.266073 9.293508 -1.247263 0
M  V30 11 H 11.940768 6.036654 -2.038279 0
M  V30 12 H 10.967659 5.590227 -4.306218 0
M  V30 END ATOM
M  V30 BEGIN BOND
M  V30 1 2 2 1
M  V30 2 1 3 2
M  V30 3 1 4 1
M  V30 4 1 5 3
M  V30 5 2 6 3
M  V30 6 2 7 4
M  V30 7 1 7 6
M  V30 8 1 8 2
M  V30 9 1 9 4
M  V30 10 1 10 5
M  V30 11 1 11 6
M  V30 12 1 12 7
M  V30 END BOND
M  V30 END CTAB
M  END
>  <i_epik_Tot_Q>  (1) 
0

>  <i_epik_Tot_abs_Q>  (1) 
0

>  <i_i_glide_confnum>  (1) 
1

>  <i_i_glide_lignum>  (1) 
24

>  <i_i_glide_posenum>  (1) 
10

>  <i_i_glide_rotatable_bonds>  (1) 
1

>  <i_lp_mmshare_version>  (1) 
72125

>  <i_m_source_file_index>  (1) 
21

>  <i_f3d_flags>  (1) 
0

>  <num_sample>  (1) 
100

>  <b_lp_Chiralities_Consistent>  (1) 
1

>  <r_epik_Charging_Adjusted_Penalty>  (1) 
0.49104251329211085

>  <r_epik_Ionization_Penalty>  (1) 
0.049438115990627488

>  <r_epik_Ionization_Penalty_Charging>  (1) 
0

>  <r_epik_Ionization_Penalty_Neutral>  (1) 
0.049438115990627488

>  <r_epik_State_Penalty>  (1) 
0.49104251329211085

>  <r_glide_ring_energy>  (1) 
0

>  <r_i_docking_score>  (1) 
-5.0593921146020691

>  <r_i_glide_ecoul>  (1) 
-4.268772506939106

>  <r_i_glide_eff_state_penalty>  (1) 
0.49104251329211085

>  <r_i_glide_einternal>  (1) 
0.0064901734231181119

>  <r_i_glide_emodel>  (1) 
-25.549134615613578

>  <r_i_glide_emodel_strain>  (1) 
0

>  <r_i_glide_energy>  (1) 
-18.295703472071736

>  <r_i_glide_erotb>  (1) 
0

>  <r_i_glide_esite>  (1) 
0

>  <r_i_glide_evdw>  (1) 
-14.026930965132632

>  <r_i_glide_gscore>  (1) 
-5.5504346278941803

>  <r_i_glide_gscore_strain>  (1) 
0

>  <r_i_glide_hbond>  (1) 
-0.32000000000000001

>  <r_i_glide_ligand_efficiency>  (1) 
-0.7227703020860099

>  <r_i_glide_ligand_efficiency_ln>  (1) 
-1.7174292013707551

>  <r_i_glide_ligand_efficiency_sa>  (1) 
-1.3826098488421479

>  <r_i_glide_lipo>  (1) 
-1.4387722035966828

>  <r_i_glide_metal>  (1) 
-0

>  <r_i_glide_rewards>  (1) 
-2.4500000000000002

>  <r_lp_Energy>  (1) 
10.560834

>  <r_lp_tautomer_probability>  (1) 
0.43658000000000002

>  <s_epik_cmdline>  (1) 
J2VwaWtfcHl0aG9uJywgJy1waHQnLCAnMS4wJywgJy1waCcsICc3LjQnLCAnLXRuJywgJzgnLCAnLW1hJywgJzUwMCcsICctaW1hZScsICc8aW5maWxlLm1hZT4nLCAnLW9tYWUnLCAnPG91dGZpbGUubWFlPic=

>  <s_epik_input>  (1) 
W2NIXTFbY0hdW2NIXW5bY0hdYzFbT0hd

>  <s_glide_docking_method>  (1) 
confgen

>  <s_i_glide_gridfile>  (1) 
gpcr_drd2_6luq_protein_autoprepared_prepared

>  <s_lp_Force_Field>  (1) 
S-OPLS

>  <s_lp_Variant>  (1) 
Pocket2Mol_20-2

>  <s_m_source_file>  (1) 
generated_generic_title2_ligand_Pocket2Mol_2026-06-23_prepared.sdf

>  <GenAI_Model>  (1) 
Pocket2Mol

>  <Protein>  (1) 
generic_title2

$$$$
Pocket2Mol_42
     RDKit          3D

  0  0  0  0  0  0  0  0  0  0999 V3000
M  V30 BEGIN CTAB
M  V30 COUNTS 23 24 0 0 1
M  V30 BEGIN ATOM
M  V30 1 C 11.123767 8.617099 -5.538162 0
M  V30 2 O 10.975421 9.190230 -6.824430 0
M  V30 3 C 11.159218 8.185083 -7.817749 0 CFG=2
M  V30 4 C 12.523807 8.390218 -8.496640 0
M  V30 5 C 10.011270 8.211636 -8.832737 0
M  V30 6 C 10.575421 7.207026 -5.699366 0
M  V30 7 C 9.813878 6.747540 -9.217037 0
M  V30 8 C 11.025423 6.831056 -7.100932 0 CFG=1
M  V30 9 C 10.016168 5.990232 -7.906405 0
M  V30 10 H 12.175413 8.598195 -5.264553 0
M  V30 11 H 10.591806 9.197492 -4.785030 0
M  V30 12 H 12.741520 7.590233 -9.202734 0
M  V30 13 H 12.543404 9.321794 -9.059922 0
M  V30 14 H 13.332512 8.423003 -7.767276 0
M  V30 15 H 9.100606 8.579063 -8.355783 0
M  V30 16 H 10.208655 8.848431 -9.693997 0
M  V30 17 H 10.929298 6.515609 -4.934001 0
M  V30 18 H 9.487587 7.247609 -5.640995 0
M  V30 19 H 8.843565 6.547434 -9.669928 0
M  V30 20 H 10.575406 6.454714 -9.938138 0
M  V30 21 H 11.994235 6.334573 -7.050423 0
M  V30 22 H 9.060034 5.912634 -7.386690 0
M  V30 23 H 10.372257 4.975662 -8.081617 0
M  V30 END ATOM
M  V30 BEGIN BOND
M  V30 1 1 2 1
M  V30 2 1 3 2
M  V30 3 1 3 4 CFG=3
M  V30 4 1 5 3
M  V30 5 1 6 1
M  V30 6 1 7 5
M  V30 7 1 8 3
M  V30 8 1 8 6
M  V30 9 1 9 7
M  V30 10 1 9 8
M  V30 11 1 10 1
M  V30 12 1 11 1
M  V30 13 1 12 4
M  V30 14 1 13 4
M  V30 15 1 14 4
M  V30 16 1 15 5
M  V30 17 1 16 5
M  V30 18 1 17 6
M  V30 19 1 18 6
M  V30 20 1 19 7
M  V30 21 1 20 7
M  V30 22 1 8 21 CFG=1
M  V30 23 1 22 9
M  V30 24 1 23 9
M  V30 END BOND
M  V30 END CTAB
M  END
>  <i_epik_Tot_Q>  (1) 
0

>  <i_epik_Tot_abs_Q>  (1) 
0

>  <i_i_glide_confnum>  (1) 
4

>  <i_i_glide_lignum>  (1) 
47

>  <i_i_glide_posenum>  (1) 
157

>  <i_i_glide_rotatable_bonds>  (1) 
0

>  <i_lp_mmshare_version>  (1) 
72125

>  <i_m_source_file_index>  (1) 
43

>  <i_f3d_flags>  (1) 
0

>  <num_sample>  (1) 
100

>  <b_lp_Chiralities_Consistent>  (1) 
1

>  <r_epik_Charging_Adjusted_Penalty>  (1) 
0

>  <r_epik_Ionization_Penalty>  (1) 
2.4347883345708157e-11

>  <r_epik_Ionization_Penalty_Charging>  (1) 
0

>  <r_epik_Ionization_Penalty_Neutral>  (1) 
2.4347883345708157e-11

>  <r_epik_State_Penalty>  (1) 
-0

>  <r_glide_ring_energy>  (1) 
1.4300080397860451

>  <r_i_docking_score>  (1) 
-5.0574297712510967

>  <r_i_glide_ecoul>  (1) 
-0.3455253496174816

>  <r_i_glide_eff_state_penalty>  (1) 
-0

>  <r_i_glide_einternal>  (1) 
0

>  <r_i_glide_emodel>  (1) 
-23.973175855188966

>  <r_i_glide_emodel_strain>  (1) 
0

>  <r_i_glide_energy>  (1) 
-18.536055757045329

>  <r_i_glide_erotb>  (1) 
0

>  <r_i_glide_esite>  (1) 
0

>  <r_i_glide_evdw>  (1) 
-18.190530407427847

>  <r_i_glide_gscore>  (1) 
-5.0574297712510967

>  <r_i_glide_gscore_strain>  (1) 
0

>  <r_i_glide_hbond>  (1) 
0

>  <r_i_glide_ligand_efficiency>  (1) 
-0.56193664125012188

>  <r_i_glide_ligand_efficiency_ln>  (1) 
-1.5818187458901354

>  <r_i_glide_ligand_efficiency_sa>  (1) 
-1.1688753170444999

>  <r_i_glide_lipo>  (1) 
-1.2659168453717149

>  <r_i_glide_metal>  (1) 
-0

>  <r_i_glide_rewards>  (1) 
-2.8301576030653672

>  <r_lp_Energy>  (1) 
5.4699619999999998

>  <r_lp_tautomer_probability>  (1) 
1

>  <s_epik_cmdline>  (1) 
J2VwaWtfcHl0aG9uJywgJy1waHQnLCAnMS4wJywgJy1waCcsICc3LjQnLCAnLXRuJywgJzgnLCAnLW1hJywgJzUwMCcsICctaW1hZScsICc8aW5maWxlLm1hZT4nLCAnLW9tYWUnLCAnPG91dGZpbGUubWFlPic=

>  <s_epik_input>  (1) 
TzFbQ0gyXVtDSDJdW0NASF0oW0NAXTEyW0NIM10pW0NIMl1bQ0gyXVtDSDJdMg==

>  <s_glide_docking_method>  (1) 
confgen

>  <s_i_glide_gridfile>  (1) 
gpcr_drd2_6luq_protein_autoprepared_prepared

>  <s_lp_Force_Field>  (1) 
S-OPLS

>  <s_lp_Variant>  (1) 
Pocket2Mol_42-1

>  <s_m_source_file>  (1) 
generated_generic_title2_ligand_Pocket2Mol_2026-06-23_prepared.sdf

>  <GenAI_Model>  (1) 
Pocket2Mol

>  <Protein>  (1) 
generic_title2

$$$$
Pocket2Mol_78
     RDKit          3D

  0  0  0  0  0  0  0  0  0  0999 V3000
M  V30 BEGIN CTAB
M  V30 COUNTS 22 23 0 0 1
M  V30 BEGIN ATOM
M  V30 1 C 12.153161 9.601954 -5.035698 0
M  V30 2 O 12.574823 9.483581 -6.385026 0
M  V30 3 C 11.782457 8.700480 -7.196923 0
M  V30 4 C 11.739115 8.245083 -4.470935 0
M  V30 5 O 10.697965 7.694984 -5.266597 0
M  V30 6 C 10.836943 7.802267 -6.634897 0
M  V30 7 C 10.029737 7.012597 -7.481485 0
M  V30 8 O 9.110045 6.149304 -6.923781 0
M  V30 9 C 11.917098 8.790223 -8.597800 0
M  V30 10 C 11.117109 8.000018 -9.438374 0
M  V30 11 C 10.175582 7.115254 -8.889454 0
M  V30 12 C 8.273830 5.378662 -7.775380 0
M  V30 13 H 12.982941 9.990226 -4.447501 0
M  V30 14 H 11.329669 10.314686 -4.970148 0
M  V30 15 H 12.573624 7.551296 -4.385020 0
M  V30 16 H 11.375413 8.385064 -3.454256 0
M  V30 17 H 12.633664 9.468555 -9.029450 0
M  V30 18 H 11.224152 8.074682 -10.510278 0
M  V30 19 H 9.567539 6.517264 -9.548827 0
M  V30 20 H 7.487423 4.913350 -7.185327 0
M  V30 21 H 7.775401 5.990030 -8.523398 0
M  V30 22 H 8.840231 4.590773 -8.272099 0
M  V30 END ATOM
M  V30 BEGIN BOND
M  V30 1 1 2 1
M  V30 2 1 3 2
M  V30 3 1 4 1
M  V30 4 1 5 4
M  V30 5 1 6 3
M  V30 6 1 6 5
M  V30 7 2 7 6
M  V30 8 1 8 7
M  V30 9 2 9 3
M  V30 10 1 10 9
M  V30 11 1 11 7
M  V30 12 2 11 10
M  V30 13 1 12 8
M  V30 14 1 13 1
M  V30 15 1 14 1
M  V30 16 1 15 4
M  V30 17 1 16 4
M  V30 18 1 17 9
M  V30 19 1 18 10
M  V30 20 1 19 11
M  V30 21 1 20 12
M  V30 22 1 21 12
M  V30 23 1 22 12
M  V30 END BOND
M  V30 END CTAB
M  END
>  <i_epik_Tot_Q>  (1) 
0

>  <i_epik_Tot_abs_Q>  (1) 
0

>  <i_i_glide_confnum>  (1) 
2

>  <i_i_glide_lignum>  (1) 
85

>  <i_i_glide_posenum>  (1) 
283

>  <i_i_glide_rotatable_bonds>  (1) 
1

>  <i_lp_mmshare_version>  (1) 
72125

>  <i_m_source_file_index>  (1) 
79

>  <i_f3d_flags>  (1) 
0

>  <num_sample>  (1) 
100

>  <b_lp_Chiralities_Consistent>  (1) 
1

>  <r_epik_Charging_Adjusted_Penalty>  (1) 
0

>  <r_epik_Ionization_Penalty>  (1) 
0

>  <r_epik_Ionization_Penalty_Charging>  (1) 
0

>  <r_epik_Ionization_Penalty_Neutral>  (1) 
0

>  <r_epik_State_Penalty>  (1) 
-0

>  <r_glide_ring_energy>  (1) 
0.0030884499939853893

>  <r_i_docking_score>  (1) 
-5.0428482889500232

>  <r_i_glide_ecoul>  (1) 
-0.098438876543119724

>  <r_i_glide_eff_state_penalty>  (1) 
-0

>  <r_i_glide_einternal>  (1) 
0.18563350455002103

>  <r_i_glide_emodel>  (1) 
-25.832952264146396

>  <r_i_glide_emodel_strain>  (1) 
0

>  <r_i_glide_energy>  (1) 
-19.583572797864267

>  <r_i_glide_erotb>  (1) 
0

>  <r_i_glide_esite>  (1) 
0

>  <r_i_glide_evdw>  (1) 
-19.485133921321147

>  <r_i_glide_gscore>  (1) 
-5.0428482889500232

>  <r_i_glide_gscore_strain>  (1) 
0

>  <r_i_glide_hbond>  (1) 
0

>  <r_i_glide_ligand_efficiency>  (1) 
-0.42023735741250196

>  <r_i_glide_ligand_efficiency_ln>  (1) 
-1.4470540521528168

>  <r_i_glide_ligand_efficiency_sa>  (1) 
-0.96210337656613198

>  <r_i_glide_lipo>  (1) 
-1.3399201563738379

>  <r_i_glide_metal>  (1) 
-0

>  <r_i_glide_rewards>  (1) 
-2.7139056050286596

>  <r_lp_Energy>  (1) 
20.318058000000001

>  <r_lp_tautomer_probability>  (1) 
1

>  <s_epik_cmdline>  (1) 
J2VwaWtfcHl0aG9uJywgJy1waHQnLCAnMS4wJywgJy1waCcsICc3LjQnLCAnLXRuJywgJzgnLCAnLW1hJywgJzUwMCcsICctaW1hZScsICc8aW5maWxlLm1hZT4nLCAnLW9tYWUnLCAnPG91dGZpbGUubWFlPic=

>  <s_epik_input>  (1) 
TzFbQ0gyXVtDSDJdT2MoYzEyKWMoT1tDSDNdKVtjSF1bY0hdW2NIXTI=

>  <s_glide_docking_method>  (1) 
confgen

>  <s_i_glide_gridfile>  (1) 
gpcr_drd2_6luq_protein_autoprepared_prepared

>  <s_lp_Force_Field>  (1) 
S-OPLS

>  <s_lp_Variant>  (1) 
Pocket2Mol_78-1

>  <s_m_source_file>  (1) 
generated_generic_title2_ligand_Pocket2Mol_2026-06-23_prepared.sdf

>  <GenAI_Model>  (1) 
Pocket2Mol

>  <Protein>  (1) 
generic_title2

$$$$
Pocket2Mol_45
     RDKit          3D

  0  0  0  0  0  0  0  0  0  0999 V3000
M  V30 BEGIN CTAB
M  V30 COUNTS 14 15 0 0 1
M  V30 BEGIN ATOM
M  V30 1 C 11.675005 9.500036 -5.331538 0
M  V30 2 O 10.441391 8.759309 -5.585027 0
M  V30 3 C 10.662883 8.393688 -6.846168 0
M  V30 4 C 11.822662 8.790219 -7.336148 0
M  V30 5 C 12.186636 8.470889 -8.655402 0
M  V30 6 N 11.375854 7.753312 -9.482821 0
M  V30 7 C 10.175216 7.357489 -8.955805 0
M  V30 8 C 9.776151 7.656310 -7.631132 0
M  V30 9 O 12.575400 9.494184 -6.482089 0
M  V30 10 H 11.417711 10.532582 -5.090746 0
M  V30 11 H 12.186925 9.059248 -4.475029 0
M  V30 12 H 13.135309 8.790236 -9.060547 0
M  V30 13 H 9.526705 6.791316 -9.608039 0
M  V30 14 H 8.820236 7.328591 -7.245501 0
M  V30 END ATOM
M  V30 BEGIN BOND
M  V30 1 1 2 1
M  V30 2 1 3 2
M  V30 3 2 4 3
M  V30 4 1 5 4
M  V30 5 2 6 5
M  V30 6 1 7 6
M  V30 7 1 8 3
M  V30 8 2 8 7
M  V30 9 1 9 1
M  V30 10 1 9 4
M  V30 11 1 10 1
M  V30 12 1 11 1
M  V30 13 1 12 5
M  V30 14 1 13 7
M  V30 15 1 14 8
M  V30 END BOND
M  V30 END CTAB
M  END
>  <i_epik_Tot_Q>  (1) 
0

>  <i_epik_Tot_abs_Q>  (1) 
0

>  <i_i_glide_confnum>  (1) 
1

>  <i_i_glide_lignum>  (1) 
50

>  <i_i_glide_posenum>  (1) 
37

>  <i_i_glide_rotatable_bonds>  (1) 
0

>  <i_lp_mmshare_version>  (1) 
72125

>  <i_m_source_file_index>  (1) 
46

>  <i_f3d_flags>  (1) 
0

>  <num_sample>  (1) 
100

>  <b_lp_Chiralities_Consistent>  (1) 
1

>  <r_epik_Charging_Adjusted_Penalty>  (1) 
0.069790075728531922

>  <r_epik_Ionization_Penalty>  (1) 
0.069790075728531936

>  <r_epik_Ionization_Penalty_Charging>  (1) 
0

>  <r_epik_Ionization_Penalty_Neutral>  (1) 
0.069790075728531936

>  <r_epik_State_Penalty>  (1) 
0.069790075728531922

>  <r_glide_ring_energy>  (1) 
0

>  <r_i_docking_score>  (1) 
-5.0379534511460404

>  <r_i_glide_ecoul>  (1) 
-1.4385740435637446

>  <r_i_glide_eff_state_penalty>  (1) 
0.069790075728531922

>  <r_i_glide_einternal>  (1) 
0

>  <r_i_glide_emodel>  (1) 
-25.895458097374028

>  <r_i_glide_emodel_strain>  (1) 
0

>  <r_i_glide_energy>  (1) 
-19.176009321411179

>  <r_i_glide_erotb>  (1) 
0

>  <r_i_glide_esite>  (1) 
0

>  <r_i_glide_evdw>  (1) 
-17.737435277847435

>  <r_i_glide_gscore>  (1) 
-5.1077435268745726

>  <r_i_glide_gscore_strain>  (1) 
0

>  <r_i_glide_hbond>  (1) 
0

>  <r_i_glide_ligand_efficiency>  (1) 
-0.55977260568289333

>  <r_i_glide_ligand_efficiency_ln>  (1) 
-1.5757271124643459

>  <r_i_glide_ligand_efficiency_sa>  (1) 
-1.164373941668599

>  <r_i_glide_lipo>  (1) 
-0.77175232311430531

>  <r_i_glide_metal>  (1) 
-0

>  <r_i_glide_rewards>  (1) 
-3.2333333333333334

>  <r_lp_Energy>  (1) 
21.238785

>  <r_lp_tautomer_probability>  (1) 
1

>  <s_epik_Chemistry_Notes>  (1) 
This compound contains an acetal/aminal-like group ( X-CH(R)-Y where X, Y are N, S, or O) that may be acid/base labile, releasing an aldehyde.

>  <s_epik_cmdline>  (1) 
J2VwaWtfcHl0aG9uJywgJy1waHQnLCAnMS4wJywgJy1waCcsICc3LjQnLCAnLXRuJywgJzgnLCAnLW1hJywgJzUwMCcsICctaW1hZScsICc8aW5maWxlLm1hZT4nLCAnLW9tYWUnLCAnPG91dGZpbGUubWFlPic=

>  <s_epik_input>  (1) 
TzFbQ0gyXU9jKGMxMilbY0hdbltjSF1bY0hdMg==

>  <s_glide_docking_method>  (1) 
confgen

>  <s_i_glide_gridfile>  (1) 
gpcr_drd2_6luq_protein_autoprepared_prepared

>  <s_lp_Force_Field>  (1) 
S-OPLS

>  <s_lp_Variant>  (1) 
Pocket2Mol_45-1

>  <s_m_source_file>  (1) 
generated_generic_title2_ligand_Pocket2Mol_2026-06-23_prepared.sdf

>  <GenAI_Model>  (1) 
Pocket2Mol

>  <Protein>  (1) 
generic_title2

$$$$
Pocket2Mol_91
     RDKit          3D

  0  0  0  0  0  0  0  0  0  0999 V3000
M  V30 BEGIN CTAB
M  V30 COUNTS 22 23 0 0 1
M  V30 BEGIN ATOM
M  V30 1 C 6.162025 6.668264 -17.581946 0
M  V30 2 O 6.575400 5.349245 -17.286973 0
M  V30 3 C 5.771626 7.415159 -16.308079 0
M  V30 4 O 5.554208 6.473674 -15.269514 0
M  V30 5 C 7.754336 5.102507 -16.708574 0
M  V30 6 C 6.700498 6.136598 -14.595517 0
M  V30 7 C 6.814665 6.443923 -13.220364 0
M  V30 8 O 8.700326 4.591080 -17.304335 0
M  V30 9 C 7.794691 5.487363 -15.252956 0
M  V30 10 C 8.000698 6.110490 -12.535270 0
M  V30 11 C 8.950004 5.190227 -14.502448 0
M  V30 12 N 8.175763 6.390227 -11.185023 0
M  V30 13 N 9.008629 5.505485 -13.193547 0 CHG=1
M  V30 14 H 6.939385 7.190229 -18.138784 0
M  V30 15 H 5.294990 6.595778 -18.238877 0
M  V30 16 H 6.544020 8.135146 -16.028001 0
M  V30 17 H 4.860222 7.990235 -16.473342 0
M  V30 18 H 6.002324 6.933530 -12.701798 0
M  V30 19 H 9.826681 4.711990 -14.911737 0
M  V30 20 H 7.473484 6.906243 -10.641501 0
M  V30 21 H 9.040618 6.178458 -10.712317 0
M  V30 22 H 9.860125 5.274220 -12.678375 0
M  V30 END ATOM
M  V30 BEGIN BOND
M  V30 1 1 2 1
M  V30 2 1 3 1
M  V30 3 1 4 3
M  V30 4 1 5 2
M  V30 5 1 6 4
M  V30 6 1 7 6
M  V30 7 2 8 5
M  V30 8 1 9 5
M  V30 9 2 9 6
M  V30 10 2 10 7
M  V30 11 1 11 9
M  V30 12 1 12 10
M  V30 13 1 13 10
M  V30 14 2 13 11
M  V30 15 1 14 1
M  V30 16 1 15 1
M  V30 17 1 16 3
M  V30 18 1 17 3
M  V30 19 1 18 7
M  V30 20 1 19 11
M  V30 21 1 20 12
M  V30 22 1 21 12
M  V30 23 1 22 13
M  V30 END BOND
M  V30 END CTAB
M  END
>  <i_epik_Tot_Q>  (1) 
1

>  <i_epik_Tot_abs_Q>  (1) 
1

>  <i_i_glide_confnum>  (1) 
1

>  <i_i_glide_lignum>  (1) 
98

>  <i_i_glide_posenum>  (1) 
345

>  <i_i_glide_rotatable_bonds>  (1) 
0

>  <i_lp_mmshare_version>  (1) 
72125

>  <i_m_source_file_index>  (1) 
92

>  <i_f3d_flags>  (1) 
0

>  <num_sample>  (1) 
100

>  <b_lp_Chiralities_Consistent>  (1) 
1

>  <r_epik_Charging_Adjusted_Penalty>  (1) 
0.71045643263358682

>  <r_epik_Ionization_Penalty>  (1) 
0.3552545589029974

>  <r_epik_Ionization_Penalty_Charging>  (1) 
0.35522821631679397

>  <r_epik_Ionization_Penalty_Neutral>  (1) 
2.6342586203446271e-05

>  <r_epik_State_Penalty>  (1) 
0.35522821631679286

>  <r_glide_ring_energy>  (1) 
0

>  <r_i_docking_score>  (1) 
-5.0358198961205858

>  <r_i_glide_ecoul>  (1) 
-5.4822011692087038

>  <r_i_glide_eff_state_penalty>  (1) 
0.35522821631679286

>  <r_i_glide_einternal>  (1) 
0

>  <r_i_glide_emodel>  (1) 
-29.499701818197266

>  <r_i_glide_emodel_strain>  (1) 
0.66001184317457984

>  <r_i_glide_energy>  (1) 
-19.48573707362214

>  <r_i_glide_erotb>  (1) 
0

>  <r_i_glide_esite>  (1) 
-0.10000000000000001

>  <r_i_glide_evdw>  (1) 
-14.003535904413434

>  <r_i_glide_gscore>  (1) 
-5.391048112437379

>  <r_i_glide_gscore_strain>  (1) 
0

>  <r_i_glide_hbond>  (1) 
-0.20000000000000001

>  <r_i_glide_ligand_efficiency>  (1) 
-0.38737076124004505

>  <r_i_glide_ligand_efficiency_ln>  (1) 
-1.4125922674274396

>  <r_i_glide_ligand_efficiency_sa>  (1) 
-0.91083830791251363

>  <r_i_glide_lipo>  (1) 
-0.92510146650067615

>  <r_i_glide_metal>  (1) 
-0

>  <r_i_glide_rewards>  (1) 
-2.6434396753347253

>  <r_lp_Energy>  (1) 
16.247630000000001

>  <s_epik_Chemistry_Notes>  (1) 
This compound has an ester and may undergo hydrolysis at high or low pH.

>  <s_epik_cmdline>  (1) 
J2VwaWtfcHl0aG9uJywgJy1waHQnLCAnMS4wJywgJy1waCcsICc3LjQnLCAnLXRuJywgJzgnLCAnLW1hJywgJzUwMCcsICctaW1hZScsICc8aW5maWxlLm1hZT4nLCAnLW9tYWUnLCAnPG91dGZpbGUubWFlPic=

>  <s_epik_input>  (1) 
TzFbQ0gyXVtDSDJdT0MoPU8pYyhjMTIpW2NIXW5jKFtjSF0yKVtOSDJd

>  <s_glide_docking_method>  (1) 
confgen

>  <s_i_glide_gridfile>  (1) 
gpcr_drd2_6luq_protein_autoprepared_prepared

>  <s_lp_Force_Field>  (1) 
S-OPLS

>  <s_lp_Variant>  (1) 
Pocket2Mol_91-1

>  <s_m_source_file>  (1) 
generated_generic_title2_ligand_Pocket2Mol_2026-06-23_prepared.sdf

>  <GenAI_Model>  (1) 
Pocket2Mol

>  <Protein>  (1) 
generic_title2

$$$$
Pocket2Mol_13
     RDKit          3D

  0  0  0  0  0  0  0  0  0  0999 V3000
M  V30 BEGIN CTAB
M  V30 COUNTS 15 15 0 0 1
M  V30 BEGIN ATOM
M  V30 1 N 11.942128 9.469085 -4.474916 0
M  V30 2 C 11.375311 8.880793 -5.580937 0
M  V30 3 C 11.250026 7.522116 -5.316412 0
M  V30 4 C 12.175410 8.532587 -3.534278 0
M  V30 5 C 10.681941 6.473609 -6.232206 0
M  V30 6 N 12.732485 8.790227 -2.292580 0
M  V30 7 C 11.775410 7.317906 -3.985025 0
M  V30 8 H 11.111013 9.467335 -6.448949 0
M  V30 9 H 10.355540 6.914971 -7.174291 0
M  V30 10 H 11.434291 5.714923 -6.448535 0
M  V30 11 H 9.823164 5.990980 -5.765816 0
M  V30 12 H 12.888627 8.066939 -1.607000 0
M  V30 13 H 12.148252 10.451156 -4.381297 0
M  V30 14 H 11.841335 6.387469 -3.439588 0
M  V30 15 H 13.027529 9.715560 -1.994127 0
M  V30 END ATOM
M  V30 BEGIN BOND
M  V30 1 1 2 1
M  V30 2 2 3 2
M  V30 3 1 4 1
M  V30 4 1 5 3
M  V30 5 1 6 4
M  V30 6 1 7 3
M  V30 7 2 7 4
M  V30 8 1 8 2
M  V30 9 1 9 5
M  V30 10 1 10 5
M  V30 11 1 11 5
M  V30 12 1 12 6
M  V30 13 1 13 1
M  V30 14 1 14 7
M  V30 15 1 15 6
M  V30 END BOND
M  V30 END CTAB
M  END
>  <i_epik_Tot_Q>  (1) 
0

>  <i_epik_Tot_abs_Q>  (1) 
0

>  <i_i_glide_confnum>  (1) 
1

>  <i_i_glide_lignum>  (1) 
16

>  <i_i_glide_posenum>  (1) 
295

>  <i_i_glide_rotatable_bonds>  (1) 
0

>  <i_lp_mmshare_version>  (1) 
72125

>  <i_m_source_file_index>  (1) 
14

>  <i_f3d_flags>  (1) 
0

>  <num_sample>  (1) 
100

>  <b_lp_Chiralities_Consistent>  (1) 
1

>  <r_epik_Charging_Adjusted_Penalty>  (1) 
0

>  <r_epik_Ionization_Penalty>  (1) 
0.00031849139131666116

>  <r_epik_Ionization_Penalty_Charging>  (1) 
0

>  <r_epik_Ionization_Penalty_Neutral>  (1) 
0.00031849139131666116

>  <r_epik_State_Penalty>  (1) 
-0

>  <r_glide_ring_energy>  (1) 
0

>  <r_i_docking_score>  (1) 
-5.0195738054374095

>  <r_i_glide_ecoul>  (1) 
-1.7759080530921385

>  <r_i_glide_eff_state_penalty>  (1) 
-0

>  <r_i_glide_einternal>  (1) 
0

>  <r_i_glide_emodel>  (1) 
-23.255207227312177

>  <r_i_glide_emodel_strain>  (1) 
0

>  <r_i_glide_energy>  (1) 
-16.86411763232055

>  <r_i_glide_erotb>  (1) 
0

>  <r_i_glide_esite>  (1) 
0

>  <r_i_glide_evdw>  (1) 
-15.088209579228412

>  <r_i_glide_gscore>  (1) 
-5.0195738054374095

>  <r_i_glide_gscore_strain>  (1) 
0

>  <r_i_glide_hbond>  (1) 
-0.32000000000000001

>  <r_i_glide_ligand_efficiency>  (1) 
-0.7170819722053442

>  <r_i_glide_ligand_efficiency_ln>  (1) 
-1.7039127303482331

>  <r_i_glide_ligand_efficiency_sa>  (1) 
-1.3717284652355266

>  <r_i_glide_lipo>  (1) 
-1.3454437851788354

>  <r_i_glide_metal>  (1) 
-0

>  <r_i_glide_rewards>  (1) 
-2.3333333333333335

>  <r_lp_Energy>  (1) 
-3.18065

>  <r_lp_tautomer_probability>  (1) 
1

>  <s_epik_cmdline>  (1) 
J2VwaWtfcHl0aG9uJywgJy1waHQnLCAnMS4wJywgJy1waCcsICc3LjQnLCAnLXRuJywgJzgnLCAnLW1hJywgJzUwMCcsICctaW1hZScsICc8aW5maWxlLm1hZT4nLCAnLW9tYWUnLCAnPG91dGZpbGUubWFlPic=

>  <s_epik_input>  (1) 
W05IMl1DKFtDSDJdMSk9TltDSF09QzFbQ0gzXQ==

>  <s_glide_docking_method>  (1) 
confgen

>  <s_i_glide_gridfile>  (1) 
gpcr_drd2_6luq_protein_autoprepared_prepared

>  <s_lp_Force_Field>  (1) 
S-OPLS

>  <s_lp_Variant>  (1) 
Pocket2Mol_13-1

>  <s_m_source_file>  (1) 
generated_generic_title2_ligand_Pocket2Mol_2026-06-23_prepared.sdf

>  <GenAI_Model>  (1) 
Pocket2Mol

>  <Protein>  (1) 
generic_title2

$$$$
Pocket2Mol_91
     RDKit          3D

  0  0  0  0  0  0  0  0  0  0999 V3000
M  V30 BEGIN CTAB
M  V30 COUNTS 22 23 0 0 1
M  V30 BEGIN ATOM
M  V30 1 C 9.375410 6.884277 -8.509994 0
M  V30 2 O 10.671982 7.239136 -8.945237 0
M  V30 3 C 9.452570 5.989667 -7.291696 0
M  V30 4 O 10.762638 5.990327 -6.760483 0
M  V30 5 C 11.218263 8.358118 -8.459837 0
M  V30 6 C 11.149700 7.166269 -6.178528 0
M  V30 7 C 11.375853 7.213247 -4.783802 0
M  V30 8 O 11.564064 9.295755 -9.172325 0
M  V30 9 C 11.374370 8.343823 -6.955844 0
M  V30 10 C 11.827752 8.417697 -4.196390 0
M  V30 11 C 11.788036 9.519374 -6.292002 0
M  V30 12 N 12.126879 8.512907 -2.835397 0
M  V30 13 N 11.999539 9.510727 -4.960954 0 CHG=1
M  V30 14 H 8.823935 7.788505 -8.254516 0
M  V30 15 H 8.838172 6.390082 -9.319394 0
M  V30 16 H 8.714374 6.280282 -6.542086 0
M  V30 17 H 9.225288 4.965584 -7.585151 0
M  V30 18 H 11.231178 6.328477 -4.179739 0
M  V30 19 H 11.969753 10.455776 -6.784965 0
M  V30 20 H 12.052646 7.713512 -2.223243 0
M  V30 21 H 12.489591 9.364788 -2.430129 0
M  V30 22 H 12.318420 10.371648 -4.516438 0
M  V30 END ATOM
M  V30 BEGIN BOND
M  V30 1 1 2 1
M  V30 2 1 3 1
M  V30 3 1 4 3
M  V30 4 1 5 2
M  V30 5 1 6 4
M  V30 6 1 7 6
M  V30 7 2 8 5
M  V30 8 1 9 5
M  V30 9 2 9 6
M  V30 10 2 10 7
M  V30 11 1 11 9
M  V30 12 1 12 10
M  V30 13 1 13 10
M  V30 14 2 13 11
M  V30 15 1 14 1
M  V30 16 1 15 1
M  V30 17 1 16 3
M  V30 18 1 17 3
M  V30 19 1 18 7
M  V30 20 1 19 11
M  V30 21 1 20 12
M  V30 22 1 21 12
M  V30 23 1 22 13
M  V30 END BOND
M  V30 END CTAB
M  END
>  <i_epik_Tot_Q>  (1) 
1

>  <i_epik_Tot_abs_Q>  (1) 
1

>  <i_i_glide_confnum>  (1) 
1

>  <i_i_glide_lignum>  (1) 
98

>  <i_i_glide_posenum>  (1) 
333

>  <i_i_glide_rotatable_bonds>  (1) 
0

>  <i_lp_mmshare_version>  (1) 
72125

>  <i_m_source_file_index>  (1) 
92

>  <i_f3d_flags>  (1) 
0

>  <num_sample>  (1) 
100

>  <b_lp_Chiralities_Consistent>  (1) 
1

>  <r_epik_Charging_Adjusted_Penalty>  (1) 
0.71045643263358682

>  <r_epik_Ionization_Penalty>  (1) 
0.3552545589029974

>  <r_epik_Ionization_Penalty_Charging>  (1) 
0.35522821631679397

>  <r_epik_Ionization_Penalty_Neutral>  (1) 
2.6342586203446271e-05

>  <r_epik_State_Penalty>  (1) 
0.35522821631679286

>  <r_glide_ring_energy>  (1) 
0

>  <r_i_docking_score>  (1) 
-5.015748018529699

>  <r_i_glide_ecoul>  (1) 
-2.2116754220263144

>  <r_i_glide_eff_state_penalty>  (1) 
0.35522821631679286

>  <r_i_glide_einternal>  (1) 
0

>  <r_i_glide_emodel>  (1) 
-30.701655061825935

>  <r_i_glide_emodel_strain>  (1) 
0

>  <r_i_glide_energy>  (1) 
-20.067419679683915

>  <r_i_glide_erotb>  (1) 
0

>  <r_i_glide_esite>  (1) 
0

>  <r_i_glide_evdw>  (1) 
-17.855744257657602

>  <r_i_glide_gscore>  (1) 
-5.3709762348464922

>  <r_i_glide_gscore_strain>  (1) 
0

>  <r_i_glide_hbond>  (1) 
0

>  <r_i_glide_ligand_efficiency>  (1) 
-0.38582677065613069

>  <r_i_glide_ligand_efficiency_ln>  (1) 
-1.406961927251954

>  <r_i_glide_ligand_efficiency_sa>  (1) 
-0.90720786929504149

>  <r_i_glide_lipo>  (1) 
-1.2478235004857476

>  <r_i_glide_metal>  (1) 
-0

>  <r_i_glide_rewards>  (1) 
-2.8986142081739166

>  <r_lp_Energy>  (1) 
16.247630000000001

>  <s_epik_Chemistry_Notes>  (1) 
This compound has an ester and may undergo hydrolysis at high or low pH.

>  <s_epik_cmdline>  (1) 
J2VwaWtfcHl0aG9uJywgJy1waHQnLCAnMS4wJywgJy1waCcsICc3LjQnLCAnLXRuJywgJzgnLCAnLW1hJywgJzUwMCcsICctaW1hZScsICc8aW5maWxlLm1hZT4nLCAnLW9tYWUnLCAnPG91dGZpbGUubWFlPic=

>  <s_epik_input>  (1) 
TzFbQ0gyXVtDSDJdT0MoPU8pYyhjMTIpW2NIXW5jKFtjSF0yKVtOSDJd

>  <s_glide_docking_method>  (1) 
confgen

>  <s_i_glide_gridfile>  (1) 
gpcr_drd2_6luq_protein_autoprepared_prepared

>  <s_lp_Force_Field>  (1) 
S-OPLS

>  <s_lp_Variant>  (1) 
Pocket2Mol_91-1

>  <s_m_source_file>  (1) 
generated_generic_title2_ligand_Pocket2Mol_2026-06-23_prepared.sdf

>  <GenAI_Model>  (1) 
Pocket2Mol

>  <Protein>  (1) 
generic_title2

$$$$
Pocket2Mol_18
     RDKit          3D

  0  0  0  0  0  0  0  0  0  0999 V3000
M  V30 BEGIN CTAB
M  V30 COUNTS 15 15 0 0 1
M  V30 BEGIN ATOM
M  V30 1 C 11.788752 6.775556 -3.510391 0
M  V30 2 O 11.639683 6.439073 -4.980789 0
M  V30 3 C 10.667141 7.366110 -5.727364 0
M  V30 4 C 11.231567 8.766093 -6.017038 0
M  V30 5 O 11.411097 9.649359 -4.772027 0
M  V30 6 C 12.535101 9.187151 -3.830967 0
M  V30 7 C 12.175400 7.962200 -3.013889 0
M  V30 8 H 11.576056 5.972060 -2.820787 0
M  V30 9 H 9.724617 7.441534 -5.185092 0
M  V30 10 H 10.421335 6.899718 -6.681387 0
M  V30 11 H 10.546782 9.273516 -6.696516 0
M  V30 12 H 12.174600 8.685004 -6.557606 0
M  V30 13 H 12.762880 9.990228 -3.130050 0
M  V30 14 H 13.454631 8.998199 -4.384919 0
M  V30 15 H 12.259873 8.070738 -1.942682 0
M  V30 END ATOM
M  V30 BEGIN BOND
M  V30 1 1 2 1
M  V30 2 1 3 2
M  V30 3 1 4 3
M  V30 4 1 5 4
M  V30 5 1 6 5
M  V30 6 2 7 1
M  V30 7 1 7 6
M  V30 8 1 8 1
M  V30 9 1 9 3
M  V30 10 1 10 3
M  V30 11 1 11 4
M  V30 12 1 12 4
M  V30 13 1 13 6
M  V30 14 1 14 6
M  V30 15 1 15 7
M  V30 END BOND
M  V30 END CTAB
M  END
>  <i_epik_Tot_Q>  (1) 
0

>  <i_epik_Tot_abs_Q>  (1) 
0

>  <i_i_glide_confnum>  (1) 
2

>  <i_i_glide_lignum>  (1) 
21

>  <i_i_glide_posenum>  (1) 
156

>  <i_i_glide_rotatable_bonds>  (1) 
0

>  <i_lp_mmshare_version>  (1) 
72125

>  <i_m_source_file_index>  (1) 
19

>  <i_f3d_flags>  (1) 
0

>  <num_sample>  (1) 
100

>  <b_lp_Chiralities_Consistent>  (1) 
1

>  <r_epik_Charging_Adjusted_Penalty>  (1) 
0

>  <r_epik_Ionization_Penalty>  (1) 
5.6701613537443791e-14

>  <r_epik_Ionization_Penalty_Charging>  (1) 
0

>  <r_epik_Ionization_Penalty_Neutral>  (1) 
5.6701613537443791e-14

>  <r_epik_State_Penalty>  (1) 
-0

>  <r_glide_ring_energy>  (1) 
0.00079047383587571227

>  <r_i_docking_score>  (1) 
-5.0025978413055032

>  <r_i_glide_ecoul>  (1) 
-0.76676703267415647

>  <r_i_glide_eff_state_penalty>  (1) 
-0

>  <r_i_glide_einternal>  (1) 
0

>  <r_i_glide_emodel>  (1) 
-21.969118592779601

>  <r_i_glide_emodel_strain>  (1) 
6.5694472084487643e-10

>  <r_i_glide_energy>  (1) 
-16.749854530264059

>  <r_i_glide_erotb>  (1) 
0

>  <r_i_glide_esite>  (1) 
0

>  <r_i_glide_evdw>  (1) 
-15.983087497589901

>  <r_i_glide_gscore>  (1) 
-5.0025978413055032

>  <r_i_glide_gscore_strain>  (1) 
0

>  <r_i_glide_hbond>  (1) 
0

>  <r_i_glide_ligand_efficiency>  (1) 
-0.71465683447221473

>  <r_i_glide_ligand_efficiency_ln>  (1) 
-1.6981501770886402

>  <r_i_glide_ligand_efficiency_sa>  (1) 
-1.3670893436433054

>  <r_i_glide_lipo>  (1) 
-1.4553044954905618

>  <r_i_glide_metal>  (1) 
-0

>  <r_i_glide_rewards>  (1) 
-2.6331239160343229

>  <r_lp_Energy>  (1) 
7.3473319999999998

>  <r_lp_tautomer_probability>  (1) 
1

>  <s_epik_cmdline>  (1) 
J2VwaWtfcHl0aG9uJywgJy1waHQnLCAnMS4wJywgJy1waCcsICc3LjQnLCAnLXRuJywgJzgnLCAnLW1hJywgJzUwMCcsICctaW1hZScsICc8aW5maWxlLm1hZT4nLCAnLW9tYWUnLCAnPG91dGZpbGUubWFlPic=

>  <s_epik_input>  (1) 
W0NIXTE9W0NIXVtDSDJdT1tDSDJdW0NIMl1PMQ==

>  <s_glide_docking_method>  (1) 
confgen

>  <s_i_glide_gridfile>  (1) 
gpcr_drd2_6luq_protein_autoprepared_prepared

>  <s_lp_Force_Field>  (1) 
S-OPLS

>  <s_lp_Variant>  (1) 
Pocket2Mol_18-1

>  <s_m_source_file>  (1) 
generated_generic_title2_ligand_Pocket2Mol_2026-06-23_prepared.sdf

>  <GenAI_Model>  (1) 
Pocket2Mol

>  <Protein>  (1) 
generic_title2

$$$$
Pocket2Mol_34
     RDKit          3D

  0  0  0  0  0  0  0  0  0  0999 V3000
M  V30 BEGIN CTAB
M  V30 COUNTS 21 22 0 0 1
M  V30 BEGIN ATOM
M  V30 1 C 12.337900 8.405281 -9.322576 0
M  V30 2 O 12.575447 7.990227 -7.985025 0
M  V30 3 C 11.373619 8.139652 -7.236943 0 CFG=2
M  V30 4 C 11.493086 9.396016 -6.357704 0
M  V30 5 C 11.065502 6.889231 -6.423113 0
M  V30 6 C 10.923441 7.923676 -9.598644 0
M  V30 7 C 9.561451 6.752500 -6.605107 0
M  V30 8 C 10.234210 8.166017 -8.269572 0 CFG=1
M  V30 9 O 9.382125 7.072688 -7.967236 0
M  V30 10 H 13.073289 7.990227 -10.010524 0
M  V30 11 H 12.387036 9.492746 -9.385985 0
M  V30 12 H 10.557114 9.616171 -5.845619 0
M  V30 13 H 12.262838 9.264383 -5.597274 0
M  V30 14 H 11.775409 10.268976 -6.944943 0
M  V30 15 H 11.363794 6.955827 -5.376521 0
M  V30 16 H 11.562346 6.021065 -6.858437 0
M  V30 17 H 10.940771 6.856196 -9.821178 0
M  V30 18 H 10.441172 8.432973 -10.432117 0
M  V30 19 H 9.020862 7.468891 -5.985025 0
M  V30 20 H 9.190994 5.754259 -6.385026 0
M  V30 21 H 9.680262 9.104741 -8.251253 0
M  V30 END ATOM
M  V30 BEGIN BOND
M  V30 1 1 2 1
M  V30 2 1 3 2
M  V30 3 1 3 4 CFG=1
M  V30 4 1 5 3
M  V30 5 1 6 1
M  V30 6 1 7 5
M  V30 7 1 8 3
M  V30 8 1 8 6
M  V30 9 1 9 7
M  V30 10 1 9 8
M  V30 11 1 10 1
M  V30 12 1 11 1
M  V30 13 1 12 4
M  V30 14 1 13 4
M  V30 15 1 14 4
M  V30 16 1 15 5
M  V30 17 1 16 5
M  V30 18 1 17 6
M  V30 19 1 18 6
M  V30 20 1 19 7
M  V30 21 1 20 7
M  V30 22 1 8 21 CFG=3
M  V30 END BOND
M  V30 END CTAB
M  END
>  <i_epik_Tot_Q>  (1) 
0

>  <i_epik_Tot_abs_Q>  (1) 
0

>  <i_i_glide_confnum>  (1) 
4

>  <i_i_glide_lignum>  (1) 
38

>  <i_i_glide_posenum>  (1) 
335

>  <i_i_glide_rotatable_bonds>  (1) 
0

>  <i_lp_mmshare_version>  (1) 
72125

>  <i_m_source_file_index>  (1) 
35

>  <i_f3d_flags>  (1) 
0

>  <num_sample>  (1) 
100

>  <b_lp_Chiralities_Consistent>  (1) 
1

>  <r_epik_Charging_Adjusted_Penalty>  (1) 
0

>  <r_epik_Ionization_Penalty>  (1) 
2.529470820146915e-12

>  <r_epik_Ionization_Penalty_Charging>  (1) 
0

>  <r_epik_Ionization_Penalty_Neutral>  (1) 
2.529470820146915e-12

>  <r_epik_State_Penalty>  (1) 
-0

>  <r_glide_ring_energy>  (1) 
0.71124509259843272

>  <r_i_docking_score>  (1) 
-4.9966282675534526

>  <r_i_glide_ecoul>  (1) 
0.68848313802957151

>  <r_i_glide_eff_state_penalty>  (1) 
-0

>  <r_i_glide_einternal>  (1) 
0

>  <r_i_glide_emodel>  (1) 
-23.681088175573393

>  <r_i_glide_emodel_strain>  (1) 
0

>  <r_i_glide_energy>  (1) 
-18.05138346019266

>  <r_i_glide_erotb>  (1) 
0

>  <r_i_glide_esite>  (1) 
0

>  <r_i_glide_evdw>  (1) 
-18.739866598222232

>  <r_i_glide_gscore>  (1) 
-4.9966282675534526

>  <r_i_glide_gscore_strain>  (1) 
0

>  <r_i_glide_hbond>  (1) 
0

>  <r_i_glide_ligand_efficiency>  (1) 
-0.55518091861705032

>  <r_i_glide_ligand_efficiency_ln>  (1) 
-1.5628017821996143

>  <r_i_glide_ligand_efficiency_sa>  (1) 
-1.1548228476824223

>  <r_i_glide_lipo>  (1) 
-1.2045740750134435

>  <r_i_glide_metal>  (1) 
-0

>  <r_i_glide_rewards>  (1) 
-2.9583333333333335

>  <r_lp_Energy>  (1) 
-0.369228

>  <r_lp_tautomer_probability>  (1) 
1

>  <s_epik_cmdline>  (1) 
J2VwaWtfcHl0aG9uJywgJy1waHQnLCAnMS4wJywgJy1waCcsICc3LjQnLCAnLXRuJywgJzgnLCAnLW1hJywgJzUwMCcsICctaW1hZScsICc8aW5maWxlLm1hZT4nLCAnLW9tYWUnLCAnPG91dGZpbGUubWFlPic=

>  <s_epik_input>  (1) 
TzFbQ0gyXVtDSDJdW0NASF0oW0NAXTEyW0NIM10pT1tDSDJdW0NIMl0y

>  <s_glide_docking_method>  (1) 
confgen

>  <s_i_glide_gridfile>  (1) 
gpcr_drd2_6luq_protein_autoprepared_prepared

>  <s_lp_Force_Field>  (1) 
S-OPLS

>  <s_lp_Variant>  (1) 
Pocket2Mol_34-1

>  <s_m_source_file>  (1) 
generated_generic_title2_ligand_Pocket2Mol_2026-06-23_prepared.sdf

>  <GenAI_Model>  (1) 
Pocket2Mol

>  <Protein>  (1) 
generic_title2

$$$$
Pocket2Mol_74
     RDKit          3D

  0  0  0  0  0  0  0  0  0  0999 V3000
M  V30 BEGIN CTAB
M  V30 COUNTS 20 21 0 0 1
M  V30 BEGIN ATOM
M  V30 1 C 8.893601 4.845171 -10.030463 0
M  V30 2 O 9.170603 6.091498 -10.581076 0
M  V30 3 C 8.249066 5.107167 -8.716192 0
M  V30 4 O 9.374749 5.190321 -7.924298 0
M  V30 5 C 10.146134 6.989641 -10.299750 0
M  V30 6 C 9.995257 6.390787 -7.723090 0
M  V30 7 C 10.290847 6.761236 -6.393062 0
M  V30 8 O 10.743632 7.590227 -11.185033 0
M  V30 9 C 10.401850 7.258410 -8.807075 0
M  V30 10 C 11.106171 8.447139 -8.491949 0
M  V30 11 C 11.383703 8.790173 -7.157860 0
M  V30 12 C 10.974303 7.953348 -6.114082 0
M  V30 13 H 9.775554 4.210222 -9.959307 0
M  V30 14 H 8.186213 4.344886 -10.691543 0
M  V30 15 H 7.654304 4.256881 -8.385378 0
M  V30 16 H 7.626834 5.990095 -8.691620 0
M  V30 17 H 9.993592 6.114305 -5.580482 0
M  V30 18 H 11.427804 9.106459 -9.285664 0
M  V30 19 H 11.914575 9.703910 -6.937234 0
M  V30 20 H 11.192329 8.221683 -5.090904 0
M  V30 END ATOM
M  V30 BEGIN BOND
M  V30 1 1 2 1
M  V30 2 1 3 1
M  V30 3 1 4 3
M  V30 4 1 5 2
M  V30 5 1 6 4
M  V30 6 2 7 6
M  V30 7 2 8 5
M  V30 8 1 9 5
M  V30 9 1 9 6
M  V30 10 2 10 9
M  V30 11 1 11 10
M  V30 12 1 12 7
M  V30 13 2 12 11
M  V30 14 1 13 1
M  V30 15 1 14 1
M  V30 16 1 15 3
M  V30 17 1 16 3
M  V30 18 1 17 7
M  V30 19 1 18 10
M  V30 20 1 19 11
M  V30 21 1 20 12
M  V30 END BOND
M  V30 END CTAB
M  END
>  <i_epik_Tot_Q>  (1) 
0

>  <i_epik_Tot_abs_Q>  (1) 
0

>  <i_i_glide_confnum>  (1) 
2

>  <i_i_glide_lignum>  (1) 
81

>  <i_i_glide_posenum>  (1) 
186

>  <i_i_glide_rotatable_bonds>  (1) 
0

>  <i_lp_mmshare_version>  (1) 
72125

>  <i_m_source_file_index>  (1) 
75

>  <i_f3d_flags>  (1) 
0

>  <num_sample>  (1) 
100

>  <b_lp_Chiralities_Consistent>  (1) 
1

>  <r_epik_Charging_Adjusted_Penalty>  (1) 
0

>  <r_epik_Ionization_Penalty>  (1) 
6.5779134034160639e-16

>  <r_epik_Ionization_Penalty_Charging>  (1) 
0

>  <r_epik_Ionization_Penalty_Neutral>  (1) 
6.5779134034160639e-16

>  <r_epik_State_Penalty>  (1) 
-0

>  <r_glide_ring_energy>  (1) 
0.0013676017921593852

>  <r_i_docking_score>  (1) 
-4.9930131329456291

>  <r_i_glide_ecoul>  (1) 
-1.2612062866374931

>  <r_i_glide_eff_state_penalty>  (1) 
-0

>  <r_i_glide_einternal>  (1) 
0

>  <r_i_glide_emodel>  (1) 
-27.9324012019398

>  <r_i_glide_emodel_strain>  (1) 
0.02698579435823234

>  <r_i_glide_energy>  (1) 
-20.582840673020982

>  <r_i_glide_erotb>  (1) 
0

>  <r_i_glide_esite>  (1) 
-0.055600040884483261

>  <r_i_glide_evdw>  (1) 
-19.32163438638349

>  <r_i_glide_gscore>  (1) 
-4.9930131329456291

>  <r_i_glide_gscore_strain>  (1) 
0

>  <r_i_glide_hbond>  (1) 
0

>  <r_i_glide_ligand_efficiency>  (1) 
-0.41608442774546911

>  <r_i_glide_ligand_efficiency_ln>  (1) 
-1.4327537678087798

>  <r_i_glide_ligand_efficiency_sa>  (1) 
-0.9525955410897825

>  <r_i_glide_lipo>  (1) 
-0.94870943352327675

>  <r_i_glide_metal>  (1) 
-0

>  <r_i_glide_rewards>  (1) 
-2.8334409962230707

>  <r_lp_Energy>  (1) 
17.344456999999998

>  <r_lp_tautomer_probability>  (1) 
1

>  <s_epik_Chemistry_Notes>  (1) 
This compound has an ester and may undergo hydrolysis at high or low pH.

>  <s_epik_cmdline>  (1) 
J2VwaWtfcHl0aG9uJywgJy1waHQnLCAnMS4wJywgJy1waCcsICc3LjQnLCAnLXRuJywgJzgnLCAnLW1hJywgJzUwMCcsICctaW1hZScsICc8aW5maWxlLm1hZT4nLCAnLW9tYWUnLCAnPG91dGZpbGUubWFlPic=

>  <s_epik_input>  (1) 
TzFbQ0gyXVtDSDJdT0MoPU8pYyhjMTIpW2NIXVtjSF1bY0hdW2NIXTI=

>  <s_glide_docking_method>  (1) 
confgen

>  <s_i_glide_gridfile>  (1) 
gpcr_drd2_6luq_protein_autoprepared_prepared

>  <s_lp_Force_Field>  (1) 
S-OPLS

>  <s_lp_Variant>  (1) 
Pocket2Mol_74-1

>  <s_m_source_file>  (1) 
generated_generic_title2_ligand_Pocket2Mol_2026-06-23_prepared.sdf

>  <GenAI_Model>  (1) 
Pocket2Mol

>  <Protein>  (1) 
generic_title2

$$$$
Pocket2Mol_18
     RDKit          3D

  0  0  0  0  0  0  0  0  0  0999 V3000
M  V30 BEGIN CTAB
M  V30 COUNTS 15 15 0 0 1
M  V30 BEGIN ATOM
M  V30 1 C 12.575409 8.359465 -3.355517 0
M  V30 2 O 12.816974 9.240999 -4.377739 0
M  V30 3 C 11.677177 9.669287 -5.106724 0
M  V30 4 C 11.279207 8.660021 -6.178713 0
M  V30 5 O 10.571580 7.596827 -5.577290 0
M  V30 6 C 11.375399 6.679798 -4.851911 0
M  V30 7 C 11.917559 7.192056 -3.523824 0
M  V30 8 H 12.966058 8.710136 -2.410558 0
M  V30 9 H 11.945146 10.607263 -5.592694 0
M  V30 10 H 10.840759 9.899959 -4.445583 0
M  V30 11 H 12.134956 8.315115 -6.760969 0
M  V30 12 H 10.595238 9.140212 -6.879193 0
M  V30 13 H 12.175406 6.274539 -5.470161 0
M  V30 14 H 10.727424 5.837608 -4.613251 0
M  V30 15 H 11.766664 6.547473 -2.669732 0
M  V30 END ATOM
M  V30 BEGIN BOND
M  V30 1 1 2 1
M  V30 2 1 3 2
M  V30 3 1 4 3
M  V30 4 1 5 4
M  V30 5 1 6 5
M  V30 6 2 7 1
M  V30 7 1 7 6
M  V30 8 1 8 1
M  V30 9 1 9 3
M  V30 10 1 10 3
M  V30 11 1 11 4
M  V30 12 1 12 4
M  V30 13 1 13 6
M  V30 14 1 14 6
M  V30 15 1 15 7
M  V30 END BOND
M  V30 END CTAB
M  END
>  <i_epik_Tot_Q>  (1) 
0

>  <i_epik_Tot_abs_Q>  (1) 
0

>  <i_i_glide_confnum>  (1) 
1

>  <i_i_glide_lignum>  (1) 
21

>  <i_i_glide_posenum>  (1) 
162

>  <i_i_glide_rotatable_bonds>  (1) 
0

>  <i_lp_mmshare_version>  (1) 
72125

>  <i_m_source_file_index>  (1) 
19

>  <i_f3d_flags>  (1) 
0

>  <num_sample>  (1) 
100

>  <b_lp_Chiralities_Consistent>  (1) 
1

>  <r_epik_Charging_Adjusted_Penalty>  (1) 
0

>  <r_epik_Ionization_Penalty>  (1) 
5.6701613537443791e-14

>  <r_epik_Ionization_Penalty_Charging>  (1) 
0

>  <r_epik_Ionization_Penalty_Neutral>  (1) 
5.6701613537443791e-14

>  <r_epik_State_Penalty>  (1) 
-0

>  <r_glide_ring_energy>  (1) 
0

>  <r_i_docking_score>  (1) 
-4.9916885345660189

>  <r_i_glide_ecoul>  (1) 
-0.33052283219542261

>  <r_i_glide_eff_state_penalty>  (1) 
-0

>  <r_i_glide_einternal>  (1) 
0

>  <r_i_glide_emodel>  (1) 
-21.179361922246102

>  <r_i_glide_emodel_strain>  (1) 
3.2868916477468701e-08

>  <r_i_glide_energy>  (1) 
-15.97147968884601

>  <r_i_glide_erotb>  (1) 
0

>  <r_i_glide_esite>  (1) 
0

>  <r_i_glide_evdw>  (1) 
-15.640956856650588

>  <r_i_glide_gscore>  (1) 
-4.9916885345660189

>  <r_i_glide_gscore_strain>  (1) 
0

>  <r_i_glide_hbond>  (1) 
0

>  <r_i_glide_ligand_efficiency>  (1) 
-0.71309836208085986

>  <r_i_glide_ligand_efficiency_ln>  (1) 
-1.6944469729216758

>  <r_i_glide_ligand_efficiency_sa>  (1) 
-1.3641080932083927

>  <r_i_glide_lipo>  (1) 
-1.5466082169737518

>  <r_i_glide_metal>  (1) 
-0

>  <r_i_glide_rewards>  (1) 
-2.6134540499304237

>  <r_lp_Energy>  (1) 
7.3473319999999998

>  <r_lp_tautomer_probability>  (1) 
1

>  <s_epik_cmdline>  (1) 
J2VwaWtfcHl0aG9uJywgJy1waHQnLCAnMS4wJywgJy1waCcsICc3LjQnLCAnLXRuJywgJzgnLCAnLW1hJywgJzUwMCcsICctaW1hZScsICc8aW5maWxlLm1hZT4nLCAnLW9tYWUnLCAnPG91dGZpbGUubWFlPic=

>  <s_epik_input>  (1) 
W0NIXTE9W0NIXVtDSDJdT1tDSDJdW0NIMl1PMQ==

>  <s_glide_docking_method>  (1) 
confgen

>  <s_i_glide_gridfile>  (1) 
gpcr_drd2_6luq_protein_autoprepared_prepared

>  <s_lp_Force_Field>  (1) 
S-OPLS

>  <s_lp_Variant>  (1) 
Pocket2Mol_18-1

>  <s_m_source_file>  (1) 
generated_generic_title2_ligand_Pocket2Mol_2026-06-23_prepared.sdf

>  <GenAI_Model>  (1) 
Pocket2Mol

>  <Protein>  (1) 
generic_title2

$$$$
Pocket2Mol_35
     RDKit          3D

  0  0  0  0  0  0  0  0  0  0999 V3000
M  V30 BEGIN CTAB
M  V30 COUNTS 17 18 0 0 1
M  V30 BEGIN ATOM
M  V30 1 C 7.107561 5.274685 -15.982291 0
M  V30 2 O 8.270210 4.905868 -15.129645 0
M  V30 3 C 7.987893 5.484516 -13.933566 0
M  V30 4 C 6.852448 6.177096 -13.883640 0
M  V30 5 C 6.448104 6.829109 -12.678382 0
M  V30 6 N 7.252664 6.724453 -11.585271 0 CHG=1
M  V30 7 C 8.418369 6.028076 -11.605486 0
M  V30 8 C 8.825972 5.378187 -12.795290 0
M  V30 9 C 6.095253 6.197634 -15.146456 0
M  V30 10 H 6.608486 4.360262 -16.321541 0
M  V30 11 H 7.459419 5.791335 -16.883212 0
M  V30 12 H 5.534292 7.419088 -12.546923 0
M  V30 13 H 8.977292 6.014931 -10.681665 0
M  V30 14 H 9.756711 4.814238 -12.830593 0
M  V30 15 H 5.136754 5.718891 -15.082176 0
M  V30 16 H 6.048175 7.173693 -15.593804 0
M  V30 17 H 6.975383 7.202304 -10.687948 0
M  V30 END ATOM
M  V30 BEGIN BOND
M  V30 1 1 2 1
M  V30 2 1 3 2
M  V30 3 2 4 3
M  V30 4 1 5 4
M  V30 5 2 6 5
M  V30 6 1 7 6
M  V30 7 1 8 3
M  V30 8 2 8 7
M  V30 9 1 9 1
M  V30 10 1 9 4
M  V30 11 1 10 1
M  V30 12 1 11 1
M  V30 13 1 12 5
M  V30 14 1 13 7
M  V30 15 1 14 8
M  V30 16 1 15 9
M  V30 17 1 16 9
M  V30 18 1 17 6
M  V30 END BOND
M  V30 END CTAB
M  END
>  <i_epik_Tot_Q>  (1) 
1

>  <i_epik_Tot_abs_Q>  (1) 
1

>  <i_i_glide_confnum>  (1) 
1

>  <i_i_glide_lignum>  (1) 
39

>  <i_i_glide_posenum>  (1) 
211

>  <i_i_glide_rotatable_bonds>  (1) 
0

>  <i_lp_mmshare_version>  (1) 
72125

>  <i_m_source_file_index>  (1) 
36

>  <i_f3d_flags>  (1) 
0

>  <num_sample>  (1) 
100

>  <b_lp_Chiralities_Consistent>  (1) 
1

>  <r_epik_Charging_Adjusted_Penalty>  (1) 
0.75885481127580245

>  <r_epik_Ionization_Penalty>  (1) 
0.37942740563790117

>  <r_epik_Ionization_Penalty_Charging>  (1) 
0.37942740563790117

>  <r_epik_Ionization_Penalty_Neutral>  (1) 
0

>  <r_epik_State_Penalty>  (1) 
0.37942740563790123

>  <r_glide_ring_energy>  (1) 
0

>  <r_i_docking_score>  (1) 
-4.9889945782288052

>  <r_i_glide_ecoul>  (1) 
-9.6860497179540097

>  <r_i_glide_eff_state_penalty>  (1) 
0.37942740563790123

>  <r_i_glide_einternal>  (1) 
0

>  <r_i_glide_emodel>  (1) 
-30.045922233315977

>  <r_i_glide_emodel_strain>  (1) 
0

>  <r_i_glide_energy>  (1) 
-19.833526205106953

>  <r_i_glide_erotb>  (1) 
0

>  <r_i_glide_esite>  (1) 
-0.10000000000000001

>  <r_i_glide_evdw>  (1) 
-10.147476487152943

>  <r_i_glide_gscore>  (1) 
-5.3684219838667069

>  <r_i_glide_gscore_strain>  (1) 
0

>  <r_i_glide_hbond>  (1) 
-0.1388682153960486

>  <r_i_glide_ligand_efficiency>  (1) 
-0.55433273091431168

>  <r_i_glide_ligand_efficiency_ln>  (1) 
-1.5604141834745329

>  <r_i_glide_ligand_efficiency_sa>  (1) 
-1.153058546163044

>  <r_i_glide_lipo>  (1) 
-0.67488694256853721

>  <r_i_glide_metal>  (1) 
-0

>  <r_i_glide_rewards>  (1) 
-2.4943855438513722

>  <r_lp_Energy>  (1) 
18.327531999999998

>  <s_epik_cmdline>  (1) 
J2VwaWtfcHl0aG9uJywgJy1waHQnLCAnMS4wJywgJy1waCcsICc3LjQnLCAnLXRuJywgJzgnLCAnLW1hJywgJzUwMCcsICctaW1hZScsICc8aW5maWxlLm1hZT4nLCAnLW9tYWUnLCAnPG91dGZpbGUubWFlPic=

>  <s_epik_input>  (1) 
TzFbQ0gyXVtDSDJdYyhjMTIpW2NIXW5bY0hdW2NIXTI=

>  <s_glide_docking_method>  (1) 
confgen

>  <s_i_glide_gridfile>  (1) 
gpcr_drd2_6luq_protein_autoprepared_prepared

>  <s_lp_Force_Field>  (1) 
S-OPLS

>  <s_lp_Variant>  (1) 
Pocket2Mol_35-1

>  <s_m_source_file>  (1) 
generated_generic_title2_ligand_Pocket2Mol_2026-06-23_prepared.sdf

>  <GenAI_Model>  (1) 
Pocket2Mol

>  <Protein>  (1) 
generic_title2

$$$$
Pocket2Mol_15
     RDKit          3D

  0  0  0  0  0  0  0  0  0  0999 V3000
M  V30 BEGIN CTAB
M  V30 COUNTS 17 17 0 0 1
M  V30 BEGIN ATOM
M  V30 1 C 11.288802 8.767118 -5.661463 0
M  V30 2 O 11.375409 9.386409 -4.385086 0
M  V30 3 C 10.840628 7.298324 -5.586440 0
M  V30 4 O 11.775409 6.483627 -4.890889 0
M  V30 5 C 12.489049 8.952333 -3.620115 0
M  V30 6 C 11.622696 6.477613 -3.479499 0
M  V30 7 C 12.175410 7.721689 -2.756480 0
M  V30 8 H 10.551214 9.323353 -6.240148 0
M  V30 9 H 12.227293 8.863525 -6.207472 0
M  V30 10 H 9.832376 7.202840 -5.184972 0
M  V30 11 H 10.783974 6.911797 -6.604198 0
M  V30 12 H 13.366792 8.790234 -4.246308 0
M  V30 13 H 12.755702 9.769227 -2.950868 0
M  V30 14 H 12.148071 5.601311 -3.099607 0
M  V30 15 H 10.575457 6.316067 -3.222205 0
M  V30 16 H 13.089811 7.440540 -2.238839 0
M  V30 17 H 11.477698 8.005928 -1.967879 0
M  V30 END ATOM
M  V30 BEGIN BOND
M  V30 1 1 2 1
M  V30 2 1 3 1
M  V30 3 1 4 3
M  V30 4 1 5 2
M  V30 5 1 6 4
M  V30 6 1 7 5
M  V30 7 1 7 6
M  V30 8 1 8 1
M  V30 9 1 9 1
M  V30 10 1 10 3
M  V30 11 1 11 3
M  V30 12 1 12 5
M  V30 13 1 13 5
M  V30 14 1 14 6
M  V30 15 1 15 6
M  V30 16 1 16 7
M  V30 17 1 17 7
M  V30 END BOND
M  V30 END CTAB
M  END
>  <i_epik_Tot_Q>  (1) 
0

>  <i_epik_Tot_abs_Q>  (1) 
0

>  <i_i_glide_confnum>  (1) 
11

>  <i_i_glide_lignum>  (1) 
18

>  <i_i_glide_posenum>  (1) 
274

>  <i_i_glide_rotatable_bonds>  (1) 
0

>  <i_lp_mmshare_version>  (1) 
72125

>  <i_m_source_file_index>  (1) 
16

>  <i_f3d_flags>  (1) 
0

>  <num_sample>  (1) 
100

>  <b_lp_Chiralities_Consistent>  (1) 
1

>  <r_epik_Charging_Adjusted_Penalty>  (1) 
0

>  <r_epik_Ionization_Penalty>  (1) 
3.933197540425548e-12

>  <r_epik_Ionization_Penalty_Charging>  (1) 
0

>  <r_epik_Ionization_Penalty_Neutral>  (1) 
3.933197540425548e-12

>  <r_epik_State_Penalty>  (1) 
-0

>  <r_glide_ring_energy>  (1) 
0.00070385905571176553

>  <r_i_docking_score>  (1) 
-4.9885621245016196

>  <r_i_glide_ecoul>  (1) 
-0.71843742342616657

>  <r_i_glide_eff_state_penalty>  (1) 
-0

>  <r_i_glide_einternal>  (1) 
0

>  <r_i_glide_emodel>  (1) 
-21.626848818214885

>  <r_i_glide_emodel_strain>  (1) 
0.049286777995106945

>  <r_i_glide_energy>  (1) 
-16.213837972863207

>  <r_i_glide_erotb>  (1) 
0

>  <r_i_glide_esite>  (1) 
0

>  <r_i_glide_evdw>  (1) 
-15.495400549437042

>  <r_i_glide_gscore>  (1) 
-4.9885621245016196

>  <r_i_glide_gscore_strain>  (1) 
0

>  <r_i_glide_hbond>  (1) 
0

>  <r_i_glide_ligand_efficiency>  (1) 
-0.71265173207165999

>  <r_i_glide_ligand_efficiency_ln>  (1) 
-1.6933857015636877

>  <r_i_glide_ligand_efficiency_sa>  (1) 
-1.3632537207366322

>  <r_i_glide_lipo>  (1) 
-1.4695369820184143

>  <r_i_glide_metal>  (1) 
-0

>  <r_i_glide_rewards>  (1) 
-2.636489501497429

>  <r_lp_Energy>  (1) 
9.641

>  <r_lp_tautomer_probability>  (1) 
1

>  <s_epik_cmdline>  (1) 
J2VwaWtfcHl0aG9uJywgJy1waHQnLCAnMS4wJywgJy1waCcsICc3LjQnLCAnLXRuJywgJzgnLCAnLW1hJywgJzUwMCcsICctaW1hZScsICc8aW5maWxlLm1hZT4nLCAnLW9tYWUnLCAnPG91dGZpbGUubWFlPic=

>  <s_epik_input>  (1) 
W0NIMl0xT1tDSDJdW0NIMl1bQ0gyXU9bQ0gyXTE=

>  <s_glide_docking_method>  (1) 
confgen

>  <s_i_glide_gridfile>  (1) 
gpcr_drd2_6luq_protein_autoprepared_prepared

>  <s_lp_Force_Field>  (1) 
S-OPLS

>  <s_lp_Variant>  (1) 
Pocket2Mol_15-1

>  <s_m_source_file>  (1) 
generated_generic_title2_ligand_Pocket2Mol_2026-06-23_prepared.sdf

>  <GenAI_Model>  (1) 
Pocket2Mol

>  <Protein>  (1) 
generic_title2

$$$$
Pocket2Mol_90
     RDKit          3D

  0  0  0  0  0  0  0  0  0  0999 V3000
M  V30 BEGIN CTAB
M  V30 COUNTS 23 24 0 0 1
M  V30 BEGIN ATOM
M  V30 1 C 9.016090 6.627119 -11.905141 0
M  V30 2 O 9.837094 7.792648 -11.515377 0
M  V30 3 C 10.093788 7.530346 -10.214501 0
M  V30 4 C 9.583620 6.376202 -9.737398 0
M  V30 5 C 9.775412 5.981343 -8.403112 0
M  V30 6 C 8.825464 5.585516 -10.710053 0
M  V30 7 C 10.842283 8.390182 -9.394570 0
M  V30 8 C 10.514267 6.818062 -7.537623 0
M  V30 9 N 10.713602 6.390227 -6.176729 0
M  V30 10 C 11.058160 8.041549 -8.043429 0
M  V30 11 C 11.189374 7.155322 -5.171238 0
M  V30 12 O 11.421810 8.356138 -5.250438 0
M  V30 13 N 11.375444 6.455845 -4.053844 0
M  V30 14 H 8.043003 6.990641 -12.236793 0
M  V30 15 H 9.478101 6.138806 -12.763851 0
M  V30 16 H 9.358543 5.052103 -8.043434 0
M  V30 17 H 9.292525 4.618728 -10.901570 0
M  V30 18 H 7.784336 5.468006 -10.406727 0
M  V30 19 H 11.249452 9.306871 -9.791776 0
M  V30 20 H 10.479723 5.431451 -5.967316 0
M  V30 21 H 11.639374 8.695475 -7.423226 0
M  V30 22 H 11.164634 5.468114 -4.032126 0
M  V30 23 H 11.726139 6.917406 -3.229172 0
M  V30 END ATOM
M  V30 BEGIN BOND
M  V30 1 1 2 1
M  V30 2 1 3 2
M  V30 3 2 4 3
M  V30 4 1 5 4
M  V30 5 1 6 1
M  V30 6 1 6 4
M  V30 7 1 7 3
M  V30 8 2 8 5
M  V30 9 1 9 8
M  V30 10 2 10 7
M  V30 11 1 10 8
M  V30 12 1 11 9
M  V30 13 2 12 11
M  V30 14 1 13 11
M  V30 15 1 14 1
M  V30 16 1 15 1
M  V30 17 1 16 5
M  V30 18 1 17 6
M  V30 19 1 18 6
M  V30 20 1 19 7
M  V30 21 1 20 9
M  V30 22 1 21 10
M  V30 23 1 22 13
M  V30 24 1 23 13
M  V30 END BOND
M  V30 END CTAB
M  END
>  <i_epik_Tot_Q>  (1) 
0

>  <i_epik_Tot_abs_Q>  (1) 
0

>  <i_i_glide_confnum>  (1) 
1

>  <i_i_glide_lignum>  (1) 
97

>  <i_i_glide_posenum>  (1) 
279

>  <i_i_glide_rotatable_bonds>  (1) 
2

>  <i_lp_mmshare_version>  (1) 
72125

>  <i_m_source_file_index>  (1) 
91

>  <i_f3d_flags>  (1) 
0

>  <num_sample>  (1) 
100

>  <b_lp_Chiralities_Consistent>  (1) 
1

>  <r_epik_Charging_Adjusted_Penalty>  (1) 
0

>  <r_epik_Ionization_Penalty>  (1) 
1.9038757045197726e-05

>  <r_epik_Ionization_Penalty_Charging>  (1) 
0

>  <r_epik_Ionization_Penalty_Neutral>  (1) 
1.9038757045197726e-05

>  <r_epik_State_Penalty>  (1) 
-0

>  <r_glide_ring_energy>  (1) 
0

>  <r_i_docking_score>  (1) 
-4.983576107717508

>  <r_i_glide_ecoul>  (1) 
-3.2848854168928345

>  <r_i_glide_eff_state_penalty>  (1) 
-0

>  <r_i_glide_einternal>  (1) 
4.7008402000377512

>  <r_i_glide_emodel>  (1) 
-32.890765148859664

>  <r_i_glide_emodel_strain>  (1) 
0

>  <r_i_glide_energy>  (1) 
-26.467989850218487

>  <r_i_glide_erotb>  (1) 
0

>  <r_i_glide_esite>  (1) 
0

>  <r_i_glide_evdw>  (1) 
-23.183104433325653

>  <r_i_glide_gscore>  (1) 
-4.983576107717508

>  <r_i_glide_gscore_strain>  (1) 
0

>  <r_i_glide_hbond>  (1) 
0

>  <r_i_glide_ligand_efficiency>  (1) 
-0.38335200828596216

>  <r_i_glide_ligand_efficiency_ln>  (1) 
-1.3979374201450425

>  <r_i_glide_ligand_efficiency_sa>  (1) 
-0.90138887469019824

>  <r_i_glide_lipo>  (1) 
-0.34883424038855915

>  <r_i_glide_metal>  (1) 
-0

>  <r_i_glide_rewards>  (1) 
-2.9828538331287415

>  <r_lp_Energy>  (1) 
13.450968999999999

>  <r_lp_tautomer_probability>  (1) 
1

>  <s_epik_cmdline>  (1) 
J2VwaWtfcHl0aG9uJywgJy1waHQnLCAnMS4wJywgJy1waCcsICc3LjQnLCAnLXRuJywgJzgnLCAnLW1hJywgJzUwMCcsICctaW1hZScsICc8aW5maWxlLm1hZT4nLCAnLW9tYWUnLCAnPG91dGZpbGUubWFlPic=

>  <s_epik_input>  (1) 
TzFbQ0gyXVtDSDJdYyhjMTIpW2NIXWMoW2NIXVtjSF0yKVtOSF1DKD1PKVtOSDJd

>  <s_glide_docking_method>  (1) 
confgen

>  <s_i_glide_gridfile>  (1) 
gpcr_drd2_6luq_protein_autoprepared_prepared

>  <s_lp_Force_Field>  (1) 
S-OPLS

>  <s_lp_Variant>  (1) 
Pocket2Mol_90-1

>  <s_m_source_file>  (1) 
generated_generic_title2_ligand_Pocket2Mol_2026-06-23_prepared.sdf

>  <GenAI_Model>  (1) 
Pocket2Mol

>  <Protein>  (1) 
generic_title2

$$$$
Pocket2Mol_28
     RDKit          3D

  0  0  0  0  0  0  0  0  0  0999 V3000
M  V30 BEGIN CTAB
M  V30 COUNTS 13 13 0 0 1
M  V30 BEGIN ATOM
M  V30 1 N 11.375410 6.390231 -4.505578 0
M  V30 2 C 11.957217 7.338809 -3.684679 0
M  V30 3 C 11.991580 8.653791 -3.985025 0
M  V30 4 C 10.794485 6.795572 -5.696802 0
M  V30 5 O 12.552880 9.565610 -3.185025 0
M  V30 6 C 11.375677 9.130370 -5.259681 0
M  V30 7 O 11.375411 10.317242 -5.584956 0
M  V30 8 C 10.760660 8.079785 -6.113350 0
M  V30 9 H 12.382843 6.935683 -2.776921 0
M  V30 10 H 10.362935 5.990229 -6.272340 0
M  V30 11 H 12.884365 9.122830 -2.419443 0
M  V30 12 H 10.297677 8.362567 -7.047815 0
M  V30 13 H 11.365175 5.413286 -4.237617 0
M  V30 END ATOM
M  V30 BEGIN BOND
M  V30 1 1 2 1
M  V30 2 2 3 2
M  V30 3 1 4 1
M  V30 4 1 5 3
M  V30 5 1 6 3
M  V30 6 2 7 6
M  V30 7 2 8 4
M  V30 8 1 8 6
M  V30 9 1 9 2
M  V30 10 1 10 4
M  V30 11 1 11 5
M  V30 12 1 12 8
M  V30 13 1 13 1
M  V30 END BOND
M  V30 END CTAB
M  END
>  <i_epik_Tot_Q>  (1) 
0

>  <i_epik_Tot_abs_Q>  (1) 
0

>  <i_i_glide_confnum>  (1) 
1

>  <i_i_glide_lignum>  (1) 
32

>  <i_i_glide_posenum>  (1) 
246

>  <i_i_glide_rotatable_bonds>  (1) 
1

>  <i_lp_mmshare_version>  (1) 
72125

>  <i_m_source_file_index>  (1) 
29

>  <i_f3d_flags>  (1) 
0

>  <num_sample>  (1) 
100

>  <b_lp_Chiralities_Consistent>  (1) 
1

>  <r_epik_Charging_Adjusted_Penalty>  (1) 
0.000203171374695584

>  <r_epik_Ionization_Penalty>  (1) 
0.014901896624084464

>  <r_epik_Ionization_Penalty_Charging>  (1) 
0.000203171374695584

>  <r_epik_Ionization_Penalty_Neutral>  (1) 
0.01469872524938888

>  <r_epik_State_Penalty>  (1) 
-0

>  <r_glide_ring_energy>  (1) 
0

>  <r_i_docking_score>  (1) 
-4.9815530220161941

>  <r_i_glide_ecoul>  (1) 
-2.671687865295481

>  <r_i_glide_eff_state_penalty>  (1) 
-0

>  <r_i_glide_einternal>  (1) 
0.012875822151120264

>  <r_i_glide_emodel>  (1) 
-27.227568416782571

>  <r_i_glide_emodel_strain>  (1) 
0

>  <r_i_glide_energy>  (1) 
-20.023831059558628

>  <r_i_glide_erotb>  (1) 
0

>  <r_i_glide_esite>  (1) 
0

>  <r_i_glide_evdw>  (1) 
-17.352143194263146

>  <r_i_glide_gscore>  (1) 
-4.9815530220161941

>  <r_i_glide_gscore_strain>  (1) 
0

>  <r_i_glide_hbond>  (1) 
0

>  <r_i_glide_ligand_efficiency>  (1) 
-0.62269412775202426

>  <r_i_glide_ligand_efficiency_ln>  (1) 
-1.6176806588439916

>  <r_i_glide_ligand_efficiency_sa>  (1) 
-1.2453882555040487

>  <r_i_glide_lipo>  (1) 
-1.4631926825087147

>  <r_i_glide_metal>  (1) 
-0

>  <r_i_glide_rewards>  (1) 
-2.25

>  <r_lp_Energy>  (1) 
11.500328

>  <r_lp_tautomer_probability>  (1) 
1

>  <s_epik_cmdline>  (1) 
J2VwaWtfcHl0aG9uJywgJy1waHQnLCAnMS4wJywgJy1waCcsICc3LjQnLCAnLXRuJywgJzgnLCAnLW1hJywgJzUwMCcsICctaW1hZScsICc8aW5maWxlLm1hZT4nLCAnLW9tYWUnLCAnPG91dGZpbGUubWFlPic=

>  <s_epik_input>  (1) 
W09IXWMxW2NIXW5bY0hdW2NIXWMxW09IXQ==

>  <s_glide_docking_method>  (1) 
confgen

>  <s_i_glide_gridfile>  (1) 
gpcr_drd2_6luq_protein_autoprepared_prepared

>  <s_lp_Force_Field>  (1) 
S-OPLS

>  <s_lp_Variant>  (1) 
Pocket2Mol_28-1

>  <s_m_source_file>  (1) 
generated_generic_title2_ligand_Pocket2Mol_2026-06-23_prepared.sdf

>  <GenAI_Model>  (1) 
Pocket2Mol

>  <Protein>  (1) 
generic_title2

$$$$
Pocket2Mol_34
     RDKit          3D

  0  0  0  0  0  0  0  0  0  0999 V3000
M  V30 BEGIN CTAB
M  V30 COUNTS 21 22 0 0 1
M  V30 BEGIN ATOM
M  V30 1 C 11.409157 8.703532 -5.290855 0
M  V30 2 O 10.996793 9.190217 -6.557622 0
M  V30 3 C 11.096726 8.144390 -7.522462 0 CFG=2
M  V30 4 C 12.284294 8.390231 -8.466677 0
M  V30 5 C 9.775411 7.998553 -8.257830 0
M  V30 6 C 10.975411 7.242187 -5.301788 0
M  V30 7 C 9.637198 6.489985 -8.409141 0
M  V30 8 C 11.203278 6.831263 -6.741741 0 CFG=1
M  V30 9 O 10.146795 5.990232 -7.185030 0
M  V30 10 H 10.973610 9.276408 -4.473136 0
M  V30 11 H 12.492487 8.790231 -5.210655 0
M  V30 12 H 12.384431 7.590220 -9.199536 0
M  V30 13 H 12.157716 9.322823 -9.016712 0
M  V30 14 H 13.221901 8.457771 -7.915112 0
M  V30 15 H 9.731846 8.531700 -9.207877 0
M  V30 16 H 8.959845 8.367339 -7.634688 0
M  V30 17 H 9.911085 7.176652 -5.078900 0
M  V30 18 H 11.513272 6.620547 -4.585616 0
M  V30 19 H 10.244850 6.122645 -9.236270 0
M  V30 20 H 8.605893 6.174777 -8.571435 0
M  V30 21 H 12.175389 6.354348 -6.869238 0
M  V30 END ATOM
M  V30 BEGIN BOND
M  V30 1 1 2 1
M  V30 2 1 3 2
M  V30 3 1 3 4 CFG=3
M  V30 4 1 5 3
M  V30 5 1 6 1
M  V30 6 1 7 5
M  V30 7 1 8 3
M  V30 8 1 8 6
M  V30 9 1 9 7
M  V30 10 1 9 8
M  V30 11 1 10 1
M  V30 12 1 11 1
M  V30 13 1 12 4
M  V30 14 1 13 4
M  V30 15 1 14 4
M  V30 16 1 15 5
M  V30 17 1 16 5
M  V30 18 1 17 6
M  V30 19 1 18 6
M  V30 20 1 19 7
M  V30 21 1 20 7
M  V30 22 1 8 21 CFG=1
M  V30 END BOND
M  V30 END CTAB
M  END
>  <i_epik_Tot_Q>  (1) 
0

>  <i_epik_Tot_abs_Q>  (1) 
0

>  <i_i_glide_confnum>  (1) 
4

>  <i_i_glide_lignum>  (1) 
38

>  <i_i_glide_posenum>  (1) 
193

>  <i_i_glide_rotatable_bonds>  (1) 
0

>  <i_lp_mmshare_version>  (1) 
72125

>  <i_m_source_file_index>  (1) 
35

>  <i_f3d_flags>  (1) 
0

>  <num_sample>  (1) 
100

>  <b_lp_Chiralities_Consistent>  (1) 
1

>  <r_epik_Charging_Adjusted_Penalty>  (1) 
0

>  <r_epik_Ionization_Penalty>  (1) 
2.529470820146915e-12

>  <r_epik_Ionization_Penalty_Charging>  (1) 
0

>  <r_epik_Ionization_Penalty_Neutral>  (1) 
2.529470820146915e-12

>  <r_epik_State_Penalty>  (1) 
-0

>  <r_glide_ring_energy>  (1) 
0.71124509259843272

>  <r_i_docking_score>  (1) 
-4.9797310202532152

>  <r_i_glide_ecoul>  (1) 
-0.086686593560568681

>  <r_i_glide_eff_state_penalty>  (1) 
-0

>  <r_i_glide_einternal>  (1) 
0

>  <r_i_glide_emodel>  (1) 
-24.664177950117686

>  <r_i_glide_emodel_strain>  (1) 
0

>  <r_i_glide_energy>  (1) 
-19.05351137560103

>  <r_i_glide_erotb>  (1) 
0

>  <r_i_glide_esite>  (1) 
0

>  <r_i_glide_evdw>  (1) 
-18.966824782040462

>  <r_i_glide_gscore>  (1) 
-4.9797310202532152

>  <r_i_glide_gscore_strain>  (1) 
0

>  <r_i_glide_hbond>  (1) 
0

>  <r_i_glide_ligand_efficiency>  (1) 
-0.55330344669480169

>  <r_i_glide_ligand_efficiency_ln>  (1) 
-1.5575168086572442

>  <r_i_glide_ligand_efficiency_sa>  (1) 
-1.1509175487087187

>  <r_i_glide_lipo>  (1) 
-1.3133992709493232

>  <r_i_glide_metal>  (1) 
-0

>  <r_i_glide_rewards>  (1) 
-2.7049875211677836

>  <r_lp_Energy>  (1) 
-0.369228

>  <r_lp_tautomer_probability>  (1) 
1

>  <s_epik_cmdline>  (1) 
J2VwaWtfcHl0aG9uJywgJy1waHQnLCAnMS4wJywgJy1waCcsICc3LjQnLCAnLXRuJywgJzgnLCAnLW1hJywgJzUwMCcsICctaW1hZScsICc8aW5maWxlLm1hZT4nLCAnLW9tYWUnLCAnPG91dGZpbGUubWFlPic=

>  <s_epik_input>  (1) 
TzFbQ0gyXVtDSDJdW0NASF0oW0NAXTEyW0NIM10pT1tDSDJdW0NIMl0y

>  <s_glide_docking_method>  (1) 
confgen

>  <s_i_glide_gridfile>  (1) 
gpcr_drd2_6luq_protein_autoprepared_prepared

>  <s_lp_Force_Field>  (1) 
S-OPLS

>  <s_lp_Variant>  (1) 
Pocket2Mol_34-1

>  <s_m_source_file>  (1) 
generated_generic_title2_ligand_Pocket2Mol_2026-06-23_prepared.sdf

>  <GenAI_Model>  (1) 
Pocket2Mol

>  <Protein>  (1) 
generic_title2

$$$$
Pocket2Mol_87
     RDKit          3D

  0  0  0  0  0  0  0  0  0  0999 V3000
M  V30 BEGIN CTAB
M  V30 COUNTS 21 22 0 0 1
M  V30 BEGIN ATOM
M  V30 1 C 7.856625 5.089200 -9.443639 0
M  V30 2 O 8.471973 5.145026 -8.197405 0
M  V30 3 C 8.961578 4.827515 -10.396958 0
M  V30 4 O 9.271829 6.144016 -10.690775 0
M  V30 5 C 9.147931 6.149430 -7.597067 0
M  V30 6 C 10.175404 6.856669 -9.949983 0
M  V30 7 C 11.147046 7.590238 -10.657428 0
M  V30 8 O 9.013151 6.390243 -6.398398 0
M  V30 9 C 10.157344 6.913415 -8.496688 0
M  V30 10 C 11.135238 7.736671 -7.842137 0
M  V30 11 C 12.095055 8.372129 -9.984724 0
M  V30 12 O 11.162934 7.837425 -6.476693 0
M  V30 13 C 12.087380 8.446257 -8.590385 0
M  V30 14 H 7.162211 4.249888 -9.436035 0
M  V30 15 H 7.286482 5.981508 -9.690160 0
M  V30 16 H 9.775387 4.234244 -9.984413 0
M  V30 17 H 8.596728 4.339549 -11.299726 0
M  V30 18 H 11.159085 7.549357 -11.735724 0
M  V30 19 H 12.832553 8.926049 -10.546947 0
M  V30 20 H 10.430901 7.371572 -6.083966 0
M  V30 21 H 12.819812 9.055456 -8.083318 0
M  V30 END ATOM
M  V30 BEGIN BOND
M  V30 1 1 2 1
M  V30 2 1 3 1
M  V30 3 1 4 3
M  V30 4 1 5 2
M  V30 5 1 6 4
M  V30 6 2 7 6
M  V30 7 2 8 5
M  V30 8 1 9 5
M  V30 9 1 9 6
M  V30 10 2 10 9
M  V30 11 1 11 7
M  V30 12 1 12 10
M  V30 13 1 13 10
M  V30 14 2 13 11
M  V30 15 1 14 1
M  V30 16 1 15 1
M  V30 17 1 16 3
M  V30 18 1 17 3
M  V30 19 1 18 7
M  V30 20 1 19 11
M  V30 21 1 20 12
M  V30 22 1 21 13
M  V30 END BOND
M  V30 END CTAB
M  END
>  <i_epik_Tot_Q>  (1) 
0

>  <i_epik_Tot_abs_Q>  (1) 
0

>  <i_i_glide_confnum>  (1) 
2

>  <i_i_glide_lignum>  (1) 
94

>  <i_i_glide_posenum>  (1) 
373

>  <i_i_glide_rotatable_bonds>  (1) 
1

>  <i_lp_mmshare_version>  (1) 
72125

>  <i_m_source_file_index>  (1) 
88

>  <i_f3d_flags>  (1) 
0

>  <num_sample>  (1) 
100

>  <b_lp_Chiralities_Consistent>  (1) 
1

>  <r_epik_Charging_Adjusted_Penalty>  (1) 
0.011568550508496497

>  <r_epik_Ionization_Penalty>  (1) 
0.011568550508503217

>  <r_epik_Ionization_Penalty_Charging>  (1) 
0

>  <r_epik_Ionization_Penalty_Neutral>  (1) 
0.011568550508503217

>  <r_epik_State_Penalty>  (1) 
0.011568550508496497

>  <r_glide_ring_energy>  (1) 
0.0013752515646527682

>  <r_i_docking_score>  (1) 
-4.9754173137482764

>  <r_i_glide_ecoul>  (1) 
-1.6934197444022943

>  <r_i_glide_eff_state_penalty>  (1) 
0.011568550508496497

>  <r_i_glide_einternal>  (1) 
0.00039284239671566468

>  <r_i_glide_emodel>  (1) 
-26.588840016651051

>  <r_i_glide_emodel_strain>  (1) 
2.0735378441827379e-05

>  <r_i_glide_energy>  (1) 
-20.440988758488

>  <r_i_glide_erotb>  (1) 
0

>  <r_i_glide_esite>  (1) 
-0.079729376224805415

>  <r_i_glide_evdw>  (1) 
-18.747569014085705

>  <r_i_glide_gscore>  (1) 
-4.9869858642567726

>  <r_i_glide_gscore_strain>  (1) 
0

>  <r_i_glide_hbond>  (1) 
0

>  <r_i_glide_ligand_efficiency>  (1) 
-0.38272440874986741

>  <r_i_glide_ligand_efficiency_ln>  (1) 
-1.3956488058756267

>  <r_i_glide_ligand_efficiency_sa>  (1) 
-0.89991317813098115

>  <r_i_glide_lipo>  (1) 
-0.94920608504351434

>  <r_i_glide_metal>  (1) 
-0

>  <r_i_glide_rewards>  (1) 
-2.766658990623823

>  <r_lp_Energy>  (1) 
16.036355

>  <s_epik_Chemistry_Notes>  (1) 
This compound has an ester and may undergo hydrolysis at high or low pH.

>  <s_epik_cmdline>  (1) 
J2VwaWtfcHl0aG9uJywgJy1waHQnLCAnMS4wJywgJy1waCcsICc3LjQnLCAnLXRuJywgJzgnLCAnLW1hJywgJzUwMCcsICctaW1hZScsICc8aW5maWxlLm1hZT4nLCAnLW9tYWUnLCAnPG91dGZpbGUubWFlPic=

>  <s_epik_input>  (1) 
TzFbQ0gyXVtDSDJdT0MoPU8pYyhjMTIpYyhbT0hdKVtjSF1bY0hdW2NIXTI=

>  <s_glide_docking_method>  (1) 
confgen

>  <s_i_glide_gridfile>  (1) 
gpcr_drd2_6luq_protein_autoprepared_prepared

>  <s_lp_Force_Field>  (1) 
S-OPLS

>  <s_lp_Variant>  (1) 
Pocket2Mol_87-1

>  <s_m_source_file>  (1) 
generated_generic_title2_ligand_Pocket2Mol_2026-06-23_prepared.sdf

>  <GenAI_Model>  (1) 
Pocket2Mol

>  <Protein>  (1) 
generic_title2

$$$$
Pocket2Mol_89
     RDKit          3D

  0  0  0  0  0  0  0  0  0  0999 V3000
M  V30 BEGIN CTAB
M  V30 COUNTS 23 24 0 0 1
M  V30 BEGIN ATOM
M  V30 1 C 6.460889 5.850361 -11.259551 0
M  V30 2 O 5.775410 6.040408 -12.482643 0
M  V30 3 C 6.856162 4.390227 -11.091298 0
M  V30 4 O 6.070893 3.604702 -11.973062 0
M  V30 5 C 6.422906 6.004917 -13.653474 0
M  V30 6 C 6.616710 3.469842 -13.225900 0
M  V30 7 C 6.985375 2.181574 -13.685352 0
M  V30 8 O 6.637518 7.009128 -14.332216 0
M  V30 9 C 6.824456 4.608348 -14.071507 0
M  V30 10 C 6.768759 0.963033 -12.804818 0
M  V30 11 C 7.410051 4.427842 -15.344896 0
M  V30 12 C 7.775410 3.142578 -15.784614 0
M  V30 13 C 7.560983 2.024174 -14.960603 0
M  V30 14 H 5.772772 6.125436 -10.460577 0
M  V30 15 H 7.328793 6.506211 -11.185023 0
M  V30 16 H 6.682126 4.070480 -10.063531 0
M  V30 17 H 7.921858 4.252360 -11.286606 0
M  V30 18 H 6.362379 0.138672 -13.392263 0
M  V30 19 H 7.720974 0.639225 -12.385026 0
M  V30 20 H 6.077198 1.152540 -11.985029 0
M  V30 21 H 7.572768 5.279629 -15.989828 0
M  V30 22 H 8.219466 3.014136 -16.760761 0
M  V30 23 H 7.842464 1.040040 -15.306537 0
M  V30 END ATOM
M  V30 BEGIN BOND
M  V30 1 1 2 1
M  V30 2 1 3 1
M  V30 3 1 4 3
M  V30 4 1 5 2
M  V30 5 1 6 4
M  V30 6 2 7 6
M  V30 7 2 8 5
M  V30 8 1 9 5
M  V30 9 1 9 6
M  V30 10 1 10 7
M  V30 11 2 11 9
M  V30 12 1 12 11
M  V30 13 1 13 7
M  V30 14 2 13 12
M  V30 15 1 14 1
M  V30 16 1 15 1
M  V30 17 1 16 3
M  V30 18 1 17 3
M  V30 19 1 18 10
M  V30 20 1 19 10
M  V30 21 1 20 10
M  V30 22 1 21 11
M  V30 23 1 22 12
M  V30 24 1 23 13
M  V30 END BOND
M  V30 END CTAB
M  END
>  <i_epik_Tot_Q>  (1) 
0

>  <i_epik_Tot_abs_Q>  (1) 
0

>  <i_i_glide_confnum>  (1) 
5

>  <i_i_glide_lignum>  (1) 
96

>  <i_i_glide_posenum>  (1) 
222

>  <i_i_glide_rotatable_bonds>  (1) 
0

>  <i_lp_mmshare_version>  (1) 
72125

>  <i_m_source_file_index>  (1) 
90

>  <i_f3d_flags>  (1) 
0

>  <num_sample>  (1) 
100

>  <b_lp_Chiralities_Consistent>  (1) 
1

>  <r_epik_Charging_Adjusted_Penalty>  (1) 
0

>  <r_epik_Ionization_Penalty>  (1) 
1.0524661445465699e-15

>  <r_epik_Ionization_Penalty_Charging>  (1) 
0

>  <r_epik_Ionization_Penalty_Neutral>  (1) 
1.0524661445465699e-15

>  <r_epik_State_Penalty>  (1) 
-0

>  <r_glide_ring_energy>  (1) 
1.0462623231480377

>  <r_i_docking_score>  (1) 
-4.9753679388342338

>  <r_i_glide_ecoul>  (1) 
-1.997644927947263

>  <r_i_glide_eff_state_penalty>  (1) 
-0

>  <r_i_glide_einternal>  (1) 
0

>  <r_i_glide_emodel>  (1) 
-25.95395609530383

>  <r_i_glide_emodel_strain>  (1) 
0.7253973615161371

>  <r_i_glide_energy>  (1) 
-20.476482286666293

>  <r_i_glide_erotb>  (1) 
0

>  <r_i_glide_esite>  (1) 
0

>  <r_i_glide_evdw>  (1) 
-18.47883735871903

>  <r_i_glide_gscore>  (1) 
-4.9753679388342338

>  <r_i_glide_gscore_strain>  (1) 
0

>  <r_i_glide_hbond>  (1) 
0

>  <r_i_glide_ligand_efficiency>  (1) 
-0.38272061067955643

>  <r_i_glide_ligand_efficiency_ln>  (1) 
-1.3956349557731171

>  <r_i_glide_ligand_efficiency_sa>  (1) 
-0.89990424759651255

>  <r_i_glide_lipo>  (1) 
-1.0576085636280452

>  <r_i_glide_metal>  (1) 
-0

>  <r_i_glide_rewards>  (1) 
-2.6941707680781461

>  <r_lp_Energy>  (1) 
16.296869999999998

>  <r_lp_tautomer_probability>  (1) 
1

>  <s_epik_Chemistry_Notes>  (1) 
This compound has an ester and may undergo hydrolysis at high or low pH.

>  <s_epik_cmdline>  (1) 
J2VwaWtfcHl0aG9uJywgJy1waHQnLCAnMS4wJywgJy1waCcsICc3LjQnLCAnLXRuJywgJzgnLCAnLW1hJywgJzUwMCcsICctaW1hZScsICc8aW5maWxlLm1hZT4nLCAnLW9tYWUnLCAnPG91dGZpbGUubWFlPic=

>  <s_epik_input>  (1) 
TzFbQ0gyXVtDSDJdT0MoPU8pYyhjMTIpW2NIXVtjSF1bY0hdYzJbQ0gzXQ==

>  <s_glide_docking_method>  (1) 
confgen

>  <s_i_glide_gridfile>  (1) 
gpcr_drd2_6luq_protein_autoprepared_prepared

>  <s_lp_Force_Field>  (1) 
S-OPLS

>  <s_lp_Variant>  (1) 
Pocket2Mol_89-1

>  <s_m_source_file>  (1) 
generated_generic_title2_ligand_Pocket2Mol_2026-06-23_prepared.sdf

>  <GenAI_Model>  (1) 
Pocket2Mol

>  <Protein>  (1) 
generic_title2

$$$$
Pocket2Mol_64
     RDKit          3D

  0  0  0  0  0  0  0  0  0  0999 V3000
M  V30 BEGIN CTAB
M  V30 COUNTS 16 17 0 0 1
M  V30 BEGIN ATOM
M  V30 1 C 8.694236 5.190302 -9.292095 0
M  V30 2 O 9.010431 5.453037 -7.984992 0
M  V30 3 C 9.827388 6.533153 -7.735087 0
M  V30 4 C 10.398709 7.259771 -8.810182 0
M  V30 5 C 11.233302 8.363708 -8.545763 0
M  V30 6 C 10.097198 6.917600 -6.406710 0
M  V30 7 C 10.932758 8.021687 -6.147307 0
M  V30 8 O 10.141441 6.889475 -10.111531 0
M  V30 9 C 9.236907 5.879076 -10.312280 0
M  V30 10 F 11.780092 9.059724 -9.570239 0
M  V30 11 C 11.499884 8.743894 -7.215468 0
M  V30 12 H 7.975344 4.392694 -9.395218 0
M  V30 13 H 9.661583 6.365689 -5.586409 0
M  V30 14 H 11.138379 8.315250 -5.128601 0
M  V30 15 H 9.020087 5.714331 -11.356975 0
M  V30 16 H 12.139480 9.590227 -7.014621 0
M  V30 END ATOM
M  V30 BEGIN BOND
M  V30 1 1 2 1
M  V30 2 1 3 2
M  V30 3 1 4 3
M  V30 4 2 5 4
M  V30 5 2 6 3
M  V30 6 1 7 6
M  V30 7 1 8 4
M  V30 8 2 9 1
M  V30 9 1 9 8
M  V30 10 1 10 5
M  V30 11 1 11 5
M  V30 12 2 11 7
M  V30 13 1 12 1
M  V30 14 1 13 6
M  V30 15 1 14 7
M  V30 16 1 15 9
M  V30 17 1 16 11
M  V30 END BOND
M  V30 END CTAB
M  END
>  <i_epik_Tot_Q>  (1) 
0

>  <i_epik_Tot_abs_Q>  (1) 
0

>  <i_i_glide_confnum>  (1) 
1

>  <i_i_glide_lignum>  (1) 
71

>  <i_i_glide_posenum>  (1) 
152

>  <i_i_glide_rotatable_bonds>  (1) 
0

>  <i_lp_mmshare_version>  (1) 
72125

>  <i_m_source_file_index>  (1) 
65

>  <i_f3d_flags>  (1) 
0

>  <num_sample>  (1) 
100

>  <b_lp_Chiralities_Consistent>  (1) 
1

>  <r_epik_Charging_Adjusted_Penalty>  (1) 
0

>  <r_epik_Ionization_Penalty>  (1) 
0

>  <r_epik_Ionization_Penalty_Charging>  (1) 
0

>  <r_epik_Ionization_Penalty_Neutral>  (1) 
0

>  <r_epik_State_Penalty>  (1) 
-0

>  <r_glide_ring_energy>  (1) 
0

>  <r_i_docking_score>  (1) 
-4.9679041642430635

>  <r_i_glide_ecoul>  (1) 
0.051045069693431921

>  <r_i_glide_eff_state_penalty>  (1) 
-0

>  <r_i_glide_einternal>  (1) 
0

>  <r_i_glide_emodel>  (1) 
-26.34658739737155

>  <r_i_glide_emodel_strain>  (1) 
0

>  <r_i_glide_energy>  (1) 
-19.899018816139556

>  <r_i_glide_erotb>  (1) 
0

>  <r_i_glide_esite>  (1) 
0

>  <r_i_glide_evdw>  (1) 
-19.950063885832989

>  <r_i_glide_gscore>  (1) 
-4.9679041642430635

>  <r_i_glide_gscore_strain>  (1) 
0

>  <r_i_glide_hbond>  (1) 
0

>  <r_i_glide_ligand_efficiency>  (1) 
-0.45162765129482396

>  <r_i_glide_ligand_efficiency_ln>  (1) 
-1.4620533493228285

>  <r_i_glide_ligand_efficiency_sa>  (1) 
-1.0044109048302698

>  <r_i_glide_lipo>  (1) 
-0.90210456349295121

>  <r_i_glide_metal>  (1) 
-0

>  <r_i_glide_rewards>  (1) 
-3.0759531669124778

>  <r_lp_Energy>  (1) 
23.975801000000001

>  <r_lp_tautomer_probability>  (1) 
1

>  <s_epik_cmdline>  (1) 
J2VwaWtfcHl0aG9uJywgJy1waHQnLCAnMS4wJywgJy1waCcsICc3LjQnLCAnLXRuJywgJzgnLCAnLW1hJywgJzUwMCcsICctaW1hZScsICc8aW5maWxlLm1hZT4nLCAnLW9tYWUnLCAnPG91dGZpbGUubWFlPic=

>  <s_epik_input>  (1) 
TzFbQ0hdPVtDSF1PYyhjMTIpYyhGKVtjSF1bY0hdW2NIXTI=

>  <s_glide_docking_method>  (1) 
confgen

>  <s_i_glide_gridfile>  (1) 
gpcr_drd2_6luq_protein_autoprepared_prepared

>  <s_lp_Force_Field>  (1) 
S-OPLS

>  <s_lp_Variant>  (1) 
Pocket2Mol_64-1

>  <s_m_source_file>  (1) 
generated_generic_title2_ligand_Pocket2Mol_2026-06-23_prepared.sdf

>  <GenAI_Model>  (1) 
Pocket2Mol

>  <Protein>  (1) 
generic_title2

$$$$
Pocket2Mol_18
     RDKit          3D

  0  0  0  0  0  0  0  0  0  0999 V3000
M  V30 BEGIN CTAB
M  V30 COUNTS 15 15 0 0 1
M  V30 BEGIN ATOM
M  V30 1 C 11.376541 6.791007 -4.441578 0
M  V30 2 O 10.573683 7.420058 -5.357116 0
M  V30 3 C 11.201586 8.333504 -6.244357 0
M  V30 4 C 11.469899 9.685637 -5.585042 0
M  V30 5 O 12.580751 9.590227 -4.713497 0
M  V30 6 C 12.278587 8.963252 -3.479779 0
M  V30 7 C 12.175410 7.452944 -3.577578 0
M  V30 8 H 11.298106 5.715229 -4.498594 0
M  V30 9 H 10.507126 8.485570 -7.071110 0
M  V30 10 H 12.105093 7.915170 -6.690057 0
M  V30 11 H 10.583610 10.076042 -5.082075 0
M  V30 12 H 11.731236 10.408265 -6.358471 0
M  V30 13 H 11.378104 9.378774 -3.023778 0
M  V30 14 H 13.096936 9.189883 -2.796044 0
M  V30 15 H 12.781480 6.888389 -2.884268 0
M  V30 END ATOM
M  V30 BEGIN BOND
M  V30 1 1 2 1
M  V30 2 1 3 2
M  V30 3 1 4 3
M  V30 4 1 5 4
M  V30 5 1 6 5
M  V30 6 2 7 1
M  V30 7 1 7 6
M  V30 8 1 8 1
M  V30 9 1 9 3
M  V30 10 1 10 3
M  V30 11 1 11 4
M  V30 12 1 12 4
M  V30 13 1 13 6
M  V30 14 1 14 6
M  V30 15 1 15 7
M  V30 END BOND
M  V30 END CTAB
M  END
>  <i_epik_Tot_Q>  (1) 
0

>  <i_epik_Tot_abs_Q>  (1) 
0

>  <i_i_glide_confnum>  (1) 
1

>  <i_i_glide_lignum>  (1) 
21

>  <i_i_glide_posenum>  (1) 
388

>  <i_i_glide_rotatable_bonds>  (1) 
0

>  <i_lp_mmshare_version>  (1) 
72125

>  <i_m_source_file_index>  (1) 
19

>  <i_f3d_flags>  (1) 
0

>  <num_sample>  (1) 
100

>  <b_lp_Chiralities_Consistent>  (1) 
1

>  <r_epik_Charging_Adjusted_Penalty>  (1) 
0

>  <r_epik_Ionization_Penalty>  (1) 
5.6701613537443791e-14

>  <r_epik_Ionization_Penalty_Charging>  (1) 
0

>  <r_epik_Ionization_Penalty_Neutral>  (1) 
5.6701613537443791e-14

>  <r_epik_State_Penalty>  (1) 
-0

>  <r_glide_ring_energy>  (1) 
0

>  <r_i_docking_score>  (1) 
-4.9655391506959825

>  <r_i_glide_ecoul>  (1) 
-0.38313635295118953

>  <r_i_glide_eff_state_penalty>  (1) 
-0

>  <r_i_glide_einternal>  (1) 
0

>  <r_i_glide_emodel>  (1) 
-21.928624713571946

>  <r_i_glide_emodel_strain>  (1) 
0

>  <r_i_glide_energy>  (1) 
-16.74802438037781

>  <r_i_glide_erotb>  (1) 
0

>  <r_i_glide_esite>  (1) 
0

>  <r_i_glide_evdw>  (1) 
-16.36488802742662

>  <r_i_glide_gscore>  (1) 
-4.9655391506959825

>  <r_i_glide_gscore_strain>  (1) 
0

>  <r_i_glide_hbond>  (1) 
0

>  <r_i_glide_ligand_efficiency>  (1) 
-0.70936273581371179

>  <r_i_glide_ligand_efficiency_ln>  (1) 
-1.685570468701606

>  <r_i_glide_ligand_efficiency_sa>  (1) 
-1.3569620972347816

>  <r_i_glide_lipo>  (1) 
-1.5220457369669991

>  <r_i_glide_metal>  (1) 
-0

>  <r_i_glide_rewards>  (1) 
-2.5677785594149749

>  <r_lp_Energy>  (1) 
7.3473319999999998

>  <r_lp_tautomer_probability>  (1) 
1

>  <s_epik_cmdline>  (1) 
J2VwaWtfcHl0aG9uJywgJy1waHQnLCAnMS4wJywgJy1waCcsICc3LjQnLCAnLXRuJywgJzgnLCAnLW1hJywgJzUwMCcsICctaW1hZScsICc8aW5maWxlLm1hZT4nLCAnLW9tYWUnLCAnPG91dGZpbGUubWFlPic=

>  <s_epik_input>  (1) 
W0NIXTE9W0NIXVtDSDJdT1tDSDJdW0NIMl1PMQ==

>  <s_glide_docking_method>  (1) 
confgen

>  <s_i_glide_gridfile>  (1) 
gpcr_drd2_6luq_protein_autoprepared_prepared

>  <s_lp_Force_Field>  (1) 
S-OPLS

>  <s_lp_Variant>  (1) 
Pocket2Mol_18-1

>  <s_m_source_file>  (1) 
generated_generic_title2_ligand_Pocket2Mol_2026-06-23_prepared.sdf

>  <GenAI_Model>  (1) 
Pocket2Mol

>  <Protein>  (1) 
generic_title2

$$$$
Pocket2Mol_91
     RDKit          3D

  0  0  0  0  0  0  0  0  0  0999 V3000
M  V30 BEGIN CTAB
M  V30 COUNTS 22 23 0 0 1
M  V30 BEGIN ATOM
M  V30 1 C 10.580606 6.843857 -5.642412 0
M  V30 2 O 10.772982 8.254660 -5.722206 0
M  V30 3 C 9.444187 6.392593 -6.555562 0
M  V30 4 O 9.134120 7.427795 -7.449817 0
M  V30 5 C 11.602588 8.778311 -6.657142 0
M  V30 6 C 10.103868 7.613876 -8.385038 0
M  V30 7 C 9.893241 7.164947 -9.704119 0
M  V30 8 O 12.493777 9.586550 -6.385038 0
M  V30 9 C 11.326004 8.264225 -8.055858 0
M  V30 10 C 10.888489 7.368480 -10.669756 0
M  V30 11 C 12.287579 8.438766 -9.073827 0
M  V30 12 N 10.731003 6.933924 -11.985505 0
M  V30 13 N 12.037941 7.990210 -10.326974 0 CHG=1
M  V30 14 H 11.504967 6.332018 -5.913166 0
M  V30 15 H 10.364909 6.559955 -4.612358 0
M  V30 16 H 9.702632 5.479257 -7.091552 0
M  V30 17 H 8.544844 6.175777 -5.985197 0
M  V30 18 H 8.975410 6.668605 -9.966114 0
M  V30 19 H 13.245261 8.909045 -8.923209 0
M  V30 20 H 9.895143 6.450151 -12.284061 0
M  V30 21 H 11.455110 7.060852 -12.676960 0
M  V30 22 H 12.751601 8.128417 -11.042165 0
M  V30 END ATOM
M  V30 BEGIN BOND
M  V30 1 1 2 1
M  V30 2 1 3 1
M  V30 3 1 4 3
M  V30 4 1 5 2
M  V30 5 1 6 4
M  V30 6 1 7 6
M  V30 7 2 8 5
M  V30 8 1 9 5
M  V30 9 2 9 6
M  V30 10 2 10 7
M  V30 11 1 11 9
M  V30 12 1 12 10
M  V30 13 1 13 10
M  V30 14 2 13 11
M  V30 15 1 14 1
M  V30 16 1 15 1
M  V30 17 1 16 3
M  V30 18 1 17 3
M  V30 19 1 18 7
M  V30 20 1 19 11
M  V30 21 1 20 12
M  V30 22 1 21 12
M  V30 23 1 22 13
M  V30 END BOND
M  V30 END CTAB
M  END
>  <i_epik_Tot_Q>  (1) 
1

>  <i_epik_Tot_abs_Q>  (1) 
1

>  <i_i_glide_confnum>  (1) 
1

>  <i_i_glide_lignum>  (1) 
98

>  <i_i_glide_posenum>  (1) 
254

>  <i_i_glide_rotatable_bonds>  (1) 
0

>  <i_lp_mmshare_version>  (1) 
72125

>  <i_m_source_file_index>  (1) 
92

>  <i_f3d_flags>  (1) 
0

>  <num_sample>  (1) 
100

>  <b_lp_Chiralities_Consistent>  (1) 
1

>  <r_epik_Charging_Adjusted_Penalty>  (1) 
0.71045643263358682

>  <r_epik_Ionization_Penalty>  (1) 
0.3552545589029974

>  <r_epik_Ionization_Penalty_Charging>  (1) 
0.35522821631679397

>  <r_epik_Ionization_Penalty_Neutral>  (1) 
2.6342586203446271e-05

>  <r_epik_State_Penalty>  (1) 
0.35522821631679286

>  <r_glide_ring_energy>  (1) 
0

>  <r_i_docking_score>  (1) 
-4.9648582109635857

>  <r_i_glide_ecoul>  (1) 
-4.0881156986156153

>  <r_i_glide_eff_state_penalty>  (1) 
0.35522821631679286

>  <r_i_glide_einternal>  (1) 
0

>  <r_i_glide_emodel>  (1) 
-33.026996935629484

>  <r_i_glide_emodel_strain>  (1) 
0

>  <r_i_glide_energy>  (1) 
-22.493520553070979

>  <r_i_glide_erotb>  (1) 
0

>  <r_i_glide_esite>  (1) 
0

>  <r_i_glide_evdw>  (1) 
-18.405404854455362

>  <r_i_glide_gscore>  (1) 
-5.3200864272803789

>  <r_i_glide_gscore_strain>  (1) 
0

>  <r_i_glide_hbond>  (1) 
0

>  <r_i_glide_ligand_efficiency>  (1) 
-0.38191217007412198

>  <r_i_glide_ligand_efficiency_ln>  (1) 
-1.3926868836360891

>  <r_i_glide_ligand_efficiency_sa>  (1) 
-0.89800333315799252

>  <r_i_glide_lipo>  (1) 
-0.80801736018984893

>  <r_i_glide_metal>  (1) 
-0

>  <r_i_glide_rewards>  (1) 
-2.9785814695754205

>  <r_lp_Energy>  (1) 
16.247630000000001

>  <s_epik_Chemistry_Notes>  (1) 
This compound has an ester and may undergo hydrolysis at high or low pH.

>  <s_epik_cmdline>  (1) 
J2VwaWtfcHl0aG9uJywgJy1waHQnLCAnMS4wJywgJy1waCcsICc3LjQnLCAnLXRuJywgJzgnLCAnLW1hJywgJzUwMCcsICctaW1hZScsICc8aW5maWxlLm1hZT4nLCAnLW9tYWUnLCAnPG91dGZpbGUubWFlPic=

>  <s_epik_input>  (1) 
TzFbQ0gyXVtDSDJdT0MoPU8pYyhjMTIpW2NIXW5jKFtjSF0yKVtOSDJd

>  <s_glide_docking_method>  (1) 
confgen

>  <s_i_glide_gridfile>  (1) 
gpcr_drd2_6luq_protein_autoprepared_prepared

>  <s_lp_Force_Field>  (1) 
S-OPLS

>  <s_lp_Variant>  (1) 
Pocket2Mol_91-1

>  <s_m_source_file>  (1) 
generated_generic_title2_ligand_Pocket2Mol_2026-06-23_prepared.sdf

>  <GenAI_Model>  (1) 
Pocket2Mol

>  <Protein>  (1) 
generic_title2

$$$$
Pocket2Mol_31
     RDKit          3D

  0  0  0  0  0  0  0  0  0  0999 V3000
M  V30 BEGIN CTAB
M  V30 COUNTS 20 21 0 0 1
M  V30 BEGIN ATOM
M  V30 1 C 12.167192 9.581690 -6.286802 0
M  V30 2 O 10.793103 9.389883 -5.962300 0
M  V30 3 C 10.338178 8.119957 -6.433984 0 CFG=2
M  V30 4 C 8.881604 8.191155 -6.824348 0
M  V30 5 C 10.849708 6.962678 -5.559390 0
M  V30 6 C 12.375353 8.790227 -7.580042 0
M  V30 7 C 11.512092 6.374679 -6.803546 0
M  V30 8 C 11.325519 7.720933 -7.523019 0 CFG=1
M  V30 9 H 12.396910 10.641988 -6.385022 0
M  V30 10 H 12.785410 9.190227 -5.479555 0
M  V30 11 H 8.575410 7.235335 -7.246580 0
M  V30 12 H 8.709721 8.953020 -7.585025 0
M  V30 13 H 8.229916 8.413214 -5.985025 0
M  V30 14 H 11.564763 7.265814 -4.794152 0
M  V30 15 H 10.061956 6.336691 -5.139685 0
M  V30 16 H 12.175410 9.427843 -8.442236 0
M  V30 17 H 13.380447 8.391642 -7.679335 0
M  V30 18 H 12.538492 6.034718 -6.677410 0
M  V30 19 H 10.903121 5.590226 -7.253999 0
M  V30 20 H 10.840971 7.563446 -8.488187 0
M  V30 END ATOM
M  V30 BEGIN BOND
M  V30 1 1 2 1
M  V30 2 1 3 2
M  V30 3 1 3 4 CFG=3
M  V30 4 1 5 3
M  V30 5 1 6 1
M  V30 6 1 7 5
M  V30 7 1 8 3
M  V30 8 1 8 6
M  V30 9 1 8 7
M  V30 10 1 9 1
M  V30 11 1 10 1
M  V30 12 1 11 4
M  V30 13 1 12 4
M  V30 14 1 13 4
M  V30 15 1 14 5
M  V30 16 1 15 5
M  V30 17 1 16 6
M  V30 18 1 17 6
M  V30 19 1 18 7
M  V30 20 1 19 7
M  V30 21 1 8 20 CFG=3
M  V30 END BOND
M  V30 END CTAB
M  END
>  <i_epik_Tot_Q>  (1) 
0

>  <i_epik_Tot_abs_Q>  (1) 
0

>  <i_i_glide_confnum>  (1) 
1

>  <i_i_glide_lignum>  (1) 
35

>  <i_i_glide_posenum>  (1) 
256

>  <i_i_glide_rotatable_bonds>  (1) 
0

>  <i_lp_mmshare_version>  (1) 
72125

>  <i_m_source_file_index>  (1) 
32

>  <i_f3d_flags>  (1) 
0

>  <num_sample>  (1) 
100

>  <b_lp_Chiralities_Consistent>  (1) 
1

>  <r_epik_Charging_Adjusted_Penalty>  (1) 
0

>  <r_epik_Ionization_Penalty>  (1) 
2.3587344998035955e-11

>  <r_epik_Ionization_Penalty_Charging>  (1) 
0

>  <r_epik_Ionization_Penalty_Neutral>  (1) 
2.3587344998035955e-11

>  <r_epik_State_Penalty>  (1) 
-0

>  <r_glide_ring_energy>  (1) 
0

>  <r_i_docking_score>  (1) 
-4.9564411424937687

>  <r_i_glide_ecoul>  (1) 
-0.84800464727213587

>  <r_i_glide_eff_state_penalty>  (1) 
-0

>  <r_i_glide_einternal>  (1) 
0

>  <r_i_glide_emodel>  (1) 
-19.37566639330749

>  <r_i_glide_emodel_strain>  (1) 
0

>  <r_i_glide_energy>  (1) 
-14.814171797138966

>  <r_i_glide_erotb>  (1) 
0

>  <r_i_glide_esite>  (1) 
0

>  <r_i_glide_evdw>  (1) 
-13.96616714986683

>  <r_i_glide_gscore>  (1) 
-4.9564411424937687

>  <r_i_glide_gscore_strain>  (1) 
0

>  <r_i_glide_hbond>  (1) 
0

>  <r_i_glide_ligand_efficiency>  (1) 
-0.61955514281172108

>  <r_i_glide_ligand_efficiency_ln>  (1) 
-1.6095259726184084

>  <r_i_glide_ligand_efficiency_sa>  (1) 
-1.2391102856234424

>  <r_i_glide_lipo>  (1) 
-1.424708584158904

>  <r_i_glide_metal>  (1) 
-0

>  <r_i_glide_rewards>  (1) 
-2.706223503750703

>  <r_lp_Energy>  (1) 
15.613807

>  <r_lp_tautomer_probability>  (1) 
1

>  <s_epik_cmdline>  (1) 
J2VwaWtfcHl0aG9uJywgJy1waHQnLCAnMS4wJywgJy1waCcsICc3LjQnLCAnLXRuJywgJzgnLCAnLW1hJywgJzUwMCcsICctaW1hZScsICc8aW5maWxlLm1hZT4nLCAnLW9tYWUnLCAnPG91dGZpbGUubWFlPic=

>  <s_epik_input>  (1) 
TzFbQ0gyXVtDSDJdW0NASF0oW0NAXTEyW0NIM10pW0NIMl1bQ0gyXTI=

>  <s_glide_docking_method>  (1) 
confgen

>  <s_i_glide_gridfile>  (1) 
gpcr_drd2_6luq_protein_autoprepared_prepared

>  <s_lp_Force_Field>  (1) 
S-OPLS

>  <s_lp_Variant>  (1) 
Pocket2Mol_31-1

>  <s_m_source_file>  (1) 
generated_generic_title2_ligand_Pocket2Mol_2026-06-23_prepared.sdf

>  <GenAI_Model>  (1) 
Pocket2Mol

>  <Protein>  (1) 
generic_title2

$$$$
Pocket2Mol_98
     RDKit          3D

  0  0  0  0  0  0  0  0  0  0999 V3000
M  V30 BEGIN CTAB
M  V30 COUNTS 24 25 0 0 1
M  V30 BEGIN ATOM
M  V30 1 C 12.447127 8.434002 -2.019214 0
M  V30 2 O 12.327967 9.537380 -2.994755 0
M  V30 3 C 11.915578 8.889429 -4.103836 0
M  V30 4 C 11.775410 7.554613 -3.984356 0
M  V30 5 C 11.339483 6.761136 -5.055778 0
M  V30 6 C 12.107759 7.012584 -2.661497 0
M  V30 7 C 11.041907 7.371420 -6.298486 0
M  V30 8 N 10.609925 6.501788 -7.389633 0
M  V30 9 C 11.646880 9.544399 -5.313311 0
M  V30 10 C 11.213354 8.790426 -6.427129 0
M  V30 11 C 10.059254 6.846368 -8.596922 0
M  V30 12 O 9.775410 5.990240 -9.429333 0
M  V30 13 C 9.775412 8.308749 -8.922137 0
M  V30 14 H 13.454633 8.436997 -1.606852 0
M  V30 15 H 11.775366 8.638170 -1.185241 0
M  V30 16 H 11.232542 5.693400 -4.932387 0
M  V30 17 H 11.256239 6.518300 -2.192262 0
M  V30 18 H 12.970620 6.348342 -2.700850 0
M  V30 19 H 11.775413 10.613511 -5.395031 0
M  V30 20 H 11.040629 9.297810 -7.337380 0
M  V30 21 H 10.670558 8.843301 -9.239390 0
M  V30 22 H 9.126178 8.335080 -9.797928 0
M  V30 23 H 9.202374 8.810958 -8.142197 0
M  V30 24 H 10.708149 5.512371 -7.219382 0
M  V30 END ATOM
M  V30 BEGIN BOND
M  V30 1 1 2 1
M  V30 2 1 3 2
M  V30 3 2 4 3
M  V30 4 1 5 4
M  V30 5 1 6 1
M  V30 6 1 6 4
M  V30 7 2 7 5
M  V30 8 1 8 7
M  V30 9 1 9 3
M  V30 10 1 10 7
M  V30 11 2 10 9
M  V30 12 1 11 8
M  V30 13 2 12 11
M  V30 14 1 13 11
M  V30 15 1 14 1
M  V30 16 1 15 1
M  V30 17 1 16 5
M  V30 18 1 17 6
M  V30 19 1 18 6
M  V30 20 1 19 9
M  V30 21 1 20 10
M  V30 22 1 21 13
M  V30 23 1 22 13
M  V30 24 1 23 13
M  V30 25 1 24 8
M  V30 END BOND
M  V30 END CTAB
M  END
>  <i_epik_Tot_Q>  (1) 
0

>  <i_epik_Tot_abs_Q>  (1) 
0

>  <i_i_glide_confnum>  (1) 
1

>  <i_i_glide_lignum>  (1) 
107

>  <i_i_glide_posenum>  (1) 
257

>  <i_i_glide_rotatable_bonds>  (1) 
2

>  <i_lp_mmshare_version>  (1) 
72125

>  <i_m_source_file_index>  (1) 
99

>  <i_f3d_flags>  (1) 
0

>  <num_sample>  (1) 
100

>  <b_lp_Chiralities_Consistent>  (1) 
1

>  <r_epik_Charging_Adjusted_Penalty>  (1) 
0

>  <r_epik_Ionization_Penalty>  (1) 
1.4103773659367358e-07

>  <r_epik_Ionization_Penalty_Charging>  (1) 
0

>  <r_epik_Ionization_Penalty_Neutral>  (1) 
1.4103773659367358e-07

>  <r_epik_State_Penalty>  (1) 
-0

>  <r_glide_ring_energy>  (1) 
0

>  <r_i_docking_score>  (1) 
-4.955885935548423

>  <r_i_glide_ecoul>  (1) 
-0.19832831914636451

>  <r_i_glide_eff_state_penalty>  (1) 
-0

>  <r_i_glide_einternal>  (1) 
3.6668098902975697

>  <r_i_glide_emodel>  (1) 
-33.811281531917302

>  <r_i_glide_emodel_strain>  (1) 
0

>  <r_i_glide_energy>  (1) 
-27.914542211482889

>  <r_i_glide_erotb>  (1) 
0

>  <r_i_glide_esite>  (1) 
-0.062003400504016808

>  <r_i_glide_evdw>  (1) 
-27.716213892336526

>  <r_i_glide_gscore>  (1) 
-4.955885935548423

>  <r_i_glide_gscore_strain>  (1) 
0

>  <r_i_glide_hbond>  (1) 
0

>  <r_i_glide_ligand_efficiency>  (1) 
-0.3812219950421864

>  <r_i_glide_ligand_efficiency_ln>  (1) 
-1.3901700805863113

>  <r_i_glide_ligand_efficiency_sa>  (1) 
-0.89638050066480368

>  <r_i_glide_lipo>  (1) 
-2.2729201000214232

>  <r_i_glide_metal>  (1) 
-0

>  <r_i_glide_rewards>  (1) 
-1.2054024925342011

>  <r_lp_Energy>  (1) 
14.229996

>  <r_lp_tautomer_probability>  (1) 
1

>  <s_epik_cmdline>  (1) 
J2VwaWtfcHl0aG9uJywgJy1waHQnLCAnMS4wJywgJy1waCcsICc3LjQnLCAnLXRuJywgJzgnLCAnLW1hJywgJzUwMCcsICctaW1hZScsICc8aW5maWxlLm1hZT4nLCAnLW9tYWUnLCAnPG91dGZpbGUubWFlPic=

>  <s_epik_input>  (1) 
TzFbQ0gyXVtDSDJdYyhjMTIpW2NIXWMoW2NIXVtjSF0yKS9OPUMoXFtPSF0pW0NIM10=

>  <s_glide_docking_method>  (1) 
confgen

>  <s_i_glide_gridfile>  (1) 
gpcr_drd2_6luq_protein_autoprepared_prepared

>  <s_lp_Force_Field>  (1) 
S-OPLS

>  <s_lp_Variant>  (1) 
Pocket2Mol_98-1

>  <s_m_source_file>  (1) 
generated_generic_title2_ligand_Pocket2Mol_2026-06-23_prepared.sdf

>  <GenAI_Model>  (1) 
Pocket2Mol

>  <Protein>  (1) 
generic_title2

$$$$
Pocket2Mol_94
     RDKit          3D

  0  0  0  0  0  0  0  0  0  0999 V3000
M  V30 BEGIN CTAB
M  V30 COUNTS 24 25 0 0 1
M  V30 BEGIN ATOM
M  V30 1 C 12.446741 8.438473 -2.020314 0
M  V30 2 O 12.328088 9.540920 -2.996986 0
M  V30 3 C 11.915635 8.891872 -4.105378 0
M  V30 4 C 11.775410 7.557062 -3.984642 0
M  V30 5 C 11.339539 6.762572 -5.055613 0
M  V30 6 C 12.107767 7.016215 -2.661213 0
M  V30 7 C 11.647060 9.545581 -5.315477 0
M  V30 8 C 11.042314 7.371889 -6.298803 0
M  V30 9 N 10.610358 6.501835 -7.389512 0
M  V30 10 C 11.213999 8.790395 -6.428578 0
M  V30 11 C 10.059384 6.846253 -8.596879 0
M  V30 12 C 9.775412 8.308396 -8.922308 0
M  V30 13 O 9.775400 5.990228 -9.429083 0
M  V30 14 H 13.454058 8.441486 -1.607687 0
M  V30 15 H 11.775413 8.643955 -1.186376 0
M  V30 16 H 11.232468 5.695002 -4.931598 0
M  V30 17 H 11.257083 6.521311 -2.191015 0
M  V30 18 H 12.971060 6.352509 -2.700545 0
M  V30 19 H 11.775410 10.614697 -5.398360 0
M  V30 20 H 10.708615 5.512509 -7.218910 0
M  V30 21 H 11.041810 9.296633 -7.339261 0
M  V30 22 H 10.670434 8.842262 -9.241407 0
M  V30 23 H 9.124195 8.334194 -9.796663 0
M  V30 24 H 9.203425 8.810818 -8.141734 0
M  V30 END ATOM
M  V30 BEGIN BOND
M  V30 1 1 2 1
M  V30 2 1 3 2
M  V30 3 2 4 3
M  V30 4 1 5 4
M  V30 5 1 6 1
M  V30 6 1 6 4
M  V30 7 1 7 3
M  V30 8 2 8 5
M  V30 9 1 9 8
M  V30 10 2 10 7
M  V30 11 1 10 8
M  V30 12 1 11 9
M  V30 13 1 12 11
M  V30 14 2 13 11
M  V30 15 1 14 1
M  V30 16 1 15 1
M  V30 17 1 16 5
M  V30 18 1 17 6
M  V30 19 1 18 6
M  V30 20 1 19 7
M  V30 21 1 20 9
M  V30 22 1 21 10
M  V30 23 1 22 12
M  V30 24 1 23 12
M  V30 25 1 24 12
M  V30 END BOND
M  V30 END CTAB
M  END
>  <i_epik_Tot_Q>  (1) 
0

>  <i_epik_Tot_abs_Q>  (1) 
0

>  <i_i_glide_confnum>  (1) 
1

>  <i_i_glide_lignum>  (1) 
103

>  <i_i_glide_posenum>  (1) 
162

>  <i_i_glide_rotatable_bonds>  (1) 
2

>  <i_lp_mmshare_version>  (1) 
72125

>  <i_m_source_file_index>  (1) 
95

>  <i_f3d_flags>  (1) 
0

>  <num_sample>  (1) 
100

>  <b_lp_Chiralities_Consistent>  (1) 
1

>  <r_epik_Charging_Adjusted_Penalty>  (1) 
0

>  <r_epik_Ionization_Penalty>  (1) 
1.4103773659367358e-07

>  <r_epik_Ionization_Penalty_Charging>  (1) 
0

>  <r_epik_Ionization_Penalty_Neutral>  (1) 
1.4103773659367358e-07

>  <r_epik_State_Penalty>  (1) 
-0

>  <r_glide_ring_energy>  (1) 
0

>  <r_i_docking_score>  (1) 
-4.9554187580533799

>  <r_i_glide_ecoul>  (1) 
-0.20311108317351867

>  <r_i_glide_eff_state_penalty>  (1) 
-0

>  <r_i_glide_einternal>  (1) 
3.5241990252803328

>  <r_i_glide_emodel>  (1) 
-33.866847479604097

>  <r_i_glide_emodel_strain>  (1) 
0

>  <r_i_glide_energy>  (1) 
-27.914803675079661

>  <r_i_glide_erotb>  (1) 
0

>  <r_i_glide_esite>  (1) 
-0.06199032404590063

>  <r_i_glide_evdw>  (1) 
-27.711692591906143

>  <r_i_glide_gscore>  (1) 
-4.9554187580533799

>  <r_i_glide_gscore_strain>  (1) 
0

>  <r_i_glide_hbond>  (1) 
0

>  <r_i_glide_ligand_efficiency>  (1) 
-0.38118605831179847

>  <r_i_glide_ligand_efficiency_ln>  (1) 
-1.3900390331440622

>  <r_i_glide_ligand_efficiency_sa>  (1) 
-0.89629600138407928

>  <r_i_glide_lipo>  (1) 
-2.2719614910295665

>  <r_i_glide_metal>  (1) 
-0

>  <r_i_glide_rewards>  (1) 
-1.2054156509065774

>  <r_lp_Energy>  (1) 
14.229996

>  <r_lp_tautomer_probability>  (1) 
1

>  <s_epik_cmdline>  (1) 
J2VwaWtfcHl0aG9uJywgJy1waHQnLCAnMS4wJywgJy1waCcsICc3LjQnLCAnLXRuJywgJzgnLCAnLW1hJywgJzUwMCcsICctaW1hZScsICc8aW5maWxlLm1hZT4nLCAnLW9tYWUnLCAnPG91dGZpbGUubWFlPic=

>  <s_epik_input>  (1) 
TzFbQ0gyXVtDSDJdYyhjMTIpW2NIXWMoW2NIXVtjSF0yKVtOSF1DKD1PKVtDSDNd

>  <s_glide_docking_method>  (1) 
confgen

>  <s_i_glide_gridfile>  (1) 
gpcr_drd2_6luq_protein_autoprepared_prepared

>  <s_lp_Force_Field>  (1) 
S-OPLS

>  <s_lp_Variant>  (1) 
Pocket2Mol_94-1

>  <s_m_source_file>  (1) 
generated_generic_title2_ligand_Pocket2Mol_2026-06-23_prepared.sdf

>  <GenAI_Model>  (1) 
Pocket2Mol

>  <Protein>  (1) 
generic_title2

$$$$
Pocket2Mol_17
     RDKit          3D

  0  0  0  0  0  0  0  0  0  0999 V3000
M  V30 BEGIN CTAB
M  V30 COUNTS 12 12 0 0 1
M  V30 BEGIN ATOM
M  V30 1 N 11.556895 6.602204 -3.984912 0
M  V30 2 C 10.975417 6.855260 -5.214225 0
M  V30 3 C 10.975410 8.070062 -5.801780 0
M  V30 4 C 11.628641 9.209487 -5.102156 0
M  V30 5 O 11.657150 10.339178 -5.585029 0
M  V30 6 C 12.175413 7.637995 -3.307284 0
M  V30 7 C 12.244395 8.899827 -3.781025 0
M  V30 8 H 10.515690 5.990288 -5.670492 0
M  V30 9 H 10.511834 8.236489 -6.763375 0
M  V30 10 H 11.522530 5.673023 -3.583604 0
M  V30 11 H 12.601812 7.350719 -2.357067 0
M  V30 12 H 12.733690 9.687984 -3.228528 0
M  V30 END ATOM
M  V30 BEGIN BOND
M  V30 1 1 2 1
M  V30 2 2 3 2
M  V30 3 1 4 3
M  V30 4 2 5 4
M  V30 5 1 6 1
M  V30 6 1 7 4
M  V30 7 2 7 6
M  V30 8 1 8 2
M  V30 9 1 9 3
M  V30 10 1 10 1
M  V30 11 1 11 6
M  V30 12 1 12 7
M  V30 END BOND
M  V30 END CTAB
M  END
>  <i_epik_Tot_Q>  (1) 
0

>  <i_epik_Tot_abs_Q>  (1) 
0

>  <i_i_glide_confnum>  (1) 
1

>  <i_i_glide_lignum>  (1) 
20

>  <i_i_glide_posenum>  (1) 
37

>  <i_i_glide_rotatable_bonds>  (1) 
0

>  <i_lp_mmshare_version>  (1) 
72125

>  <i_m_source_file_index>  (1) 
18

>  <i_f3d_flags>  (1) 
0

>  <num_sample>  (1) 
100

>  <b_lp_Chiralities_Consistent>  (1) 
1

>  <r_epik_Charging_Adjusted_Penalty>  (1) 
0.00011828912318149299

>  <r_epik_Ionization_Penalty>  (1) 
0.00011828912318149299

>  <r_epik_Ionization_Penalty_Charging>  (1) 
0.00011828912318149299

>  <r_epik_Ionization_Penalty_Neutral>  (1) 
0

>  <r_epik_State_Penalty>  (1) 
-0

>  <r_glide_ring_energy>  (1) 
0

>  <r_i_docking_score>  (1) 
-4.9514243182964606

>  <r_i_glide_ecoul>  (1) 
-1.8266154947176356

>  <r_i_glide_eff_state_penalty>  (1) 
-0

>  <r_i_glide_einternal>  (1) 
0

>  <r_i_glide_emodel>  (1) 
-25.566612765330611

>  <r_i_glide_emodel_strain>  (1) 
1.4908785317402362e-10

>  <r_i_glide_energy>  (1) 
-19.418019043042218

>  <r_i_glide_erotb>  (1) 
0

>  <r_i_glide_esite>  (1) 
0

>  <r_i_glide_evdw>  (1) 
-17.591403548324582

>  <r_i_glide_gscore>  (1) 
-4.9514243182964606

>  <r_i_glide_gscore_strain>  (1) 
0

>  <r_i_glide_hbond>  (1) 
0

>  <r_i_glide_ligand_efficiency>  (1) 
-0.70734633118520862

>  <r_i_glide_ligand_efficiency_ln>  (1) 
-1.6807791370976708

>  <r_i_glide_ligand_efficiency_sa>  (1) 
-1.3531048539438313

>  <r_i_glide_lipo>  (1) 
-1.5478618166725859

>  <r_i_glide_metal>  (1) 
-0

>  <r_i_glide_rewards>  (1) 
-2.25

>  <r_lp_Energy>  (1) 
8.1847359999999991

>  <r_lp_tautomer_probability>  (1) 
1

>  <s_epik_cmdline>  (1) 
J2VwaWtfcHl0aG9uJywgJy1waHQnLCAnMS4wJywgJy1waCcsICc3LjQnLCAnLXRuJywgJzgnLCAnLW1hJywgJzUwMCcsICctaW1hZScsICc8aW5maWxlLm1hZT4nLCAnLW9tYWUnLCAnPG91dGZpbGUubWFlPic=

>  <s_epik_input>  (1) 
W2NIXTFbY0hdbltjSF1bY0hdYzFbT0hd

>  <s_glide_docking_method>  (1) 
confgen

>  <s_i_glide_gridfile>  (1) 
gpcr_drd2_6luq_protein_autoprepared_prepared

>  <s_lp_Force_Field>  (1) 
S-OPLS

>  <s_lp_Variant>  (1) 
Pocket2Mol_17-1

>  <s_m_source_file>  (1) 
generated_generic_title2_ligand_Pocket2Mol_2026-06-23_prepared.sdf

>  <GenAI_Model>  (1) 
Pocket2Mol

>  <Protein>  (1) 
generic_title2

$$$$
Pocket2Mol_18
     RDKit          3D

  0  0  0  0  0  0  0  0  0  0999 V3000
M  V30 BEGIN CTAB
M  V30 COUNTS 15 15 0 0 1
M  V30 BEGIN ATOM
M  V30 1 C 12.233353 8.700253 -3.409706 0
M  V30 2 O 11.375334 9.755865 -4.078284 0
M  V30 3 C 11.486894 9.757363 -5.611307 0
M  V30 4 C 10.745116 8.598314 -6.296006 0
M  V30 5 O 11.375410 7.215566 -6.065403 0
M  V30 6 C 11.241147 6.696604 -4.624825 0
M  V30 7 C 12.175410 7.379238 -3.645708 0
M  V30 8 H 12.933627 9.062509 -2.671609 0
M  V30 9 H 12.533781 9.769926 -5.914570 0
M  V30 10 H 11.062476 10.691274 -5.979791 0
M  V30 11 H 10.733143 8.790509 -7.368861 0
M  V30 12 H 9.699560 8.589156 -5.988065 0
M  V30 13 H 11.474453 5.631988 -4.608671 0
M  V30 14 H 10.213950 6.787361 -4.271652 0
M  V30 15 H 12.831152 6.726185 -3.088999 0
M  V30 END ATOM
M  V30 BEGIN BOND
M  V30 1 1 2 1
M  V30 2 1 3 2
M  V30 3 1 4 3
M  V30 4 1 5 4
M  V30 5 1 6 5
M  V30 6 2 7 1
M  V30 7 1 7 6
M  V30 8 1 8 1
M  V30 9 1 9 3
M  V30 10 1 10 3
M  V30 11 1 11 4
M  V30 12 1 12 4
M  V30 13 1 13 6
M  V30 14 1 14 6
M  V30 15 1 15 7
M  V30 END BOND
M  V30 END CTAB
M  END
>  <i_epik_Tot_Q>  (1) 
0

>  <i_epik_Tot_abs_Q>  (1) 
0

>  <i_i_glide_confnum>  (1) 
2

>  <i_i_glide_lignum>  (1) 
21

>  <i_i_glide_posenum>  (1) 
277

>  <i_i_glide_rotatable_bonds>  (1) 
0

>  <i_lp_mmshare_version>  (1) 
72125

>  <i_m_source_file_index>  (1) 
19

>  <i_f3d_flags>  (1) 
0

>  <num_sample>  (1) 
100

>  <b_lp_Chiralities_Consistent>  (1) 
1

>  <r_epik_Charging_Adjusted_Penalty>  (1) 
0

>  <r_epik_Ionization_Penalty>  (1) 
5.6701613537443791e-14

>  <r_epik_Ionization_Penalty_Charging>  (1) 
0

>  <r_epik_Ionization_Penalty_Neutral>  (1) 
5.6701613537443791e-14

>  <r_epik_State_Penalty>  (1) 
-0

>  <r_glide_ring_energy>  (1) 
0.00079047383587571227

>  <r_i_docking_score>  (1) 
-4.9410308494317219

>  <r_i_glide_ecoul>  (1) 
-0.8194133676538411

>  <r_i_glide_eff_state_penalty>  (1) 
-0

>  <r_i_glide_einternal>  (1) 
0

>  <r_i_glide_emodel>  (1) 
-21.083355502962466

>  <r_i_glide_emodel_strain>  (1) 
0

>  <r_i_glide_energy>  (1) 
-15.928324943732926

>  <r_i_glide_erotb>  (1) 
0

>  <r_i_glide_esite>  (1) 
0

>  <r_i_glide_evdw>  (1) 
-15.108911576079086

>  <r_i_glide_gscore>  (1) 
-4.9410308494317219

>  <r_i_glide_gscore_strain>  (1) 
0

>  <r_i_glide_hbond>  (1) 
0

>  <r_i_glide_ligand_efficiency>  (1) 
-0.70586154991881744

>  <r_i_glide_ligand_efficiency_ln>  (1) 
-1.677251035988385

>  <r_i_glide_ligand_efficiency_sa>  (1) 
-1.3502645695597553

>  <r_i_glide_lipo>  (1) 
-1.5944514944601145

>  <r_i_glide_metal>  (1) 
-0

>  <r_i_glide_rewards>  (1) 
-2.4682217710195768

>  <r_lp_Energy>  (1) 
7.3473319999999998

>  <r_lp_tautomer_probability>  (1) 
1

>  <s_epik_cmdline>  (1) 
J2VwaWtfcHl0aG9uJywgJy1waHQnLCAnMS4wJywgJy1waCcsICc3LjQnLCAnLXRuJywgJzgnLCAnLW1hJywgJzUwMCcsICctaW1hZScsICc8aW5maWxlLm1hZT4nLCAnLW9tYWUnLCAnPG91dGZpbGUubWFlPic=

>  <s_epik_input>  (1) 
W0NIXTE9W0NIXVtDSDJdT1tDSDJdW0NIMl1PMQ==

>  <s_glide_docking_method>  (1) 
confgen

>  <s_i_glide_gridfile>  (1) 
gpcr_drd2_6luq_protein_autoprepared_prepared

>  <s_lp_Force_Field>  (1) 
S-OPLS

>  <s_lp_Variant>  (1) 
Pocket2Mol_18-1

>  <s_m_source_file>  (1) 
generated_generic_title2_ligand_Pocket2Mol_2026-06-23_prepared.sdf

>  <GenAI_Model>  (1) 
Pocket2Mol

>  <Protein>  (1) 
generic_title2

$$$$
Pocket2Mol_85
     RDKit          3D

  0  0  0  0  0  0  0  0  0  0999 V3000
M  V30 BEGIN CTAB
M  V30 COUNTS 22 23 0 0 1
M  V30 BEGIN ATOM
M  V30 1 C 11.712344 8.462762 -4.412378 0
M  V30 2 O 12.445392 9.190324 -5.378686 0
M  V30 3 C 11.075413 7.173438 -4.972595 0
M  V30 4 O 9.996629 7.431271 -5.863810 0
M  V30 5 C 11.628957 9.769788 -6.377930 0
M  V30 6 C 10.387253 7.691492 -7.150773 0
M  V30 7 C 9.983266 6.866621 -8.214615 0
M  V30 8 C 11.193617 8.788832 -7.456537 0
M  V30 9 C 9.086317 5.670094 -7.976669 0
M  V30 10 N 10.362679 7.085549 -9.500417 0
M  V30 11 N 11.171370 8.124037 -9.790088 0
M  V30 12 C 11.563801 8.966892 -8.801420 0
M  V30 13 H 12.404052 8.198315 -3.612591 0
M  V30 14 H 10.975423 9.128897 -3.972971 0
M  V30 15 H 11.817733 6.530484 -5.444910 0
M  V30 16 H 10.673185 6.586171 -4.146896 0
M  V30 17 H 10.739702 10.219918 -5.934670 0
M  V30 18 H 12.174888 10.610239 -6.785025 0
M  V30 19 H 8.573371 5.728051 -7.016899 0
M  V30 20 H 9.677030 4.756965 -8.003881 0
M  V30 21 H 8.322120 5.614234 -8.753155 0
M  V30 22 H 12.174632 9.801972 -9.101018 0
M  V30 END ATOM
M  V30 BEGIN BOND
M  V30 1 1 2 1
M  V30 2 1 3 1
M  V30 3 1 4 3
M  V30 4 1 5 2
M  V30 5 1 6 4
M  V30 6 1 7 6
M  V30 7 1 8 5
M  V30 8 2 8 6
M  V30 9 1 9 7
M  V30 10 2 10 7
M  V30 11 1 11 10
M  V30 12 1 12 8
M  V30 13 2 12 11
M  V30 14 1 13 1
M  V30 15 1 14 1
M  V30 16 1 15 3
M  V30 17 1 16 3
M  V30 18 1 17 5
M  V30 19 1 18 5
M  V30 20 1 19 9
M  V30 21 1 20 9
M  V30 22 1 21 9
M  V30 23 1 22 12
M  V30 END BOND
M  V30 END CTAB
M  END
>  <i_epik_Tot_Q>  (1) 
0

>  <i_epik_Tot_abs_Q>  (1) 
0

>  <i_i_glide_confnum>  (1) 
1

>  <i_i_glide_lignum>  (1) 
92

>  <i_i_glide_posenum>  (1) 
198

>  <i_i_glide_rotatable_bonds>  (1) 
0

>  <i_lp_mmshare_version>  (1) 
72125

>  <i_m_source_file_index>  (1) 
86

>  <i_f3d_flags>  (1) 
0

>  <num_sample>  (1) 
100

>  <b_lp_Chiralities_Consistent>  (1) 
1

>  <r_epik_Charging_Adjusted_Penalty>  (1) 
0.0091269655628041547

>  <r_epik_Ionization_Penalty>  (1) 
0.0091374853106045584

>  <r_epik_Ionization_Penalty_Charging>  (1) 
0

>  <r_epik_Ionization_Penalty_Neutral>  (1) 
0.0091374853106045584

>  <r_epik_State_Penalty>  (1) 
0.0091269655628041547

>  <r_glide_ring_energy>  (1) 
0

>  <r_i_docking_score>  (1) 
-4.9316831409384951

>  <r_i_glide_ecoul>  (1) 
0.0010482671100465607

>  <r_i_glide_eff_state_penalty>  (1) 
0.0091269655628041547

>  <r_i_glide_einternal>  (1) 
0

>  <r_i_glide_emodel>  (1) 
-25.34573732005623

>  <r_i_glide_emodel_strain>  (1) 
0.12730134122075398

>  <r_i_glide_energy>  (1) 
-19.582931965516849

>  <r_i_glide_erotb>  (1) 
0

>  <r_i_glide_esite>  (1) 
-0.046217115125913727

>  <r_i_glide_evdw>  (1) 
-19.583980232626896

>  <r_i_glide_gscore>  (1) 
-4.9408101065012993

>  <r_i_glide_gscore_strain>  (1) 
0

>  <r_i_glide_hbond>  (1) 
0

>  <r_i_glide_ligand_efficiency>  (1) 
-0.41097359507820791

>  <r_i_glide_ligand_efficiency_ln>  (1) 
-1.4151550203614514

>  <r_i_glide_ligand_efficiency_sa>  (1) 
-0.94089465519874105

>  <r_i_glide_lipo>  (1) 
-1.1281329973190009

>  <r_i_glide_metal>  (1) 
-0

>  <r_i_glide_rewards>  (1) 
-2.7874182224915476

>  <r_lp_Energy>  (1) 
19.395567

>  <r_lp_tautomer_probability>  (1) 
1

>  <s_epik_cmdline>  (1) 
J2VwaWtfcHl0aG9uJywgJy1waHQnLCAnMS4wJywgJy1waCcsICc3LjQnLCAnLXRuJywgJzgnLCAnLW1hJywgJzUwMCcsICctaW1hZScsICc8aW5maWxlLm1hZT4nLCAnLW9tYWUnLCAnPG91dGZpbGUubWFlPic=

>  <s_epik_input>  (1) 
TzFbQ0gyXVtDSDJdT1tDSDJdYyhjMTIpW2NIXW5uYzJbQ0gzXQ==

>  <s_glide_docking_method>  (1) 
confgen

>  <s_i_glide_gridfile>  (1) 
gpcr_drd2_6luq_protein_autoprepared_prepared

>  <s_lp_Force_Field>  (1) 
S-OPLS

>  <s_lp_Variant>  (1) 
Pocket2Mol_85-1

>  <s_m_source_file>  (1) 
generated_generic_title2_ligand_Pocket2Mol_2026-06-23_prepared.sdf

>  <GenAI_Model>  (1) 
Pocket2Mol

>  <Protein>  (1) 
generic_title2

$$$$
Pocket2Mol_26
     RDKit          3D

  0  0  0  0  0  0  0  0  0  0999 V3000
M  V30 BEGIN CTAB
M  V30 COUNTS 15 15 0 0 1
M  V30 BEGIN ATOM
M  V30 1 C 9.960856 7.395014 -7.260991 0
M  V30 2 O 10.841242 8.464537 -6.904308 0
M  V30 3 C 12.079263 8.433788 -7.611131 0
M  V30 4 C 11.822771 8.699837 -9.107092 0 CFG=1
M  V30 5 O 12.975548 8.390228 -9.857657 0
M  V30 6 C 9.798982 7.285997 -8.765630 0
M  V30 7 C 10.649466 7.885830 -9.611907 0
M  V30 8 H 8.987167 7.574906 -6.805285 0
M  V30 9 H 10.333174 6.448824 -6.868303 0
M  V30 10 H 12.563798 7.468237 -7.466092 0
M  V30 11 H 12.751318 9.189427 -7.204373 0
M  V30 12 H 11.606809 9.754967 -9.274904 0
M  V30 13 H 13.534530 9.151719 -9.879628 0
M  V30 14 H 8.975084 6.693775 -9.135583 0
M  V30 15 H 10.511934 7.810775 -10.680482 0
M  V30 END ATOM
M  V30 BEGIN BOND
M  V30 1 1 2 1
M  V30 2 1 3 2
M  V30 3 1 4 3
M  V30 4 1 5 4
M  V30 5 1 6 1
M  V30 6 1 7 4
M  V30 7 2 7 6
M  V30 8 1 8 1
M  V30 9 1 9 1
M  V30 10 1 10 3
M  V30 11 1 11 3
M  V30 12 1 4 12 CFG=1
M  V30 13 1 13 5
M  V30 14 1 14 6
M  V30 15 1 15 7
M  V30 END BOND
M  V30 END CTAB
M  END
>  <i_epik_Tot_Q>  (1) 
0

>  <i_epik_Tot_abs_Q>  (1) 
0

>  <i_i_glide_confnum>  (1) 
1

>  <i_i_glide_lignum>  (1) 
30

>  <i_i_glide_posenum>  (1) 
211

>  <i_i_glide_rotatable_bonds>  (1) 
1

>  <i_lp_mmshare_version>  (1) 
72125

>  <i_m_source_file_index>  (1) 
27

>  <i_f3d_flags>  (1) 
0

>  <num_sample>  (1) 
100

>  <b_lp_Chiralities_Consistent>  (1) 
1

>  <r_epik_Charging_Adjusted_Penalty>  (1) 
0

>  <r_epik_Ionization_Penalty>  (1) 
7.567869706951744e-07

>  <r_epik_Ionization_Penalty_Charging>  (1) 
0

>  <r_epik_Ionization_Penalty_Neutral>  (1) 
7.567869706951744e-07

>  <r_epik_State_Penalty>  (1) 
-0

>  <r_glide_ring_energy>  (1) 
0

>  <r_i_docking_score>  (1) 
-4.9266567978040836

>  <r_i_glide_ecoul>  (1) 
-4.3612626078085439

>  <r_i_glide_eff_state_penalty>  (1) 
-0

>  <r_i_glide_einternal>  (1) 
0.66413700441328072

>  <r_i_glide_emodel>  (1) 
-24.918373495559329

>  <r_i_glide_emodel_strain>  (1) 
0.048528392947127852

>  <r_i_glide_energy>  (1) 
-19.07773853255706

>  <r_i_glide_erotb>  (1) 
0

>  <r_i_glide_esite>  (1) 
0

>  <r_i_glide_evdw>  (1) 
-14.716475924748515

>  <r_i_glide_gscore>  (1) 
-4.9266567978040836

>  <r_i_glide_gscore_strain>  (1) 
0

>  <r_i_glide_hbond>  (1) 
-0.32000000000000001

>  <r_i_glide_ligand_efficiency>  (1) 
-0.70380811397201193

>  <r_i_glide_ligand_efficiency_ln>  (1) 
-1.6723717114671508

>  <r_i_glide_ligand_efficiency_sa>  (1) 
-1.3463364879052853

>  <r_i_glide_lipo>  (1) 
-0.58331027706204275

>  <r_i_glide_metal>  (1) 
-0

>  <r_i_glide_rewards>  (1) 
-2.6333333333333333

>  <r_lp_Energy>  (1) 
2.4739009999999997

>  <r_lp_tautomer_probability>  (1) 
1

>  <s_epik_cmdline>  (1) 
J2VwaWtfcHl0aG9uJywgJy1waHQnLCAnMS4wJywgJy1waCcsICc3LjQnLCAnLXRuJywgJzgnLCAnLW1hJywgJzUwMCcsICctaW1hZScsICc8aW5maWxlLm1hZT4nLCAnLW9tYWUnLCAnPG91dGZpbGUubWFlPic=

>  <s_epik_input>  (1) 
W0NIXTE9W0NIXVtDSDJdT1tDSDJdW0NASF0xW09IXQ==

>  <s_glide_docking_method>  (1) 
confgen

>  <s_i_glide_gridfile>  (1) 
gpcr_drd2_6luq_protein_autoprepared_prepared

>  <s_lp_Force_Field>  (1) 
S-OPLS

>  <s_lp_Variant>  (1) 
Pocket2Mol_26-1

>  <s_m_source_file>  (1) 
generated_generic_title2_ligand_Pocket2Mol_2026-06-23_prepared.sdf

>  <GenAI_Model>  (1) 
Pocket2Mol

>  <Protein>  (1) 
generic_title2

$$$$
Pocket2Mol_46
     RDKit          3D

  0  0  0  0  0  0  0  0  0  0999 V3000
M  V30 BEGIN CTAB
M  V30 COUNTS 18 19 0 0 1
M  V30 BEGIN ATOM
M  V30 1 C 9.375399 6.574793 -10.765333 0
M  V30 2 O 10.595922 7.190227 -10.384365 0
M  V30 3 C 10.711582 7.493873 -9.046759 0
M  V30 4 C 11.651644 8.458081 -8.631010 0
M  V30 5 C 9.042986 5.427679 -9.804103 0
M  V30 6 C 9.894875 6.842419 -8.081725 0
M  V30 7 O 8.975411 5.891139 -8.463565 0
M  V30 8 C 11.775412 8.782166 -7.265318 0
M  V30 9 C 10.023892 7.173582 -6.718981 0
M  V30 10 C 10.961627 8.141872 -6.311371 0
M  V30 11 H 8.576139 7.316231 -10.785020 0
M  V30 12 H 9.475174 6.195250 -11.782253 0
M  V30 13 H 12.275787 8.952603 -9.361325 0
M  V30 14 H 8.079252 4.990465 -10.065931 0
M  V30 15 H 9.775410 4.626094 -9.874728 0
M  V30 16 H 12.494445 9.522919 -6.949301 0
M  V30 17 H 9.401569 6.682457 -5.984919 0
M  V30 18 H 11.057313 8.392476 -5.265284 0
M  V30 END ATOM
M  V30 BEGIN BOND
M  V30 1 1 2 1
M  V30 2 1 3 2
M  V30 3 2 4 3
M  V30 4 1 5 1
M  V30 5 1 6 3
M  V30 6 1 7 5
M  V30 7 1 7 6
M  V30 8 1 8 4
M  V30 9 2 9 6
M  V30 10 2 10 8
M  V30 11 1 10 9
M  V30 12 1 11 1
M  V30 13 1 12 1
M  V30 14 1 13 4
M  V30 15 1 14 5
M  V30 16 1 15 5
M  V30 17 1 16 8
M  V30 18 1 17 9
M  V30 19 1 18 10
M  V30 END BOND
M  V30 END CTAB
M  END
>  <i_epik_Tot_Q>  (1) 
0

>  <i_epik_Tot_abs_Q>  (1) 
0

>  <i_i_glide_confnum>  (1) 
1

>  <i_i_glide_lignum>  (1) 
52

>  <i_i_glide_posenum>  (1) 
209

>  <i_i_glide_rotatable_bonds>  (1) 
0

>  <i_lp_mmshare_version>  (1) 
72125

>  <i_m_source_file_index>  (1) 
47

>  <i_f3d_flags>  (1) 
0

>  <num_sample>  (1) 
100

>  <b_lp_Chiralities_Consistent>  (1) 
1

>  <r_epik_Charging_Adjusted_Penalty>  (1) 
0

>  <r_epik_Ionization_Penalty>  (1) 
0

>  <r_epik_Ionization_Penalty_Charging>  (1) 
0

>  <r_epik_Ionization_Penalty_Neutral>  (1) 
0

>  <r_epik_State_Penalty>  (1) 
-0

>  <r_glide_ring_energy>  (1) 
0

>  <r_i_docking_score>  (1) 
-4.9219921311065811

>  <r_i_glide_ecoul>  (1) 
-0.65465366508277978

>  <r_i_glide_eff_state_penalty>  (1) 
-0

>  <r_i_glide_einternal>  (1) 
0

>  <r_i_glide_emodel>  (1) 
-26.52221521486981

>  <r_i_glide_emodel_strain>  (1) 
0

>  <r_i_glide_energy>  (1) 
-19.861058098860429

>  <r_i_glide_erotb>  (1) 
0

>  <r_i_glide_esite>  (1) 
0

>  <r_i_glide_evdw>  (1) 
-19.206404433777649

>  <r_i_glide_gscore>  (1) 
-4.9219921311065811

>  <r_i_glide_gscore_strain>  (1) 
0

>  <r_i_glide_hbond>  (1) 
0

>  <r_i_glide_ligand_efficiency>  (1) 
-0.49219921311065812

>  <r_i_glide_ligand_efficiency_ln>  (1) 
-1.4903452878618848

>  <r_i_glide_ligand_efficiency_sa>  (1) 
-1.060411059131998

>  <r_i_glide_lipo>  (1) 
-0.85129503162685372

>  <r_i_glide_metal>  (1) 
-0

>  <r_i_glide_rewards>  (1) 
-3.0121788280284281

>  <r_lp_Energy>  (1) 
16.729797999999999

>  <r_lp_tautomer_probability>  (1) 
1

>  <s_epik_cmdline>  (1) 
J2VwaWtfcHl0aG9uJywgJy1waHQnLCAnMS4wJywgJy1waCcsICc3LjQnLCAnLXRuJywgJzgnLCAnLW1hJywgJzUwMCcsICctaW1hZScsICc8aW5maWxlLm1hZT4nLCAnLW9tYWUnLCAnPG91dGZpbGUubWFlPic=

>  <s_epik_input>  (1) 
TzFbQ0gyXVtDSDJdT2MoYzEyKVtjSF1bY0hdW2NIXVtjSF0y

>  <s_glide_docking_method>  (1) 
confgen

>  <s_i_glide_gridfile>  (1) 
gpcr_drd2_6luq_protein_autoprepared_prepared

>  <s_lp_Force_Field>  (1) 
S-OPLS

>  <s_lp_Variant>  (1) 
Pocket2Mol_46-1

>  <s_m_source_file>  (1) 
generated_generic_title2_ligand_Pocket2Mol_2026-06-23_prepared.sdf

>  <GenAI_Model>  (1) 
Pocket2Mol

>  <Protein>  (1) 
generic_title2

$$$$
Pocket2Mol_28
     RDKit          3D

  0  0  0  0  0  0  0  0  0  0999 V3000
M  V30 BEGIN CTAB
M  V30 COUNTS 13 13 0 0 1
M  V30 BEGIN ATOM
M  V30 1 N 11.775419 6.703121 -3.102418 0
M  V30 2 C 11.375410 6.676354 -4.425575 0
M  V30 3 C 11.352931 7.768203 -5.213955 0
M  V30 4 C 12.179272 7.905174 -2.547788 0
M  V30 5 O 10.962397 7.732686 -6.493631 0
M  V30 6 C 11.775410 9.078828 -4.657433 0
M  V30 7 O 11.770969 10.105244 -5.333724 0
M  V30 8 C 12.203045 9.070223 -3.230743 0
M  V30 9 H 11.077842 5.699229 -4.777225 0
M  V30 10 H 12.476632 7.834974 -1.512546 0
M  V30 11 H 11.002386 8.621530 -6.816650 0
M  V30 12 H 12.522988 9.990227 -2.769627 0
M  V30 13 H 11.767719 5.855872 -2.547698 0
M  V30 END ATOM
M  V30 BEGIN BOND
M  V30 1 1 2 1
M  V30 2 2 3 2
M  V30 3 1 4 1
M  V30 4 1 5 3
M  V30 5 1 6 3
M  V30 6 2 7 6
M  V30 7 2 8 4
M  V30 8 1 8 6
M  V30 9 1 9 2
M  V30 10 1 10 4
M  V30 11 1 11 5
M  V30 12 1 12 8
M  V30 13 1 13 1
M  V30 END BOND
M  V30 END CTAB
M  END
>  <i_epik_Tot_Q>  (1) 
0

>  <i_epik_Tot_abs_Q>  (1) 
0

>  <i_i_glide_confnum>  (1) 
1

>  <i_i_glide_lignum>  (1) 
32

>  <i_i_glide_posenum>  (1) 
292

>  <i_i_glide_rotatable_bonds>  (1) 
1

>  <i_lp_mmshare_version>  (1) 
72125

>  <i_m_source_file_index>  (1) 
29

>  <i_f3d_flags>  (1) 
0

>  <num_sample>  (1) 
100

>  <b_lp_Chiralities_Consistent>  (1) 
1

>  <r_epik_Charging_Adjusted_Penalty>  (1) 
0.000203171374695584

>  <r_epik_Ionization_Penalty>  (1) 
0.014901896624084464

>  <r_epik_Ionization_Penalty_Charging>  (1) 
0.000203171374695584

>  <r_epik_Ionization_Penalty_Neutral>  (1) 
0.01469872524938888

>  <r_epik_State_Penalty>  (1) 
-0

>  <r_glide_ring_energy>  (1) 
0

>  <r_i_docking_score>  (1) 
-4.9197494073413282

>  <r_i_glide_ecoul>  (1) 
-1.4600874593477866

>  <r_i_glide_eff_state_penalty>  (1) 
-0

>  <r_i_glide_einternal>  (1) 
2.0439670803703343

>  <r_i_glide_emodel>  (1) 
-26.441634804566988

>  <r_i_glide_emodel_strain>  (1) 
0

>  <r_i_glide_energy>  (1) 
-20.342896082784378

>  <r_i_glide_erotb>  (1) 
0

>  <r_i_glide_esite>  (1) 
0

>  <r_i_glide_evdw>  (1) 
-18.882808623436592

>  <r_i_glide_gscore>  (1) 
-4.9197494073413282

>  <r_i_glide_gscore_strain>  (1) 
0

>  <r_i_glide_hbond>  (1) 
0

>  <r_i_glide_ligand_efficiency>  (1) 
-0.61496867591766602

>  <r_i_glide_ligand_efficiency_ln>  (1) 
-1.5976109111841117

>  <r_i_glide_ligand_efficiency_sa>  (1) 
-1.2299373518353323

>  <r_i_glide_lipo>  (1) 
-1.5065958572673299

>  <r_i_glide_metal>  (1) 
-0

>  <r_i_glide_rewards>  (1) 
-2.25

>  <r_lp_Energy>  (1) 
11.500328

>  <r_lp_tautomer_probability>  (1) 
1

>  <s_epik_cmdline>  (1) 
J2VwaWtfcHl0aG9uJywgJy1waHQnLCAnMS4wJywgJy1waCcsICc3LjQnLCAnLXRuJywgJzgnLCAnLW1hJywgJzUwMCcsICctaW1hZScsICc8aW5maWxlLm1hZT4nLCAnLW9tYWUnLCAnPG91dGZpbGUubWFlPic=

>  <s_epik_input>  (1) 
W09IXWMxW2NIXW5bY0hdW2NIXWMxW09IXQ==

>  <s_glide_docking_method>  (1) 
confgen

>  <s_i_glide_gridfile>  (1) 
gpcr_drd2_6luq_protein_autoprepared_prepared

>  <s_lp_Force_Field>  (1) 
S-OPLS

>  <s_lp_Variant>  (1) 
Pocket2Mol_28-1

>  <s_m_source_file>  (1) 
generated_generic_title2_ligand_Pocket2Mol_2026-06-23_prepared.sdf

>  <GenAI_Model>  (1) 
Pocket2Mol

>  <Protein>  (1) 
generic_title2

$$$$
Pocket2Mol_19
     RDKit          3D

  0  0  0  0  0  0  0  0  0  0999 V3000
M  V30 BEGIN CTAB
M  V30 COUNTS 14 14 0 0 1
M  V30 BEGIN ATOM
M  V30 1 N 9.379739 7.703590 -9.174392 0 CHG=1
M  V30 2 C 9.987986 7.986580 -8.001069 0
M  V30 3 C 11.388687 8.143962 -7.955927 0
M  V30 4 C 12.135107 8.002190 -9.145377 0
M  V30 5 N 13.519930 8.151742 -9.130664 0
M  V30 6 C 11.461540 7.706558 -10.349758 0
M  V30 7 C 10.059063 7.560376 -10.334453 0
M  V30 8 H 9.342092 8.078194 -7.139047 0
M  V30 9 H 11.878840 8.370101 -7.019742 0
M  V30 10 H 14.075416 8.055597 -9.969096 0
M  V30 11 H 14.023947 8.363789 -8.280769 0
M  V30 12 H 12.008458 7.592134 -11.274826 0
M  V30 13 H 9.466102 7.334612 -11.209824 0
M  V30 14 H 8.361043 7.593400 -9.185067 0
M  V30 END ATOM
M  V30 BEGIN BOND
M  V30 1 1 2 1
M  V30 2 2 3 2
M  V30 3 1 4 3
M  V30 4 1 5 4
M  V30 5 2 6 4
M  V30 6 2 7 1
M  V30 7 1 7 6
M  V30 8 1 8 2
M  V30 9 1 9 3
M  V30 10 1 10 5
M  V30 11 1 11 5
M  V30 12 1 12 6
M  V30 13 1 13 7
M  V30 14 1 14 1
M  V30 END BOND
M  V30 END CTAB
M  END
>  <i_epik_Tot_Q>  (1) 
1

>  <i_epik_Tot_abs_Q>  (1) 
1

>  <i_i_glide_confnum>  (1) 
1

>  <i_i_glide_lignum>  (1) 
22

>  <i_i_glide_posenum>  (1) 
319

>  <i_i_glide_rotatable_bonds>  (1) 
0

>  <i_lp_mmshare_version>  (1) 
72125

>  <i_m_source_file_index>  (1) 
20

>  <i_f3d_flags>  (1) 
0

>  <num_sample>  (1) 
100

>  <b_lp_Chiralities_Consistent>  (1) 
1

>  <r_epik_Charging_Adjusted_Penalty>  (1) 
0.023410508937706027

>  <r_epik_Ionization_Penalty>  (1) 
0.011711918016166721

>  <r_epik_Ionization_Penalty_Charging>  (1) 
0.011705254468853022

>  <r_epik_Ionization_Penalty_Neutral>  (1) 
6.6635473136990569e-06

>  <r_epik_State_Penalty>  (1) 
0.011705254468853005

>  <r_glide_ring_energy>  (1) 
0

>  <r_i_docking_score>  (1) 
-4.9189915930526995

>  <r_i_glide_ecoul>  (1) 
-8.5842229832915997

>  <r_i_glide_eff_state_penalty>  (1) 
0.011705254468853005

>  <r_i_glide_einternal>  (1) 
0

>  <r_i_glide_emodel>  (1) 
-26.892355976454581

>  <r_i_glide_emodel_strain>  (1) 
0

>  <r_i_glide_energy>  (1) 
-17.65111683590019

>  <r_i_glide_erotb>  (1) 
0

>  <r_i_glide_esite>  (1) 
-0.12963680609607781

>  <r_i_glide_evdw>  (1) 
-9.0668938526085885

>  <r_i_glide_gscore>  (1) 
-4.9306968475215527

>  <r_i_glide_gscore_strain>  (1) 
0

>  <r_i_glide_hbond>  (1) 
-0.16115252290238563

>  <r_i_glide_ligand_efficiency>  (1) 
-0.70271308472181426

>  <r_i_glide_ligand_efficiency_ln>  (1) 
-1.6697697296131413

>  <r_i_glide_ligand_efficiency_sa>  (1) 
-1.3442417723065343

>  <r_i_glide_lipo>  (1) 
-0.64892937839891907

>  <r_i_glide_metal>  (1) 
-0

>  <r_i_glide_rewards>  (1) 
-2.25

>  <r_lp_Energy>  (1) 
13.062742999999999

>  <r_lp_tautomer_probability>  (1) 
0.99999999993680011

>  <s_epik_cmdline>  (1) 
J2VwaWtfcHl0aG9uJywgJy1waHQnLCAnMS4wJywgJy1waCcsICc3LjQnLCAnLXRuJywgJzgnLCAnLW1hJywgJzUwMCcsICctaW1hZScsICc8aW5maWxlLm1hZT4nLCAnLW9tYWUnLCAnPG91dGZpbGUubWFlPic=

>  <s_epik_input>  (1) 
W2NIXTFbY0hdbltjSF1bY0hdYzFbTkgyXQ==

>  <s_glide_docking_method>  (1) 
confgen

>  <s_i_glide_gridfile>  (1) 
gpcr_drd2_6luq_protein_autoprepared_prepared

>  <s_lp_Force_Field>  (1) 
S-OPLS

>  <s_lp_Variant>  (1) 
Pocket2Mol_19-1

>  <s_m_source_file>  (1) 
generated_generic_title2_ligand_Pocket2Mol_2026-06-23_prepared.sdf

>  <GenAI_Model>  (1) 
Pocket2Mol

>  <Protein>  (1) 
generic_title2

$$$$
Pocket2Mol_94
     RDKit          3D

  0  0  0  0  0  0  0  0  0  0999 V3000
M  V30 BEGIN CTAB
M  V30 COUNTS 24 25 0 0 1
M  V30 BEGIN ATOM
M  V30 1 C 10.912337 8.203637 -6.284597 0
M  V30 2 O 11.358254 8.712510 -7.598956 0
M  V30 3 C 10.737885 7.862155 -8.448203 0
M  V30 4 C 10.030917 6.868552 -7.870910 0
M  V30 5 C 9.335506 5.916439 -8.635636 0
M  V30 6 C 10.047459 6.868239 -6.406938 0
M  V30 7 C 10.809668 7.990232 -9.844170 0
M  V30 8 C 9.375410 6.001007 -10.047844 0
M  V30 9 N 8.653367 5.005768 -10.815633 0
M  V30 10 C 10.125341 7.061039 -10.660657 0
M  V30 11 C 8.661095 4.873435 -12.167995 0
M  V30 12 C 7.812275 3.739813 -12.731285 0
M  V30 13 O 9.298525 5.590247 -12.930645 0
M  V30 14 H 11.775403 8.043163 -5.639156 0
M  V30 15 H 10.311454 8.981784 -5.812402 0
M  V30 16 H 8.775645 5.130618 -8.150224 0
M  V30 17 H 9.046633 6.961605 -5.985077 0
M  V30 18 H 10.559869 5.990268 -6.013399 0
M  V30 19 H 11.378847 8.791789 -10.289520 0
M  V30 20 H 8.104701 4.344278 -10.287819 0
M  V30 21 H 10.179874 7.170062 -11.723383 0
M  V30 22 H 6.827010 3.723370 -12.264355 0
M  V30 23 H 7.677646 3.859746 -13.806542 0
M  V30 24 H 8.300514 2.781387 -12.552430 0
M  V30 END ATOM
M  V30 BEGIN BOND
M  V30 1 1 2 1
M  V30 2 1 3 2
M  V30 3 2 4 3
M  V30 4 1 5 4
M  V30 5 1 6 1
M  V30 6 1 6 4
M  V30 7 1 7 3
M  V30 8 2 8 5
M  V30 9 1 9 8
M  V30 10 2 10 7
M  V30 11 1 10 8
M  V30 12 1 11 9
M  V30 13 1 12 11
M  V30 14 2 13 11
M  V30 15 1 14 1
M  V30 16 1 15 1
M  V30 17 1 16 5
M  V30 18 1 17 6
M  V30 19 1 18 6
M  V30 20 1 19 7
M  V30 21 1 20 9
M  V30 22 1 21 10
M  V30 23 1 22 12
M  V30 24 1 23 12
M  V30 25 1 24 12
M  V30 END BOND
M  V30 END CTAB
M  END
>  <i_epik_Tot_Q>  (1) 
0

>  <i_epik_Tot_abs_Q>  (1) 
0

>  <i_i_glide_confnum>  (1) 
1

>  <i_i_glide_lignum>  (1) 
103

>  <i_i_glide_posenum>  (1) 
397

>  <i_i_glide_rotatable_bonds>  (1) 
2

>  <i_lp_mmshare_version>  (1) 
72125

>  <i_m_source_file_index>  (1) 
95

>  <i_f3d_flags>  (1) 
0

>  <num_sample>  (1) 
100

>  <b_lp_Chiralities_Consistent>  (1) 
1

>  <r_epik_Charging_Adjusted_Penalty>  (1) 
0

>  <r_epik_Ionization_Penalty>  (1) 
1.4103773659367358e-07

>  <r_epik_Ionization_Penalty_Charging>  (1) 
0

>  <r_epik_Ionization_Penalty_Neutral>  (1) 
1.4103773659367358e-07

>  <r_epik_State_Penalty>  (1) 
-0

>  <r_glide_ring_energy>  (1) 
0

>  <r_i_docking_score>  (1) 
-4.9167657832548803

>  <r_i_glide_ecoul>  (1) 
0.13222630634750476

>  <r_i_glide_eff_state_penalty>  (1) 
-0

>  <r_i_glide_einternal>  (1) 
0.007742613655719488

>  <r_i_glide_emodel>  (1) 
-32.09847693472328

>  <r_i_glide_emodel_strain>  (1) 
0

>  <r_i_glide_energy>  (1) 
-24.448376345166228

>  <r_i_glide_erotb>  (1) 
0

>  <r_i_glide_esite>  (1) 
0

>  <r_i_glide_evdw>  (1) 
-24.580602651513733

>  <r_i_glide_gscore>  (1) 
-4.9167657832548803

>  <r_i_glide_gscore_strain>  (1) 
0

>  <r_i_glide_hbond>  (1) 
0

>  <r_i_glide_ligand_efficiency>  (1) 
-0.37821275255806774

>  <r_i_glide_ligand_efficiency_ln>  (1) 
-1.3791965299490032

>  <r_i_glide_ligand_efficiency_sa>  (1) 
-0.88930476442813244

>  <r_i_glide_lipo>  (1) 
-0.66237997753877098

>  <r_i_glide_metal>  (1) 
-0

>  <r_i_glide_rewards>  (1) 
-3.0451896190925489

>  <r_lp_Energy>  (1) 
14.229996

>  <r_lp_tautomer_probability>  (1) 
1

>  <s_epik_cmdline>  (1) 
J2VwaWtfcHl0aG9uJywgJy1waHQnLCAnMS4wJywgJy1waCcsICc3LjQnLCAnLXRuJywgJzgnLCAnLW1hJywgJzUwMCcsICctaW1hZScsICc8aW5maWxlLm1hZT4nLCAnLW9tYWUnLCAnPG91dGZpbGUubWFlPic=

>  <s_epik_input>  (1) 
TzFbQ0gyXVtDSDJdYyhjMTIpW2NIXWMoW2NIXVtjSF0yKVtOSF1DKD1PKVtDSDNd

>  <s_glide_docking_method>  (1) 
confgen

>  <s_i_glide_gridfile>  (1) 
gpcr_drd2_6luq_protein_autoprepared_prepared

>  <s_lp_Force_Field>  (1) 
S-OPLS

>  <s_lp_Variant>  (1) 
Pocket2Mol_94-1

>  <s_m_source_file>  (1) 
generated_generic_title2_ligand_Pocket2Mol_2026-06-23_prepared.sdf

>  <GenAI_Model>  (1) 
Pocket2Mol

>  <Protein>  (1) 
generic_title2

$$$$
Pocket2Mol_18
     RDKit          3D

  0  0  0  0  0  0  0  0  0  0999 V3000
M  V30 BEGIN CTAB
M  V30 COUNTS 15 15 0 0 1
M  V30 BEGIN ATOM
M  V30 1 C 10.975409 6.903926 -5.184940 0
M  V30 2 O 11.775225 7.793217 -4.499189 0
M  V30 3 C 11.624534 9.181898 -4.753755 0
M  V30 4 C 12.362858 9.616135 -6.021435 0
M  V30 5 O 12.060224 8.824058 -7.158105 0
M  V30 6 C 10.715208 8.386788 -7.246051 0
M  V30 7 C 10.466474 7.138413 -6.417278 0
M  V30 8 H 10.789633 6.003406 -4.616904 0
M  V30 9 H 12.039960 9.721270 -3.901970 0
M  V30 10 H 10.576174 9.464650 -4.786525 0
M  V30 11 H 13.441826 9.587615 -5.865590 0
M  V30 12 H 12.110865 10.653069 -6.244314 0
M  V30 13 H 10.539808 8.112854 -8.286538 0
M  V30 14 H 9.994906 9.174171 -7.016539 0
M  V30 15 H 9.835754 6.388180 -6.872031 0
M  V30 END ATOM
M  V30 BEGIN BOND
M  V30 1 1 2 1
M  V30 2 1 3 2
M  V30 3 1 4 3
M  V30 4 1 5 4
M  V30 5 1 6 5
M  V30 6 2 7 1
M  V30 7 1 7 6
M  V30 8 1 8 1
M  V30 9 1 9 3
M  V30 10 1 10 3
M  V30 11 1 11 4
M  V30 12 1 12 4
M  V30 13 1 13 6
M  V30 14 1 14 6
M  V30 15 1 15 7
M  V30 END BOND
M  V30 END CTAB
M  END
>  <i_epik_Tot_Q>  (1) 
0

>  <i_epik_Tot_abs_Q>  (1) 
0

>  <i_i_glide_confnum>  (1) 
3

>  <i_i_glide_lignum>  (1) 
21

>  <i_i_glide_posenum>  (1) 
159

>  <i_i_glide_rotatable_bonds>  (1) 
0

>  <i_lp_mmshare_version>  (1) 
72125

>  <i_m_source_file_index>  (1) 
19

>  <i_f3d_flags>  (1) 
0

>  <num_sample>  (1) 
100

>  <b_lp_Chiralities_Consistent>  (1) 
1

>  <r_epik_Charging_Adjusted_Penalty>  (1) 
0

>  <r_epik_Ionization_Penalty>  (1) 
5.6701613537443791e-14

>  <r_epik_Ionization_Penalty_Charging>  (1) 
0

>  <r_epik_Ionization_Penalty_Neutral>  (1) 
5.6701613537443791e-14

>  <r_epik_State_Penalty>  (1) 
-0

>  <r_glide_ring_energy>  (1) 
0.9851884203704826

>  <r_i_docking_score>  (1) 
-4.9031839975501113

>  <r_i_glide_ecoul>  (1) 
-0.64264246008464121

>  <r_i_glide_eff_state_penalty>  (1) 
-0

>  <r_i_glide_einternal>  (1) 
0

>  <r_i_glide_emodel>  (1) 
-21.434524117421542

>  <r_i_glide_emodel_strain>  (1) 
0

>  <r_i_glide_energy>  (1) 
-16.318979585291544

>  <r_i_glide_erotb>  (1) 
0

>  <r_i_glide_esite>  (1) 
0

>  <r_i_glide_evdw>  (1) 
-15.676337125206903

>  <r_i_glide_gscore>  (1) 
-4.9031839975501113

>  <r_i_glide_gscore_strain>  (1) 
0

>  <r_i_glide_hbond>  (1) 
0

>  <r_i_glide_ligand_efficiency>  (1) 
-0.700454856792873

>  <r_i_glide_ligand_efficiency_ln>  (1) 
-1.6644037833680878

>  <r_i_glide_ligand_efficiency_sa>  (1) 
-1.339921937683455

>  <r_i_glide_lipo>  (1) 
-1.3979707722770702

>  <r_i_glide_metal>  (1) 
-0

>  <r_i_glide_rewards>  (1) 
-2.625

>  <r_lp_Energy>  (1) 
7.3473319999999998

>  <r_lp_tautomer_probability>  (1) 
1

>  <s_epik_cmdline>  (1) 
J2VwaWtfcHl0aG9uJywgJy1waHQnLCAnMS4wJywgJy1waCcsICc3LjQnLCAnLXRuJywgJzgnLCAnLW1hJywgJzUwMCcsICctaW1hZScsICc8aW5maWxlLm1hZT4nLCAnLW9tYWUnLCAnPG91dGZpbGUubWFlPic=

>  <s_epik_input>  (1) 
W0NIXTE9W0NIXVtDSDJdT1tDSDJdW0NIMl1PMQ==

>  <s_glide_docking_method>  (1) 
confgen

>  <s_i_glide_gridfile>  (1) 
gpcr_drd2_6luq_protein_autoprepared_prepared

>  <s_lp_Force_Field>  (1) 
S-OPLS

>  <s_lp_Variant>  (1) 
Pocket2Mol_18-1

>  <s_m_source_file>  (1) 
generated_generic_title2_ligand_Pocket2Mol_2026-06-23_prepared.sdf

>  <GenAI_Model>  (1) 
Pocket2Mol

>  <Protein>  (1) 
generic_title2

$$$$
Pocket2Mol_20
     RDKit          3D

  0  0  0  0  0  0  0  0  0  0999 V3000
M  V30 BEGIN CTAB
M  V30 COUNTS 12 12 0 0 1
M  V30 BEGIN ATOM
M  V30 1 N 9.375415 7.843948 -8.482512 0 CHG=1
M  V30 2 C 9.696726 8.026679 -7.183717 0
M  V30 3 C 11.015797 8.374600 -6.829476 0
M  V30 4 C 10.273274 7.978946 -9.483229 0
M  V30 5 O 11.351367 8.566107 -5.522331 0 CHG=-1
M  V30 6 C 11.985118 8.524568 -7.843876 0
M  V30 7 C 11.609872 8.324815 -9.190006 0
M  V30 8 H 8.894895 7.894101 -6.473973 0
M  V30 9 H 9.896916 7.809260 -10.482226 0
M  V30 10 H 8.395352 7.597510 -8.725352 0
M  V30 11 H 13.000080 8.790225 -7.593313 0
M  V30 12 H 12.335740 8.436915 -9.982915 0
M  V30 END ATOM
M  V30 BEGIN BOND
M  V30 1 1 2 1
M  V30 2 2 3 2
M  V30 3 2 4 1
M  V30 4 1 5 3
M  V30 5 1 6 3
M  V30 6 1 7 4
M  V30 7 2 7 6
M  V30 8 1 8 2
M  V30 9 1 9 4
M  V30 10 1 10 1
M  V30 11 1 11 6
M  V30 12 1 12 7
M  V30 END BOND
M  V30 END CTAB
M  END
>  <i_epik_Tot_Q>  (1) 
0

>  <i_epik_Tot_abs_Q>  (1) 
2

>  <i_i_glide_confnum>  (1) 
1

>  <i_i_glide_lignum>  (1) 
23

>  <i_i_glide_posenum>  (1) 
41

>  <i_i_glide_rotatable_bonds>  (1) 
0

>  <i_lp_mmshare_version>  (1) 
72125

>  <i_m_source_file_index>  (1) 
21

>  <i_f3d_flags>  (1) 
0

>  <num_sample>  (1) 
100

>  <b_lp_Chiralities_Consistent>  (1) 
1

>  <r_epik_Charging_Adjusted_Penalty>  (1) 
0.36510749842979956

>  <r_epik_Ionization_Penalty>  (1) 
0.025180683492302028

>  <r_epik_Ionization_Penalty_Charging>  (1) 
0.025180683492302028

>  <r_epik_Ionization_Penalty_Neutral>  (1) 
0

>  <r_epik_State_Penalty>  (1) 
0.33992681493749755

>  <r_glide_ring_energy>  (1) 
0

>  <r_i_docking_score>  (1) 
-4.9024842068721437

>  <r_i_glide_ecoul>  (1) 
-4.8909434055732923

>  <r_i_glide_eff_state_penalty>  (1) 
0.33992681493749755

>  <r_i_glide_einternal>  (1) 
0

>  <r_i_glide_emodel>  (1) 
-27.030323051951509

>  <r_i_glide_emodel_strain>  (1) 
0

>  <r_i_glide_energy>  (1) 
-17.181913127467944

>  <r_i_glide_erotb>  (1) 
0

>  <r_i_glide_esite>  (1) 
-0.10000000000000001

>  <r_i_glide_evdw>  (1) 
-12.290969721894649

>  <r_i_glide_gscore>  (1) 
-5.2424110218096409

>  <r_i_glide_gscore_strain>  (1) 
0

>  <r_i_glide_hbond>  (1) 
-0.20000000000000001

>  <r_i_glide_ligand_efficiency>  (1) 
-0.70035488669602053

>  <r_i_glide_ligand_efficiency_ln>  (1) 
-1.6641662368569725

>  <r_i_glide_ligand_efficiency_sa>  (1) 
-1.3397307017678413

>  <r_i_glide_lipo>  (1) 
-0.8142210248789139

>  <r_i_glide_metal>  (1) 
-0

>  <r_i_glide_rewards>  (1) 
-2.7800000000000002

>  <r_lp_Energy>  (1) 
9.275188

>  <r_lp_tautomer_probability>  (1) 
0.56342000000000003

>  <s_epik_cmdline>  (1) 
J2VwaWtfcHl0aG9uJywgJy1waHQnLCAnMS4wJywgJy1waCcsICc3LjQnLCAnLXRuJywgJzgnLCAnLW1hJywgJzUwMCcsICctaW1hZScsICc8aW5maWxlLm1hZT4nLCAnLW9tYWUnLCAnPG91dGZpbGUubWFlPic=

>  <s_epik_input>  (1) 
W2NIXTFbY0hdW2NIXW5bY0hdYzFbT0hd

>  <s_glide_docking_method>  (1) 
confgen

>  <s_i_glide_gridfile>  (1) 
gpcr_drd2_6luq_protein_autoprepared_prepared

>  <s_lp_Force_Field>  (1) 
S-OPLS

>  <s_lp_Variant>  (1) 
Pocket2Mol_20-1

>  <s_m_source_file>  (1) 
generated_generic_title2_ligand_Pocket2Mol_2026-06-23_prepared.sdf

>  <GenAI_Model>  (1) 
Pocket2Mol

>  <Protein>  (1) 
generic_title2

$$$$
Pocket2Mol_48
     RDKit          3D

  0  0  0  0  0  0  0  0  0  0999 V3000
M  V30 BEGIN CTAB
M  V30 COUNTS 20 21 0 0 1
M  V30 BEGIN ATOM
M  V30 1 C 9.410907 5.561284 -8.580809 0
M  V30 2 O 9.375417 6.067424 -7.283194 0
M  V30 3 C 10.239657 7.087760 -6.942198 0
M  V30 4 C 10.837614 7.900870 -7.938894 0
M  V30 5 C 11.705445 8.944014 -7.564820 0
M  V30 6 C 10.518104 7.332461 -5.585026 0
M  V30 7 C 11.375412 8.385108 -5.216044 0
M  V30 8 C 10.544589 7.657367 -9.403365 0
M  V30 9 C 11.969089 9.190228 -6.205232 0
M  V30 10 N 9.375410 6.790227 -9.570598 0 CHG=1
M  V30 11 H 10.303234 4.956432 -8.727966 0
M  V30 12 H 8.526284 4.943662 -8.741401 0
M  V30 13 H 12.162079 9.562313 -8.322712 0
M  V30 14 H 10.064523 6.714946 -4.823411 0
M  V30 15 H 11.581367 8.572886 -4.172473 0
M  V30 16 H 10.368386 8.602557 -9.917803 0
M  V30 17 H 11.415908 7.190235 -9.862444 0
M  V30 18 H 12.630450 9.995619 -5.920628 0
M  V30 19 H 9.335355 6.466767 -10.525375 0
M  V30 20 H 8.504685 7.312383 -9.403901 0
M  V30 END ATOM
M  V30 BEGIN BOND
M  V30 1 1 2 1
M  V30 2 1 3 2
M  V30 3 1 4 3
M  V30 4 2 5 4
M  V30 5 2 6 3
M  V30 6 1 7 6
M  V30 7 1 8 4
M  V30 8 1 9 5
M  V30 9 2 9 7
M  V30 10 1 10 1
M  V30 11 1 10 8
M  V30 12 1 11 1
M  V30 13 1 12 1
M  V30 14 1 13 5
M  V30 15 1 14 6
M  V30 16 1 15 7
M  V30 17 1 16 8
M  V30 18 1 17 8
M  V30 19 1 18 9
M  V30 20 1 19 10
M  V30 21 1 20 10
M  V30 END BOND
M  V30 END CTAB
M  END
>  <i_epik_Tot_Q>  (1) 
1

>  <i_epik_Tot_abs_Q>  (1) 
1

>  <i_i_glide_confnum>  (1) 
2

>  <i_i_glide_lignum>  (1) 
55

>  <i_i_glide_posenum>  (1) 
261

>  <i_i_glide_rotatable_bonds>  (1) 
0

>  <i_lp_mmshare_version>  (1) 
72125

>  <i_m_source_file_index>  (1) 
49

>  <i_f3d_flags>  (1) 
0

>  <num_sample>  (1) 
100

>  <b_lp_Chiralities_Consistent>  (1) 
1

>  <r_epik_Charging_Adjusted_Penalty>  (1) 
1.7789378330503367

>  <r_epik_Ionization_Penalty>  (1) 
0.88946891652516835

>  <r_epik_Ionization_Penalty_Charging>  (1) 
0.88946891652516835

>  <r_epik_Ionization_Penalty_Neutral>  (1) 
0

>  <r_epik_State_Penalty>  (1) 
0.88946891652516835

>  <r_glide_ring_energy>  (1) 
2.090668359176616

>  <r_i_docking_score>  (1) 
-4.899233744136346

>  <r_i_glide_ecoul>  (1) 
-5.2863325760627999

>  <r_i_glide_eff_state_penalty>  (1) 
0.88946891652516835

>  <r_i_glide_einternal>  (1) 
0

>  <r_i_glide_emodel>  (1) 
-35.413898792974422

>  <r_i_glide_emodel_strain>  (1) 
1.3753595595744628e-08

>  <r_i_glide_energy>  (1) 
-22.215637055052895

>  <r_i_glide_erotb>  (1) 
0

>  <r_i_glide_esite>  (1) 
-0.13702006360896846

>  <r_i_glide_evdw>  (1) 
-16.929304478990094

>  <r_i_glide_gscore>  (1) 
-5.7887026606615146

>  <r_i_glide_gscore_strain>  (1) 
0

>  <r_i_glide_hbond>  (1) 
-0.20000000000000001

>  <r_i_glide_ligand_efficiency>  (1) 
-0.48992337441363459

>  <r_i_glide_ligand_efficiency_ln>  (1) 
-1.4834542051707791

>  <r_i_glide_ligand_efficiency_sa>  (1) 
-1.0555079132942136

>  <r_i_glide_lipo>  (1) 
-1.0399313568470852

>  <r_i_glide_metal>  (1) 
-0

>  <r_i_glide_rewards>  (1) 
-2.7723361298465363

>  <r_lp_Energy>  (1) 
22.335957999999998

>  <r_lp_tautomer_probability>  (1) 
1

>  <s_epik_Chemistry_Notes>  (1) 
This compound contains an acetal/aminal-like group ( X-CH(R)-Y where X, Y are N, S, or O) that may be acid/base labile, releasing an aldehyde.

>  <s_epik_cmdline>  (1) 
J2VwaWtfcHl0aG9uJywgJy1waHQnLCAnMS4wJywgJy1waCcsICc3LjQnLCAnLXRuJywgJzgnLCAnLW1hJywgJzUwMCcsICctaW1hZScsICc8aW5maWxlLm1hZT4nLCAnLW9tYWUnLCAnPG91dGZpbGUubWFlPic=

>  <s_epik_input>  (1) 
TzFbQ0gyXVtOSF1bQ0gyXWMoYzEyKVtjSF1bY0hdW2NIXVtjSF0y

>  <s_glide_docking_method>  (1) 
confgen

>  <s_i_glide_gridfile>  (1) 
gpcr_drd2_6luq_protein_autoprepared_prepared

>  <s_lp_Force_Field>  (1) 
S-OPLS

>  <s_lp_Variant>  (1) 
Pocket2Mol_48-2

>  <s_m_source_file>  (1) 
generated_generic_title2_ligand_Pocket2Mol_2026-06-23_prepared.sdf

>  <GenAI_Model>  (1) 
Pocket2Mol

>  <Protein>  (1) 
generic_title2

$$$$
Pocket2Mol_91
     RDKit          3D

  0  0  0  0  0  0  0  0  0  0999 V3000
M  V30 BEGIN CTAB
M  V30 COUNTS 22 23 0 0 1
M  V30 BEGIN ATOM
M  V30 1 C 11.448014 9.578317 -4.917861 0
M  V30 2 O 11.775426 8.237845 -4.667395 0
M  V30 3 C 12.417022 9.990309 -5.988019 0
M  V30 4 O 12.571471 9.031746 -7.020351 0
M  V30 5 C 11.009494 7.279324 -5.185024 0
M  V30 6 C 11.490546 8.329847 -7.495985 0
M  V30 7 C 11.154392 8.427727 -8.863979 0
M  V30 8 O 10.575409 6.355477 -4.519297 0
M  V30 9 C 10.718806 7.461480 -6.653757 0
M  V30 10 C 10.070904 7.679193 -9.363706 0
M  V30 11 C 9.656260 6.736190 -7.230621 0
M  V30 12 N 9.684880 7.741698 -10.701180 0
M  V30 13 N 9.375410 6.874191 -8.539236 0 CHG=1
M  V30 14 H 10.414756 9.704325 -5.245606 0
M  V30 15 H 11.578874 10.168928 -4.011883 0
M  V30 16 H 12.139729 10.964618 -6.387207 0
M  V30 17 H 13.410539 10.086622 -5.554201 0
M  V30 18 H 11.725548 9.070136 -9.519317 0
M  V30 19 H 9.016145 6.058950 -6.680292 0
M  V30 20 H 10.120678 8.386526 -11.343149 0
M  V30 21 H 8.843150 7.279655 -11.021800 0
M  V30 22 H 8.585280 6.351069 -8.923425 0
M  V30 END ATOM
M  V30 BEGIN BOND
M  V30 1 1 2 1
M  V30 2 1 3 1
M  V30 3 1 4 3
M  V30 4 1 5 2
M  V30 5 1 6 4
M  V30 6 1 7 6
M  V30 7 2 8 5
M  V30 8 1 9 5
M  V30 9 2 9 6
M  V30 10 2 10 7
M  V30 11 1 11 9
M  V30 12 1 12 10
M  V30 13 1 13 10
M  V30 14 2 13 11
M  V30 15 1 14 1
M  V30 16 1 15 1
M  V30 17 1 16 3
M  V30 18 1 17 3
M  V30 19 1 18 7
M  V30 20 1 19 11
M  V30 21 1 20 12
M  V30 22 1 21 12
M  V30 23 1 22 13
M  V30 END BOND
M  V30 END CTAB
M  END
>  <i_epik_Tot_Q>  (1) 
1

>  <i_epik_Tot_abs_Q>  (1) 
1

>  <i_i_glide_confnum>  (1) 
1

>  <i_i_glide_lignum>  (1) 
98

>  <i_i_glide_posenum>  (1) 
283

>  <i_i_glide_rotatable_bonds>  (1) 
0

>  <i_lp_mmshare_version>  (1) 
72125

>  <i_m_source_file_index>  (1) 
92

>  <i_f3d_flags>  (1) 
0

>  <num_sample>  (1) 
100

>  <b_lp_Chiralities_Consistent>  (1) 
1

>  <r_epik_Charging_Adjusted_Penalty>  (1) 
0.71045643263358682

>  <r_epik_Ionization_Penalty>  (1) 
0.3552545589029974

>  <r_epik_Ionization_Penalty_Charging>  (1) 
0.35522821631679397

>  <r_epik_Ionization_Penalty_Neutral>  (1) 
2.6342586203446271e-05

>  <r_epik_State_Penalty>  (1) 
0.35522821631679286

>  <r_glide_ring_energy>  (1) 
0

>  <r_i_docking_score>  (1) 
-4.8940027870610514

>  <r_i_glide_ecoul>  (1) 
0.62213363841376323

>  <r_i_glide_eff_state_penalty>  (1) 
0.35522821631679286

>  <r_i_glide_einternal>  (1) 
0

>  <r_i_glide_emodel>  (1) 
-29.638865449480456

>  <r_i_glide_emodel_strain>  (1) 
0.11665534070192507

>  <r_i_glide_energy>  (1) 
-19.362334221418319

>  <r_i_glide_erotb>  (1) 
0

>  <r_i_glide_esite>  (1) 
-0.19427127681226408

>  <r_i_glide_evdw>  (1) 
-19.984467859832083

>  <r_i_glide_gscore>  (1) 
-5.2492310033778447

>  <r_i_glide_gscore_strain>  (1) 
0

>  <r_i_glide_hbond>  (1) 
-0.012000155169585136

>  <r_i_glide_ligand_efficiency>  (1) 
-0.3764617528508501

>  <r_i_glide_ligand_efficiency_ln>  (1) 
-1.3728113070716612

>  <r_i_glide_ligand_efficiency_sa>  (1) 
-0.88518757807836279

>  <r_i_glide_lipo>  (1) 
-1.2518997721270961

>  <r_i_glide_metal>  (1) 
-0

>  <r_i_glide_rewards>  (1) 
-2.8851564520393591

>  <r_lp_Energy>  (1) 
16.247630000000001

>  <s_epik_Chemistry_Notes>  (1) 
This compound has an ester and may undergo hydrolysis at high or low pH.

>  <s_epik_cmdline>  (1) 
J2VwaWtfcHl0aG9uJywgJy1waHQnLCAnMS4wJywgJy1waCcsICc3LjQnLCAnLXRuJywgJzgnLCAnLW1hJywgJzUwMCcsICctaW1hZScsICc8aW5maWxlLm1hZT4nLCAnLW9tYWUnLCAnPG91dGZpbGUubWFlPic=

>  <s_epik_input>  (1) 
TzFbQ0gyXVtDSDJdT0MoPU8pYyhjMTIpW2NIXW5jKFtjSF0yKVtOSDJd

>  <s_glide_docking_method>  (1) 
confgen

>  <s_i_glide_gridfile>  (1) 
gpcr_drd2_6luq_protein_autoprepared_prepared

>  <s_lp_Force_Field>  (1) 
S-OPLS

>  <s_lp_Variant>  (1) 
Pocket2Mol_91-1

>  <s_m_source_file>  (1) 
generated_generic_title2_ligand_Pocket2Mol_2026-06-23_prepared.sdf

>  <GenAI_Model>  (1) 
Pocket2Mol

>  <Protein>  (1) 
generic_title2

$$$$
Pocket2Mol_10
     RDKit          3D

  0  0  0  0  0  0  0  0  0  0999 V3000
M  V30 BEGIN CTAB
M  V30 COUNTS 12 12 0 0 1
M  V30 BEGIN ATOM
M  V30 1 O 12.467387 7.604346 -1.949774 0
M  V30 2 C 11.975458 6.650086 -2.785032 0
M  V30 3 C 12.575412 8.730944 -2.693700 0
M  V30 4 C 11.775405 7.144520 -4.046237 0
M  V30 5 C 11.245035 6.406538 -5.245087 0
M  V30 6 C 12.175408 8.508711 -3.974969 0
M  V30 7 H 11.825105 5.680644 -2.331462 0
M  V30 8 H 12.952858 9.590227 -2.167815 0
M  V30 9 H 11.145713 7.076083 -6.099865 0
M  V30 10 H 11.913884 5.591174 -5.522665 0
M  V30 11 H 10.262284 5.990250 -5.022276 0
M  V30 12 H 12.165908 9.240592 -4.769319 0
M  V30 END ATOM
M  V30 BEGIN BOND
M  V30 1 1 2 1
M  V30 2 1 3 1
M  V30 3 2 4 2
M  V30 4 1 5 4
M  V30 5 2 6 3
M  V30 6 1 6 4
M  V30 7 1 7 2
M  V30 8 1 8 3
M  V30 9 1 9 5
M  V30 10 1 10 5
M  V30 11 1 11 5
M  V30 12 1 12 6
M  V30 END BOND
M  V30 END CTAB
M  END
>  <i_epik_Tot_Q>  (1) 
0

>  <i_epik_Tot_abs_Q>  (1) 
0

>  <i_i_glide_confnum>  (1) 
1

>  <i_i_glide_lignum>  (1) 
13

>  <i_i_glide_posenum>  (1) 
378

>  <i_i_glide_rotatable_bonds>  (1) 
0

>  <i_lp_mmshare_version>  (1) 
72125

>  <i_m_source_file_index>  (1) 
11

>  <i_f3d_flags>  (1) 
0

>  <num_sample>  (1) 
100

>  <b_lp_Chiralities_Consistent>  (1) 
1

>  <r_epik_Charging_Adjusted_Penalty>  (1) 
0

>  <r_epik_Ionization_Penalty>  (1) 
0

>  <r_epik_Ionization_Penalty_Charging>  (1) 
0

>  <r_epik_Ionization_Penalty_Neutral>  (1) 
0

>  <r_epik_State_Penalty>  (1) 
-0

>  <r_glide_ring_energy>  (1) 
0

>  <r_i_docking_score>  (1) 
-4.8911353815340473

>  <r_i_glide_ecoul>  (1) 
-2.0375835104586764

>  <r_i_glide_eff_state_penalty>  (1) 
-0

>  <r_i_glide_einternal>  (1) 
0

>  <r_i_glide_emodel>  (1) 
-19.510057125545906

>  <r_i_glide_emodel_strain>  (1) 
0

>  <r_i_glide_energy>  (1) 
-14.959502483791796

>  <r_i_glide_erotb>  (1) 
0

>  <r_i_glide_esite>  (1) 
0

>  <r_i_glide_evdw>  (1) 
-12.921918973333121

>  <r_i_glide_gscore>  (1) 
-4.8911353815340473

>  <r_i_glide_gscore_strain>  (1) 
0

>  <r_i_glide_hbond>  (1) 
0

>  <r_i_glide_ligand_efficiency>  (1) 
-0.81518923025567458

>  <r_i_glide_ligand_efficiency_ln>  (1) 
-1.75199025397646

>  <r_i_glide_ligand_efficiency_sa>  (1) 
-1.4812971373525672

>  <r_i_glide_lipo>  (1) 
-1.4366684614044509

>  <r_i_glide_metal>  (1) 
-0

>  <r_i_glide_rewards>  (1) 
-2.5027334448941385

>  <r_lp_Energy>  (1) 
-1.206345

>  <r_lp_tautomer_probability>  (1) 
1

>  <s_epik_cmdline>  (1) 
J2VwaWtfcHl0aG9uJywgJy1waHQnLCAnMS4wJywgJy1waCcsICc3LjQnLCAnLXRuJywgJzgnLCAnLW1hJywgJzUwMCcsICctaW1hZScsICc8aW5maWxlLm1hZT4nLCAnLW9tYWUnLCAnPG91dGZpbGUubWFlPic=

>  <s_epik_input>  (1) 
W2NIXTFbY0hdb1tjSF1jMVtDSDNd

>  <s_glide_docking_method>  (1) 
confgen

>  <s_i_glide_gridfile>  (1) 
gpcr_drd2_6luq_protein_autoprepared_prepared

>  <s_lp_Force_Field>  (1) 
S-OPLS

>  <s_lp_Variant>  (1) 
Pocket2Mol_10-1

>  <s_m_source_file>  (1) 
generated_generic_title2_ligand_Pocket2Mol_2026-06-23_prepared.sdf

>  <GenAI_Model>  (1) 
Pocket2Mol

>  <Protein>  (1) 
generic_title2

$$$$
Pocket2Mol_64
     RDKit          3D

  0  0  0  0  0  0  0  0  0  0999 V3000
M  V30 BEGIN CTAB
M  V30 COUNTS 16 17 0 0 1
M  V30 BEGIN ATOM
M  V30 1 C 8.621767 5.248757 -9.692931 0
M  V30 2 O 9.475433 6.147294 -10.273824 0
M  V30 3 C 10.175410 6.989670 -9.439569 0
M  V30 4 C 10.006196 6.908874 -8.034179 0
M  V30 5 C 10.732767 7.771515 -7.189086 0
M  V30 6 C 11.067409 7.930426 -9.985025 0
M  V30 7 C 11.791760 8.790227 -9.138259 0
M  V30 8 O 9.137670 5.990224 -7.493847 0
M  V30 9 C 8.458590 5.175303 -8.361313 0
M  V30 10 F 10.575410 7.697137 -5.845520 0
M  V30 11 C 11.625182 8.710835 -7.741065 0
M  V30 12 H 8.109249 4.631981 -10.415729 0
M  V30 13 H 11.196785 7.990227 -11.054699 0
M  V30 14 H 12.476568 9.511260 -9.560920 0
M  V30 15 H 7.794806 4.489945 -7.856427 0
M  V30 16 H 12.181496 9.370811 -7.092606 0
M  V30 END ATOM
M  V30 BEGIN BOND
M  V30 1 1 2 1
M  V30 2 1 3 2
M  V30 3 1 4 3
M  V30 4 2 5 4
M  V30 5 2 6 3
M  V30 6 1 7 6
M  V30 7 1 8 4
M  V30 8 2 9 1
M  V30 9 1 9 8
M  V30 10 1 10 5
M  V30 11 1 11 5
M  V30 12 2 11 7
M  V30 13 1 12 1
M  V30 14 1 13 6
M  V30 15 1 14 7
M  V30 16 1 15 9
M  V30 17 1 16 11
M  V30 END BOND
M  V30 END CTAB
M  END
>  <i_epik_Tot_Q>  (1) 
0

>  <i_epik_Tot_abs_Q>  (1) 
0

>  <i_i_glide_confnum>  (1) 
1

>  <i_i_glide_lignum>  (1) 
71

>  <i_i_glide_posenum>  (1) 
200

>  <i_i_glide_rotatable_bonds>  (1) 
0

>  <i_lp_mmshare_version>  (1) 
72125

>  <i_m_source_file_index>  (1) 
65

>  <i_f3d_flags>  (1) 
0

>  <num_sample>  (1) 
100

>  <b_lp_Chiralities_Consistent>  (1) 
1

>  <r_epik_Charging_Adjusted_Penalty>  (1) 
0

>  <r_epik_Ionization_Penalty>  (1) 
0

>  <r_epik_Ionization_Penalty_Charging>  (1) 
0

>  <r_epik_Ionization_Penalty_Neutral>  (1) 
0

>  <r_epik_State_Penalty>  (1) 
-0

>  <r_glide_ring_energy>  (1) 
0

>  <r_i_docking_score>  (1) 
-4.8888409726147817

>  <r_i_glide_ecoul>  (1) 
0.22035331119562213

>  <r_i_glide_eff_state_penalty>  (1) 
-0

>  <r_i_glide_einternal>  (1) 
0

>  <r_i_glide_emodel>  (1) 
-25.416232650315848

>  <r_i_glide_emodel_strain>  (1) 
0

>  <r_i_glide_energy>  (1) 
-19.071275821126804

>  <r_i_glide_erotb>  (1) 
0

>  <r_i_glide_esite>  (1) 
0

>  <r_i_glide_evdw>  (1) 
-19.291629132322427

>  <r_i_glide_gscore>  (1) 
-4.8888409726147817

>  <r_i_glide_gscore_strain>  (1) 
0

>  <r_i_glide_hbond>  (1) 
0

>  <r_i_glide_ligand_efficiency>  (1) 
-0.44444008841952559

>  <r_i_glide_ligand_efficiency_ln>  (1) 
-1.4387850654939485

>  <r_i_glide_ligand_efficiency_sa>  (1) 
-0.98842590809589126

>  <r_i_glide_lipo>  (1) 
-0.71135021662854425

>  <r_i_glide_metal>  (1) 
-0

>  <r_i_glide_rewards>  (1) 
-3.2459622960494601

>  <r_lp_Energy>  (1) 
23.975801000000001

>  <r_lp_tautomer_probability>  (1) 
1

>  <s_epik_cmdline>  (1) 
J2VwaWtfcHl0aG9uJywgJy1waHQnLCAnMS4wJywgJy1waCcsICc3LjQnLCAnLXRuJywgJzgnLCAnLW1hJywgJzUwMCcsICctaW1hZScsICc8aW5maWxlLm1hZT4nLCAnLW9tYWUnLCAnPG91dGZpbGUubWFlPic=

>  <s_epik_input>  (1) 
TzFbQ0hdPVtDSF1PYyhjMTIpYyhGKVtjSF1bY0hdW2NIXTI=

>  <s_glide_docking_method>  (1) 
confgen

>  <s_i_glide_gridfile>  (1) 
gpcr_drd2_6luq_protein_autoprepared_prepared

>  <s_lp_Force_Field>  (1) 
S-OPLS

>  <s_lp_Variant>  (1) 
Pocket2Mol_64-1

>  <s_m_source_file>  (1) 
generated_generic_title2_ligand_Pocket2Mol_2026-06-23_prepared.sdf

>  <GenAI_Model>  (1) 
Pocket2Mol

>  <Protein>  (1) 
generic_title2

$$$$
Pocket2Mol_89
     RDKit          3D

  0  0  0  0  0  0  0  0  0  0999 V3000
M  V30 BEGIN CTAB
M  V30 COUNTS 23 24 0 0 1
M  V30 BEGIN ATOM
M  V30 1 C 10.261423 8.619128 -6.481645 0
M  V30 2 O 11.623309 8.341380 -6.758869 0
M  V30 3 C 9.558636 7.291772 -6.277808 0
M  V30 4 O 10.072460 6.317856 -7.157003 0
M  V30 5 C 12.060901 8.287744 -8.034542 0
M  V30 6 C 10.147046 6.640495 -8.488952 0
M  V30 7 C 9.282356 6.001662 -9.403133 0
M  V30 8 O 13.117875 8.790227 -8.397136 0
M  V30 9 C 11.114826 7.576036 -8.967052 0
M  V30 10 C 8.245015 5.020903 -8.902362 0
M  V30 11 C 11.209829 7.830002 -10.351831 0
M  V30 12 C 10.339046 7.190236 -11.253336 0
M  V30 13 C 9.375400 6.282445 -10.780848 0
M  V30 14 H 9.800912 9.185026 -7.293221 0
M  V30 15 H 10.182531 9.233131 -5.585028 0
M  V30 16 H 8.478894 7.388812 -6.385057 0
M  V30 17 H 9.771929 6.932529 -5.270171 0
M  V30 18 H 7.875079 4.390237 -9.709554 0
M  V30 19 H 8.655425 4.390097 -8.115945 0
M  V30 20 H 7.399773 5.570804 -8.490133 0
M  V30 21 H 11.948240 8.525649 -10.721939 0
M  V30 22 H 10.410953 7.396541 -12.311072 0
M  V30 23 H 8.708287 5.795585 -11.476831 0
M  V30 END ATOM
M  V30 BEGIN BOND
M  V30 1 1 2 1
M  V30 2 1 3 1
M  V30 3 1 4 3
M  V30 4 1 5 2
M  V30 5 1 6 4
M  V30 6 2 7 6
M  V30 7 2 8 5
M  V30 8 1 9 5
M  V30 9 1 9 6
M  V30 10 1 10 7
M  V30 11 2 11 9
M  V30 12 1 12 11
M  V30 13 1 13 7
M  V30 14 2 13 12
M  V30 15 1 14 1
M  V30 16 1 15 1
M  V30 17 1 16 3
M  V30 18 1 17 3
M  V30 19 1 18 10
M  V30 20 1 19 10
M  V30 21 1 20 10
M  V30 22 1 21 11
M  V30 23 1 22 12
M  V30 24 1 23 13
M  V30 END BOND
M  V30 END CTAB
M  END
>  <i_epik_Tot_Q>  (1) 
0

>  <i_epik_Tot_abs_Q>  (1) 
0

>  <i_i_glide_confnum>  (1) 
3

>  <i_i_glide_lignum>  (1) 
96

>  <i_i_glide_posenum>  (1) 
393

>  <i_i_glide_rotatable_bonds>  (1) 
0

>  <i_lp_mmshare_version>  (1) 
72125

>  <i_m_source_file_index>  (1) 
90

>  <i_f3d_flags>  (1) 
0

>  <num_sample>  (1) 
100

>  <b_lp_Chiralities_Consistent>  (1) 
1

>  <r_epik_Charging_Adjusted_Penalty>  (1) 
0

>  <r_epik_Ionization_Penalty>  (1) 
1.0524661445465699e-15

>  <r_epik_Ionization_Penalty_Charging>  (1) 
0

>  <r_epik_Ionization_Penalty_Neutral>  (1) 
1.0524661445465699e-15

>  <r_epik_State_Penalty>  (1) 
-0

>  <r_glide_ring_energy>  (1) 
0.44692708829558941

>  <r_i_docking_score>  (1) 
-4.8850733981063783

>  <r_i_glide_ecoul>  (1) 
0.559475637987494

>  <r_i_glide_eff_state_penalty>  (1) 
-0

>  <r_i_glide_einternal>  (1) 
0

>  <r_i_glide_emodel>  (1) 
-26.304128240142312

>  <r_i_glide_emodel_strain>  (1) 
0.009966162498422193

>  <r_i_glide_energy>  (1) 
-20.223794887566367

>  <r_i_glide_erotb>  (1) 
0

>  <r_i_glide_esite>  (1) 
0

>  <r_i_glide_evdw>  (1) 
-20.78327052555386

>  <r_i_glide_gscore>  (1) 
-4.8850733981063783

>  <r_i_glide_gscore_strain>  (1) 
0

>  <r_i_glide_hbond>  (1) 
0

>  <r_i_glide_ligand_efficiency>  (1) 
-0.37577487677741372

>  <r_i_glide_ligand_efficiency_ln>  (1) 
-1.3703065340554659

>  <r_i_glide_ligand_efficiency_sa>  (1) 
-0.88357250254072639

>  <r_i_glide_lipo>  (1) 
-0.54542725449679041

>  <r_i_glide_metal>  (1) 
-0

>  <r_i_glide_rewards>  (1) 
-3.3844039630300182

>  <r_lp_Energy>  (1) 
16.296869999999998

>  <r_lp_tautomer_probability>  (1) 
1

>  <s_epik_Chemistry_Notes>  (1) 
This compound has an ester and may undergo hydrolysis at high or low pH.

>  <s_epik_cmdline>  (1) 
J2VwaWtfcHl0aG9uJywgJy1waHQnLCAnMS4wJywgJy1waCcsICc3LjQnLCAnLXRuJywgJzgnLCAnLW1hJywgJzUwMCcsICctaW1hZScsICc8aW5maWxlLm1hZT4nLCAnLW9tYWUnLCAnPG91dGZpbGUubWFlPic=

>  <s_epik_input>  (1) 
TzFbQ0gyXVtDSDJdT0MoPU8pYyhjMTIpW2NIXVtjSF1bY0hdYzJbQ0gzXQ==

>  <s_glide_docking_method>  (1) 
confgen

>  <s_i_glide_gridfile>  (1) 
gpcr_drd2_6luq_protein_autoprepared_prepared

>  <s_lp_Force_Field>  (1) 
S-OPLS

>  <s_lp_Variant>  (1) 
Pocket2Mol_89-1

>  <s_m_source_file>  (1) 
generated_generic_title2_ligand_Pocket2Mol_2026-06-23_prepared.sdf

>  <GenAI_Model>  (1) 
Pocket2Mol

>  <Protein>  (1) 
generic_title2

$$$$
Pocket2Mol_24
     RDKit          3D

  0  0  0  0  0  0  0  0  0  0999 V3000
M  V30 BEGIN CTAB
M  V30 COUNTS 15 16 0 0 1
M  V30 BEGIN ATOM
M  V30 1 C 10.792192 6.867727 -6.172094 0
M  V30 2 O 10.563190 6.126149 -7.365039 0
M  V30 3 C 9.615753 6.820631 -8.166069 0 CFG=2
M  V30 4 C 10.229665 7.779251 -9.144047 0 CFG=1
M  V30 5 O 9.375419 8.078383 -10.235791 0
M  V30 6 C 10.600802 8.333227 -6.562539 0
M  V30 7 C 9.747707 8.277192 -7.792023 0 CFG=2
M  V30 8 H 10.036019 6.582616 -5.439543 0
M  V30 9 H 11.773261 6.659778 -5.744967 0
M  V30 10 H 8.629421 6.376659 -8.291124 0
M  V30 11 H 11.292123 7.736562 -9.374533 0
M  V30 12 H 8.443916 7.964427 -9.985021 0
M  V30 13 H 10.123144 8.904810 -5.766176 0
M  V30 14 H 11.547164 8.812571 -6.811261 0
M  V30 15 H 8.853371 8.897112 -7.779555 0
M  V30 END ATOM
M  V30 BEGIN BOND
M  V30 1 1 2 1
M  V30 2 1 3 2
M  V30 3 1 4 3
M  V30 4 1 5 4
M  V30 5 1 6 1
M  V30 6 1 7 3
M  V30 7 1 7 4
M  V30 8 1 7 6
M  V30 9 1 8 1
M  V30 10 1 9 1
M  V30 11 1 3 10 CFG=3
M  V30 12 1 4 11 CFG=3
M  V30 13 1 12 5
M  V30 14 1 13 6
M  V30 15 1 14 6
M  V30 16 1 7 15 CFG=3
M  V30 END BOND
M  V30 END CTAB
M  END
>  <i_epik_Tot_Q>  (1) 
0

>  <i_epik_Tot_abs_Q>  (1) 
0

>  <i_i_glide_confnum>  (1) 
2

>  <i_i_glide_lignum>  (1) 
28

>  <i_i_glide_posenum>  (1) 
338

>  <i_i_glide_rotatable_bonds>  (1) 
1

>  <i_lp_mmshare_version>  (1) 
72125

>  <i_m_source_file_index>  (1) 
25

>  <i_f3d_flags>  (1) 
0

>  <num_sample>  (1) 
100

>  <b_lp_Chiralities_Consistent>  (1) 
1

>  <r_epik_Charging_Adjusted_Penalty>  (1) 
0

>  <r_epik_Ionization_Penalty>  (1) 
4.3639151522347116e-08

>  <r_epik_Ionization_Penalty_Charging>  (1) 
0

>  <r_epik_Ionization_Penalty_Neutral>  (1) 
4.3639151522347116e-08

>  <r_epik_State_Penalty>  (1) 
-0

>  <r_glide_ring_energy>  (1) 
1.4390763670009823

>  <r_i_docking_score>  (1) 
-4.8687196980505139

>  <r_i_glide_ecoul>  (1) 
-5.9492188259511769

>  <r_i_glide_eff_state_penalty>  (1) 
-0

>  <r_i_glide_einternal>  (1) 
0.0012037178637906987

>  <r_i_glide_emodel>  (1) 
-25.438745402990833

>  <r_i_glide_emodel_strain>  (1) 
0

>  <r_i_glide_energy>  (1) 
-18.853451730756603

>  <r_i_glide_erotb>  (1) 
0

>  <r_i_glide_esite>  (1) 
0

>  <r_i_glide_evdw>  (1) 
-12.904232904805427

>  <r_i_glide_gscore>  (1) 
-4.8687196980505139

>  <r_i_glide_gscore_strain>  (1) 
0

>  <r_i_glide_hbond>  (1) 
-0.16

>  <r_i_glide_ligand_efficiency>  (1) 
-0.69553138543578774

>  <r_i_glide_ligand_efficiency_ln>  (1) 
-1.6527047505545278

>  <r_i_glide_ligand_efficiency_sa>  (1) 
-1.3305036757969999

>  <r_i_glide_lipo>  (1) 
-0.54612756285020259

>  <r_i_glide_metal>  (1) 
-0

>  <r_i_glide_rewards>  (1) 
-2.6249976660673635

>  <r_lp_Energy>  (1) 
3.2309049999999999

>  <r_lp_tautomer_probability>  (1) 
1

>  <s_epik_cmdline>  (1) 
J2VwaWtfcHl0aG9uJywgJy1waHQnLCAnMS4wJywgJy1waCcsICc3LjQnLCAnLXRuJywgJzgnLCAnLW1hJywgJzUwMCcsICctaW1hZScsICc8aW5maWxlLm1hZT4nLCAnLW9tYWUnLCAnPG91dGZpbGUubWFlPic=

>  <s_epik_input>  (1) 
TzFbQ0gyXVtDSDJdW0NIXShbQ0BIXTEyKVtDQEBIXTJbT0hd

>  <s_glide_docking_method>  (1) 
confgen

>  <s_i_glide_gridfile>  (1) 
gpcr_drd2_6luq_protein_autoprepared_prepared

>  <s_lp_Force_Field>  (1) 
S-OPLS

>  <s_lp_Variant>  (1) 
Pocket2Mol_24-1

>  <s_m_source_file>  (1) 
generated_generic_title2_ligand_Pocket2Mol_2026-06-23_prepared.sdf

>  <GenAI_Model>  (1) 
Pocket2Mol

>  <Protein>  (1) 
generic_title2

$$$$
Pocket2Mol_67
     RDKit          3D

  0  0  0  0  0  0  0  0  0  0999 V3000
M  V30 BEGIN CTAB
M  V30 COUNTS 21 22 0 0 1
M  V30 BEGIN ATOM
M  V30 1 C 9.040020 5.542861 -11.041701 0
M  V30 2 O 8.945712 5.569248 -9.624905 0
M  V30 3 C 9.775416 6.458774 -8.977387 0
M  V30 4 C 9.121115 6.974375 -11.577504 0
M  V30 5 O 10.293710 7.590224 -11.064932 0
M  V30 6 C 10.457741 7.473746 -9.702883 0
M  V30 7 C 11.311394 8.366054 -9.024206 0
M  V30 8 C 9.947327 6.359242 -7.584442 0
M  V30 9 C 10.799372 7.255645 -6.909245 0
M  V30 10 C 10.982955 7.138728 -5.410378 0
M  V30 11 C 11.482383 8.257883 -7.629754 0
M  V30 12 H 8.159127 5.039642 -11.440408 0
M  V30 13 H 9.908035 4.959314 -11.348723 0
M  V30 14 H 8.240297 7.550921 -11.293567 0
M  V30 15 H 9.167523 6.971048 -12.666263 0
M  V30 16 H 11.833647 9.135707 -9.573792 0
M  V30 17 H 9.426105 5.590749 -7.033024 0
M  V30 18 H 10.067882 6.782085 -4.938201 0
M  V30 19 H 11.775379 6.425515 -5.184327 0
M  V30 20 H 11.241843 8.100932 -4.967992 0
M  V30 21 H 12.136707 8.944383 -7.113002 0
M  V30 END ATOM
M  V30 BEGIN BOND
M  V30 1 1 2 1
M  V30 2 1 3 2
M  V30 3 1 4 1
M  V30 4 1 5 4
M  V30 5 2 6 3
M  V30 6 1 6 5
M  V30 7 1 7 6
M  V30 8 1 8 3
M  V30 9 2 9 8
M  V30 10 1 10 9
M  V30 11 2 11 7
M  V30 12 1 11 9
M  V30 13 1 12 1
M  V30 14 1 13 1
M  V30 15 1 14 4
M  V30 16 1 15 4
M  V30 17 1 16 7
M  V30 18 1 17 8
M  V30 19 1 18 10
M  V30 20 1 19 10
M  V30 21 1 20 10
M  V30 22 1 21 11
M  V30 END BOND
M  V30 END CTAB
M  END
>  <i_epik_Tot_Q>  (1) 
0

>  <i_epik_Tot_abs_Q>  (1) 
0

>  <i_i_glide_confnum>  (1) 
1

>  <i_i_glide_lignum>  (1) 
74

>  <i_i_glide_posenum>  (1) 
398

>  <i_i_glide_rotatable_bonds>  (1) 
0

>  <i_lp_mmshare_version>  (1) 
72125

>  <i_m_source_file_index>  (1) 
68

>  <i_f3d_flags>  (1) 
0

>  <num_sample>  (1) 
100

>  <b_lp_Chiralities_Consistent>  (1) 
1

>  <r_epik_Charging_Adjusted_Penalty>  (1) 
0

>  <r_epik_Ionization_Penalty>  (1) 
0

>  <r_epik_Ionization_Penalty_Charging>  (1) 
0

>  <r_epik_Ionization_Penalty_Neutral>  (1) 
0

>  <r_epik_State_Penalty>  (1) 
-0

>  <r_glide_ring_energy>  (1) 
0

>  <r_i_docking_score>  (1) 
-4.8612857259241444

>  <r_i_glide_ecoul>  (1) 
-0.19637081989664062

>  <r_i_glide_eff_state_penalty>  (1) 
-0

>  <r_i_glide_einternal>  (1) 
0

>  <r_i_glide_emodel>  (1) 
-26.56190474779687

>  <r_i_glide_emodel_strain>  (1) 
0

>  <r_i_glide_energy>  (1) 
-20.139661957386259

>  <r_i_glide_erotb>  (1) 
0

>  <r_i_glide_esite>  (1) 
0

>  <r_i_glide_evdw>  (1) 
-19.94329113748962

>  <r_i_glide_gscore>  (1) 
-4.8612857259241444

>  <r_i_glide_gscore_strain>  (1) 
0

>  <r_i_glide_hbond>  (1) 
0

>  <r_i_glide_ligand_efficiency>  (1) 
-0.44193506599310406

>  <r_i_glide_ligand_efficiency_ln>  (1) 
-1.4306755610865498

>  <r_i_glide_ligand_efficiency_sa>  (1) 
-0.98285478809310012

>  <r_i_glide_lipo>  (1) 
-0.95184781859054568

>  <r_i_glide_metal>  (1) 
-0

>  <r_i_glide_rewards>  (1) 
-2.8828177274746216

>  <r_lp_Energy>  (1) 
14.201067

>  <r_lp_tautomer_probability>  (1) 
1

>  <s_epik_cmdline>  (1) 
J2VwaWtfcHl0aG9uJywgJy1waHQnLCAnMS4wJywgJy1waCcsICc3LjQnLCAnLXRuJywgJzgnLCAnLW1hJywgJzUwMCcsICctaW1hZScsICc8aW5maWxlLm1hZT4nLCAnLW9tYWUnLCAnPG91dGZpbGUubWFlPic=

>  <s_epik_input>  (1) 
TzFbQ0gyXVtDSDJdT2MoYzEyKVtjSF1bY0hdYyhbY0hdMilbQ0gzXQ==

>  <s_glide_docking_method>  (1) 
confgen

>  <s_i_glide_gridfile>  (1) 
gpcr_drd2_6luq_protein_autoprepared_prepared

>  <s_lp_Force_Field>  (1) 
S-OPLS

>  <s_lp_Variant>  (1) 
Pocket2Mol_67-1

>  <s_m_source_file>  (1) 
generated_generic_title2_ligand_Pocket2Mol_2026-06-23_prepared.sdf

>  <GenAI_Model>  (1) 
Pocket2Mol

>  <Protein>  (1) 
generic_title2

$$$$
Pocket2Mol_42
     RDKit          3D

  0  0  0  0  0  0  0  0  0  0999 V3000
M  V30 BEGIN CTAB
M  V30 COUNTS 23 24 0 0 1
M  V30 BEGIN ATOM
M  V30 1 C 10.801845 7.865591 -9.989902 0
M  V30 2 O 9.785050 7.948803 -9.008572 0
M  V30 3 C 10.343521 7.572455 -7.758579 0 CFG=2
M  V30 4 C 10.173225 6.057568 -7.568711 0
M  V30 5 C 9.695837 8.364448 -6.618241 0
M  V30 6 C 12.006436 8.474812 -9.283198 0
M  V30 7 C 10.856722 8.889850 -5.771781 0
M  V30 8 C 11.806060 8.045810 -7.831640 0 CFG=1
M  V30 9 C 11.956814 9.167227 -6.786557 0
M  V30 10 H 10.975954 6.822216 -10.250393 0
M  V30 11 H 10.523108 8.390577 -10.901194 0
M  V30 12 H 10.640804 5.727856 -6.641250 0
M  V30 13 H 9.116211 5.793120 -7.521435 0
M  V30 14 H 10.611762 5.486373 -8.383924 0
M  V30 15 H 9.129941 9.190226 -7.043342 0
M  V30 16 H 8.991537 7.773658 -6.032080 0
M  V30 17 H 12.953548 8.134050 -9.701595 0
M  V30 18 H 11.968978 9.559984 -9.387895 0
M  V30 19 H 10.584379 9.776238 -5.197677 0
M  V30 20 H 11.179689 8.119014 -5.070504 0
M  V30 21 H 12.470728 7.218076 -7.584851 0
M  V30 22 H 11.775411 10.146545 -7.223472 0
M  V30 23 H 12.949045 9.190227 -6.337026 0
M  V30 END ATOM
M  V30 BEGIN BOND
M  V30 1 1 2 1
M  V30 2 1 3 2
M  V30 3 1 3 4 CFG=1
M  V30 4 1 5 3
M  V30 5 1 6 1
M  V30 6 1 7 5
M  V30 7 1 8 3
M  V30 8 1 8 6
M  V30 9 1 9 7
M  V30 10 1 9 8
M  V30 11 1 10 1
M  V30 12 1 11 1
M  V30 13 1 12 4
M  V30 14 1 13 4
M  V30 15 1 14 4
M  V30 16 1 15 5
M  V30 17 1 16 5
M  V30 18 1 17 6
M  V30 19 1 18 6
M  V30 20 1 19 7
M  V30 21 1 20 7
M  V30 22 1 8 21 CFG=1
M  V30 23 1 22 9
M  V30 24 1 23 9
M  V30 END BOND
M  V30 END CTAB
M  END
>  <i_epik_Tot_Q>  (1) 
0

>  <i_epik_Tot_abs_Q>  (1) 
0

>  <i_i_glide_confnum>  (1) 
4

>  <i_i_glide_lignum>  (1) 
47

>  <i_i_glide_posenum>  (1) 
24

>  <i_i_glide_rotatable_bonds>  (1) 
0

>  <i_lp_mmshare_version>  (1) 
72125

>  <i_m_source_file_index>  (1) 
43

>  <i_f3d_flags>  (1) 
0

>  <num_sample>  (1) 
100

>  <b_lp_Chiralities_Consistent>  (1) 
1

>  <r_epik_Charging_Adjusted_Penalty>  (1) 
0

>  <r_epik_Ionization_Penalty>  (1) 
2.4347883345708157e-11

>  <r_epik_Ionization_Penalty_Charging>  (1) 
0

>  <r_epik_Ionization_Penalty_Neutral>  (1) 
2.4347883345708157e-11

>  <r_epik_State_Penalty>  (1) 
-0

>  <r_glide_ring_energy>  (1) 
1.4300080397860451

>  <r_i_docking_score>  (1) 
-4.8595791032057791

>  <r_i_glide_ecoul>  (1) 
1.2426103950194187

>  <r_i_glide_eff_state_penalty>  (1) 
-0

>  <r_i_glide_einternal>  (1) 
0

>  <r_i_glide_emodel>  (1) 
-23.323291187539667

>  <r_i_glide_emodel_strain>  (1) 
0

>  <r_i_glide_energy>  (1) 
-18.098875544488092

>  <r_i_glide_erotb>  (1) 
0

>  <r_i_glide_esite>  (1) 
0

>  <r_i_glide_evdw>  (1) 
-19.34148593950751

>  <r_i_glide_gscore>  (1) 
-4.8595791032057791

>  <r_i_glide_gscore_strain>  (1) 
0

>  <r_i_glide_hbond>  (1) 
0

>  <r_i_glide_ligand_efficiency>  (1) 
-0.53995323368953096

>  <r_i_glide_ligand_efficiency_ln>  (1) 
-1.5199367406510296

>  <r_i_glide_ligand_efficiency_sa>  (1) 
-1.1231479866021581

>  <r_i_glide_lipo>  (1) 
-1.1277402786042143

>  <r_i_glide_metal>  (1) 
-0

>  <r_i_glide_rewards>  (1) 
-2.9511560868791022

>  <r_lp_Energy>  (1) 
5.4699619999999998

>  <r_lp_tautomer_probability>  (1) 
1

>  <s_epik_cmdline>  (1) 
J2VwaWtfcHl0aG9uJywgJy1waHQnLCAnMS4wJywgJy1waCcsICc3LjQnLCAnLXRuJywgJzgnLCAnLW1hJywgJzUwMCcsICctaW1hZScsICc8aW5maWxlLm1hZT4nLCAnLW9tYWUnLCAnPG91dGZpbGUubWFlPic=

>  <s_epik_input>  (1) 
TzFbQ0gyXVtDSDJdW0NASF0oW0NAXTEyW0NIM10pW0NIMl1bQ0gyXVtDSDJdMg==

>  <s_glide_docking_method>  (1) 
confgen

>  <s_i_glide_gridfile>  (1) 
gpcr_drd2_6luq_protein_autoprepared_prepared

>  <s_lp_Force_Field>  (1) 
S-OPLS

>  <s_lp_Variant>  (1) 
Pocket2Mol_42-1

>  <s_m_source_file>  (1) 
generated_generic_title2_ligand_Pocket2Mol_2026-06-23_prepared.sdf

>  <GenAI_Model>  (1) 
Pocket2Mol

>  <Protein>  (1) 
generic_title2

$$$$
Pocket2Mol_36
     RDKit          3D

  0  0  0  0  0  0  0  0  0  0999 V3000
M  V30 BEGIN CTAB
M  V30 COUNTS 15 16 0 0 1
M  V30 BEGIN ATOM
M  V30 1 C 12.476035 8.593675 -2.159687 0
M  V30 2 O 12.204333 9.590193 -3.111341 0
M  V30 3 C 11.776195 8.936600 -4.221159 0
M  V30 4 C 11.775414 7.576709 -3.985050 0
M  V30 5 C 11.375046 6.657414 -4.968884 0
M  V30 6 C 10.968212 7.169900 -6.222150 0
M  V30 7 C 10.969014 8.566406 -6.464617 0
M  V30 8 C 11.376663 9.470902 -5.457370 0
M  V30 9 O 12.203038 7.334993 -2.719786 0
M  V30 10 H 11.848462 8.746583 -1.281072 0
M  V30 11 H 13.525462 8.643805 -1.867485 0
M  V30 12 H 11.378473 5.595415 -4.772954 0
M  V30 13 H 10.654145 6.490996 -7.001320 0
M  V30 14 H 10.655553 8.943280 -7.427094 0
M  V30 15 H 11.381311 10.536788 -5.630892 0
M  V30 END ATOM
M  V30 BEGIN BOND
M  V30 1 1 2 1
M  V30 2 1 3 2
M  V30 3 1 4 3
M  V30 4 2 5 4
M  V30 5 1 6 5
M  V30 6 2 7 6
M  V30 7 2 8 3
M  V30 8 1 8 7
M  V30 9 1 9 1
M  V30 10 1 9 4
M  V30 11 1 10 1
M  V30 12 1 11 1
M  V30 13 1 12 5
M  V30 14 1 13 6
M  V30 15 1 14 7
M  V30 16 1 15 8
M  V30 END BOND
M  V30 END CTAB
M  END
>  <i_epik_Tot_Q>  (1) 
0

>  <i_epik_Tot_abs_Q>  (1) 
0

>  <i_i_glide_confnum>  (1) 
1

>  <i_i_glide_lignum>  (1) 
41

>  <i_i_glide_posenum>  (1) 
24

>  <i_i_glide_rotatable_bonds>  (1) 
0

>  <i_lp_mmshare_version>  (1) 
72125

>  <i_m_source_file_index>  (1) 
37

>  <i_f3d_flags>  (1) 
0

>  <num_sample>  (1) 
100

>  <b_lp_Chiralities_Consistent>  (1) 
1

>  <r_epik_Charging_Adjusted_Penalty>  (1) 
0

>  <r_epik_Ionization_Penalty>  (1) 
0

>  <r_epik_Ionization_Penalty_Charging>  (1) 
0

>  <r_epik_Ionization_Penalty_Neutral>  (1) 
0

>  <r_epik_State_Penalty>  (1) 
-0

>  <r_glide_ring_energy>  (1) 
0

>  <r_i_docking_score>  (1) 
-4.8504913696928664

>  <r_i_glide_ecoul>  (1) 
-1.0078462382539117

>  <r_i_glide_eff_state_penalty>  (1) 
-0

>  <r_i_glide_einternal>  (1) 
0

>  <r_i_glide_emodel>  (1) 
-26.703087737052343

>  <r_i_glide_emodel_strain>  (1) 
0

>  <r_i_glide_energy>  (1) 
-20.448443847738549

>  <r_i_glide_erotb>  (1) 
0

>  <r_i_glide_esite>  (1) 
0

>  <r_i_glide_evdw>  (1) 
-19.440597609484637

>  <r_i_glide_gscore>  (1) 
-4.8504913696928664

>  <r_i_glide_gscore_strain>  (1) 
0

>  <r_i_glide_hbond>  (1) 
0

>  <r_i_glide_ligand_efficiency>  (1) 
-0.53894348552142957

>  <r_i_glide_ligand_efficiency_ln>  (1) 
-1.5170943586746954

>  <r_i_glide_ligand_efficiency_sa>  (1) 
-1.1210476257723341

>  <r_i_glide_lipo>  (1) 
-1.6272845534805471

>  <r_i_glide_metal>  (1) 
-0

>  <r_i_glide_rewards>  (1) 
-2.1000000000000001

>  <r_lp_Energy>  (1) 
19.342482

>  <r_lp_tautomer_probability>  (1) 
1

>  <s_epik_Chemistry_Notes>  (1) 
This compound contains an acetal/aminal-like group ( X-CH(R)-Y where X, Y are N, S, or O) that may be acid/base labile, releasing an aldehyde.

>  <s_epik_cmdline>  (1) 
J2VwaWtfcHl0aG9uJywgJy1waHQnLCAnMS4wJywgJy1waCcsICc3LjQnLCAnLXRuJywgJzgnLCAnLW1hJywgJzUwMCcsICctaW1hZScsICc8aW5maWxlLm1hZT4nLCAnLW9tYWUnLCAnPG91dGZpbGUubWFlPic=

>  <s_epik_input>  (1) 
TzFbQ0gyXU9jKGMxMilbY0hdW2NIXVtjSF1bY0hdMg==

>  <s_glide_docking_method>  (1) 
confgen

>  <s_i_glide_gridfile>  (1) 
gpcr_drd2_6luq_protein_autoprepared_prepared

>  <s_lp_Force_Field>  (1) 
S-OPLS

>  <s_lp_Variant>  (1) 
Pocket2Mol_36-1

>  <s_m_source_file>  (1) 
generated_generic_title2_ligand_Pocket2Mol_2026-06-23_prepared.sdf

>  <GenAI_Model>  (1) 
Pocket2Mol

>  <Protein>  (1) 
generic_title2

$$$$
Pocket2Mol_26
     RDKit          3D

  0  0  0  0  0  0  0  0  0  0999 V3000
M  V30 BEGIN CTAB
M  V30 COUNTS 15 15 0 0 1
M  V30 BEGIN ATOM
M  V30 1 C 10.379902 7.146888 -6.363879 0
M  V30 2 O 10.382413 5.988428 -7.204337 0
M  V30 3 C 9.610104 6.138283 -8.394442 0
M  V30 4 C 10.266893 7.205133 -9.308812 0 CFG=1
M  V30 5 O 9.375024 7.574369 -10.330244 0
M  V30 6 C 10.716596 8.385623 -7.159416 0
M  V30 7 C 10.674422 8.408450 -8.494018 0
M  V30 8 H 11.112887 7.004113 -5.574541 0
M  V30 9 H 9.404781 7.267174 -5.897857 0
M  V30 10 H 8.589105 6.425308 -8.132222 0
M  V30 11 H 9.544750 5.184024 -8.916797 0
M  V30 12 H 11.155926 6.792462 -9.776696 0
M  V30 13 H 8.473856 7.590258 -9.973068 0
M  V30 14 H 11.000627 9.273081 -6.600885 0
M  V30 15 H 10.928320 9.313469 -9.040598 0
M  V30 END ATOM
M  V30 BEGIN BOND
M  V30 1 1 2 1
M  V30 2 1 3 2
M  V30 3 1 4 3
M  V30 4 1 5 4
M  V30 5 1 6 1
M  V30 6 1 7 4
M  V30 7 2 7 6
M  V30 8 1 8 1
M  V30 9 1 9 1
M  V30 10 1 10 3
M  V30 11 1 11 3
M  V30 12 1 4 12 CFG=3
M  V30 13 1 13 5
M  V30 14 1 14 6
M  V30 15 1 15 7
M  V30 END BOND
M  V30 END CTAB
M  END
>  <i_epik_Tot_Q>  (1) 
0

>  <i_epik_Tot_abs_Q>  (1) 
0

>  <i_i_glide_confnum>  (1) 
1

>  <i_i_glide_lignum>  (1) 
30

>  <i_i_glide_posenum>  (1) 
159

>  <i_i_glide_rotatable_bonds>  (1) 
1

>  <i_lp_mmshare_version>  (1) 
72125

>  <i_m_source_file_index>  (1) 
27

>  <i_f3d_flags>  (1) 
0

>  <num_sample>  (1) 
100

>  <b_lp_Chiralities_Consistent>  (1) 
1

>  <r_epik_Charging_Adjusted_Penalty>  (1) 
0

>  <r_epik_Ionization_Penalty>  (1) 
7.567869706951744e-07

>  <r_epik_Ionization_Penalty_Charging>  (1) 
0

>  <r_epik_Ionization_Penalty_Neutral>  (1) 
7.567869706951744e-07

>  <r_epik_State_Penalty>  (1) 
-0

>  <r_glide_ring_energy>  (1) 
0

>  <r_i_docking_score>  (1) 
-4.8478302042724692

>  <r_i_glide_ecoul>  (1) 
-5.7399095459630649

>  <r_i_glide_eff_state_penalty>  (1) 
-0

>  <r_i_glide_einternal>  (1) 
0.2247416847633219

>  <r_i_glide_emodel>  (1) 
-24.608552911607255

>  <r_i_glide_emodel_strain>  (1) 
0.018431348535461023

>  <r_i_glide_energy>  (1) 
-18.617663061139702

>  <r_i_glide_erotb>  (1) 
0

>  <r_i_glide_esite>  (1) 
0

>  <r_i_glide_evdw>  (1) 
-12.877753515176636

>  <r_i_glide_gscore>  (1) 
-4.8478302042724692

>  <r_i_glide_gscore_strain>  (1) 
0

>  <r_i_glide_hbond>  (1) 
-0.16

>  <r_i_glide_ligand_efficiency>  (1) 
-0.69254717203892413

>  <r_i_glide_ligand_efficiency_ln>  (1) 
-1.6456137353092926

>  <r_i_glide_ligand_efficiency_sa>  (1) 
-1.3247950809340925

>  <r_i_glide_lipo>  (1) 
-0.45795609661917858

>  <r_i_glide_metal>  (1) 
-0

>  <r_i_glide_rewards>  (1) 
-2.7250000000000001

>  <r_lp_Energy>  (1) 
2.4739009999999997

>  <r_lp_tautomer_probability>  (1) 
1

>  <s_epik_cmdline>  (1) 
J2VwaWtfcHl0aG9uJywgJy1waHQnLCAnMS4wJywgJy1waCcsICc3LjQnLCAnLXRuJywgJzgnLCAnLW1hJywgJzUwMCcsICctaW1hZScsICc8aW5maWxlLm1hZT4nLCAnLW9tYWUnLCAnPG91dGZpbGUubWFlPic=

>  <s_epik_input>  (1) 
W0NIXTE9W0NIXVtDSDJdT1tDSDJdW0NASF0xW09IXQ==

>  <s_glide_docking_method>  (1) 
confgen

>  <s_i_glide_gridfile>  (1) 
gpcr_drd2_6luq_protein_autoprepared_prepared

>  <s_lp_Force_Field>  (1) 
S-OPLS

>  <s_lp_Variant>  (1) 
Pocket2Mol_26-1

>  <s_m_source_file>  (1) 
generated_generic_title2_ligand_Pocket2Mol_2026-06-23_prepared.sdf

>  <GenAI_Model>  (1) 
Pocket2Mol

>  <Protein>  (1) 
generic_title2

$$$$
Pocket2Mol_8
     RDKit          3D

  0  0  0  0  0  0  0  0  0  0999 V3000
M  V30 BEGIN CTAB
M  V30 COUNTS 13 13 0 0 1
M  V30 BEGIN ATOM
M  V30 1 N 12.574874 7.943612 -2.241416 0
M  V30 2 C 12.297927 8.800110 -3.266801 0
M  V30 3 C 11.775452 8.247679 -4.322320 0
M  V30 4 C 12.173596 6.830805 -2.784808 0
M  V30 5 C 11.375410 8.983941 -5.585024 0
M  V30 6 C 11.565086 6.790391 -4.243206 0
M  V30 7 H 12.517671 9.851389 -3.149816 0
M  V30 8 H 12.233469 5.869534 -2.267675 0
M  V30 9 H 10.309158 8.855458 -5.774239 0
M  V30 10 H 11.580480 10.051905 -5.500887 0
M  V30 11 H 11.923779 8.596501 -6.443708 0
M  V30 12 H 12.173441 6.214632 -4.939319 0
M  V30 13 H 10.518819 6.485293 -4.253817 0
M  V30 END ATOM
M  V30 BEGIN BOND
M  V30 1 1 2 1
M  V30 2 2 3 2
M  V30 3 2 4 1
M  V30 4 1 5 3
M  V30 5 1 6 3
M  V30 6 1 6 4
M  V30 7 1 7 2
M  V30 8 1 8 4
M  V30 9 1 9 5
M  V30 10 1 10 5
M  V30 11 1 11 5
M  V30 12 1 12 6
M  V30 13 1 13 6
M  V30 END BOND
M  V30 END CTAB
M  END
>  <i_epik_Tot_Q>  (1) 
0

>  <i_epik_Tot_abs_Q>  (1) 
0

>  <i_i_glide_confnum>  (1) 
1

>  <i_i_glide_lignum>  (1) 
9

>  <i_i_glide_posenum>  (1) 
233

>  <i_i_glide_rotatable_bonds>  (1) 
0

>  <i_lp_mmshare_version>  (1) 
72125

>  <i_m_source_file_index>  (1) 
9

>  <i_f3d_flags>  (1) 
0

>  <num_sample>  (1) 
100

>  <b_lp_Chiralities_Consistent>  (1) 
1

>  <r_epik_Charging_Adjusted_Penalty>  (1) 
0

>  <r_epik_Ionization_Penalty>  (1) 
0

>  <r_epik_Ionization_Penalty_Charging>  (1) 
0

>  <r_epik_Ionization_Penalty_Neutral>  (1) 
0

>  <r_epik_State_Penalty>  (1) 
-0

>  <r_glide_ring_energy>  (1) 
0

>  <r_i_docking_score>  (1) 
-4.8463431913016324

>  <r_i_glide_ecoul>  (1) 
-0.51397254452109964

>  <r_i_glide_eff_state_penalty>  (1) 
-0

>  <r_i_glide_einternal>  (1) 
0

>  <r_i_glide_emodel>  (1) 
-21.689579317993012

>  <r_i_glide_emodel_strain>  (1) 
0

>  <r_i_glide_energy>  (1) 
-16.330842469321425

>  <r_i_glide_erotb>  (1) 
0

>  <r_i_glide_esite>  (1) 
0

>  <r_i_glide_evdw>  (1) 
-15.816869924800326

>  <r_i_glide_gscore>  (1) 
-4.8463431913016324

>  <r_i_glide_gscore_strain>  (1) 
0

>  <r_i_glide_hbond>  (1) 
0

>  <r_i_glide_ligand_efficiency>  (1) 
-0.80772386521693873

>  <r_i_glide_ligand_efficiency_ln>  (1) 
-1.735945823671438

>  <r_i_glide_ligand_efficiency_sa>  (1) 
-1.4677316688076711

>  <r_i_glide_lipo>  (1) 
-1.033956116485474

>  <r_i_glide_metal>  (1) 
-0

>  <r_i_glide_rewards>  (1) 
-2.9444476968979769

>  <r_lp_Energy>  (1) 
-3.9959819999999997

>  <r_lp_tautomer_probability>  (1) 
1

>  <s_epik_Chemistry_Notes>  (1) 
This compound has an imine and may undergo hydrolysis.

>  <s_epik_cmdline>  (1) 
J2VwaWtfcHl0aG9uJywgJy1waHQnLCAnMS4wJywgJy1waCcsICc3LjQnLCAnLXRuJywgJzgnLCAnLW1hJywgJzUwMCcsICctaW1hZScsICc8aW5maWxlLm1hZT4nLCAnLW9tYWUnLCAnPG91dGZpbGUubWFlPic=

>  <s_epik_input>  (1) 
W0NIMl0xW0NIXT1OW0NIXT1DMVtDSDNd

>  <s_glide_docking_method>  (1) 
confgen

>  <s_i_glide_gridfile>  (1) 
gpcr_drd2_6luq_protein_autoprepared_prepared

>  <s_lp_Force_Field>  (1) 
S-OPLS

>  <s_lp_Variant>  (1) 
Pocket2Mol_8-1

>  <s_m_source_file>  (1) 
generated_generic_title2_ligand_Pocket2Mol_2026-06-23_prepared.sdf

>  <GenAI_Model>  (1) 
Pocket2Mol

>  <Protein>  (1) 
generic_title2

$$$$
Pocket2Mol_15
     RDKit          3D

  0  0  0  0  0  0  0  0  0  0999 V3000
M  V30 BEGIN CTAB
M  V30 COUNTS 17 17 0 0 1
M  V30 BEGIN ATOM
M  V30 1 C 10.729396 8.392930 -6.207159 0
M  V30 2 O 11.375410 7.163294 -5.924202 0
M  V30 3 C 11.706212 9.580909 -6.110078 0
M  V30 4 O 12.575433 9.590227 -4.983795 0
M  V30 5 C 11.353690 6.788737 -4.552015 0
M  V30 6 C 12.005917 9.190226 -3.751535 0
M  V30 7 C 12.175410 7.673042 -3.585009 0
M  V30 8 H 10.351019 8.342976 -7.228534 0
M  V30 9 H 9.847341 8.535103 -5.585026 0
M  V30 10 H 12.339561 9.590224 -6.996245 0
M  V30 11 H 11.142187 10.513437 -6.120044 0
M  V30 12 H 10.315202 6.710441 -4.238856 0
M  V30 13 H 11.741753 5.772526 -4.491117 0
M  V30 14 H 10.975411 9.530137 -3.650106 0
M  V30 15 H 12.567575 9.684551 -2.958641 0
M  V30 16 H 11.900169 7.400330 -2.565808 0
M  V30 17 H 13.234822 7.434883 -3.659364 0
M  V30 END ATOM
M  V30 BEGIN BOND
M  V30 1 1 2 1
M  V30 2 1 3 1
M  V30 3 1 4 3
M  V30 4 1 5 2
M  V30 5 1 6 4
M  V30 6 1 7 5
M  V30 7 1 7 6
M  V30 8 1 8 1
M  V30 9 1 9 1
M  V30 10 1 10 3
M  V30 11 1 11 3
M  V30 12 1 12 5
M  V30 13 1 13 5
M  V30 14 1 14 6
M  V30 15 1 15 6
M  V30 16 1 16 7
M  V30 17 1 17 7
M  V30 END BOND
M  V30 END CTAB
M  END
>  <i_epik_Tot_Q>  (1) 
0

>  <i_epik_Tot_abs_Q>  (1) 
0

>  <i_i_glide_confnum>  (1) 
2

>  <i_i_glide_lignum>  (1) 
18

>  <i_i_glide_posenum>  (1) 
140

>  <i_i_glide_rotatable_bonds>  (1) 
0

>  <i_lp_mmshare_version>  (1) 
72125

>  <i_m_source_file_index>  (1) 
16

>  <i_f3d_flags>  (1) 
0

>  <num_sample>  (1) 
100

>  <b_lp_Chiralities_Consistent>  (1) 
1

>  <r_epik_Charging_Adjusted_Penalty>  (1) 
0

>  <r_epik_Ionization_Penalty>  (1) 
3.933197540425548e-12

>  <r_epik_Ionization_Penalty_Charging>  (1) 
0

>  <r_epik_Ionization_Penalty_Neutral>  (1) 
3.933197540425548e-12

>  <r_epik_State_Penalty>  (1) 
-0

>  <r_glide_ring_energy>  (1) 
0.00017049435676393324

>  <r_i_docking_score>  (1) 
-4.8453483419383385

>  <r_i_glide_ecoul>  (1) 
-0.31247783727129241

>  <r_i_glide_eff_state_penalty>  (1) 
-0

>  <r_i_glide_einternal>  (1) 
0

>  <r_i_glide_emodel>  (1) 
-21.4980978459912

>  <r_i_glide_emodel_strain>  (1) 
0

>  <r_i_glide_energy>  (1) 
-16.19261420723603

>  <r_i_glide_erotb>  (1) 
0

>  <r_i_glide_esite>  (1) 
0

>  <r_i_glide_evdw>  (1) 
-15.880136369964738

>  <r_i_glide_gscore>  (1) 
-4.8453483419383385

>  <r_i_glide_gscore_strain>  (1) 
0

>  <r_i_glide_hbond>  (1) 
0

>  <r_i_glide_ligand_efficiency>  (1) 
-0.69219262027690553

>  <r_i_glide_ligand_efficiency_ln>  (1) 
-1.644771258041299

>  <r_i_glide_ligand_efficiency_sa>  (1) 
-1.3241168478126202

>  <r_i_glide_lipo>  (1) 
-1.5242909135342322

>  <r_i_glide_metal>  (1) 
-0

>  <r_i_glide_rewards>  (1) 
-2.4801789343151746

>  <r_lp_Energy>  (1) 
9.641

>  <r_lp_tautomer_probability>  (1) 
1

>  <s_epik_cmdline>  (1) 
J2VwaWtfcHl0aG9uJywgJy1waHQnLCAnMS4wJywgJy1waCcsICc3LjQnLCAnLXRuJywgJzgnLCAnLW1hJywgJzUwMCcsICctaW1hZScsICc8aW5maWxlLm1hZT4nLCAnLW9tYWUnLCAnPG91dGZpbGUubWFlPic=

>  <s_epik_input>  (1) 
W0NIMl0xT1tDSDJdW0NIMl1bQ0gyXU9bQ0gyXTE=

>  <s_glide_docking_method>  (1) 
confgen

>  <s_i_glide_gridfile>  (1) 
gpcr_drd2_6luq_protein_autoprepared_prepared

>  <s_lp_Force_Field>  (1) 
S-OPLS

>  <s_lp_Variant>  (1) 
Pocket2Mol_15-1

>  <s_m_source_file>  (1) 
generated_generic_title2_ligand_Pocket2Mol_2026-06-23_prepared.sdf

>  <GenAI_Model>  (1) 
Pocket2Mol

>  <Protein>  (1) 
generic_title2

$$$$
Pocket2Mol_7
     RDKit          3D

  0  0  0  0  0  0  0  0  0  0999 V3000
M  V30 BEGIN CTAB
M  V30 COUNTS 11 11 0 0 1
M  V30 BEGIN ATOM
M  V30 1 N 11.775413 9.191238 -4.479165 0
M  V30 2 C 12.177346 9.091054 -3.189256 0
M  V30 3 C 12.203769 7.878717 -2.475116 0
M  V30 4 C 11.793184 6.705603 -3.123456 0
M  V30 5 C 11.372986 6.790227 -4.459260 0
M  V30 6 C 11.375750 8.049881 -5.091996 0
M  V30 7 H 12.488017 10.006453 -2.713515 0
M  V30 8 H 12.534239 7.853712 -1.448296 0
M  V30 9 H 11.800175 5.757641 -2.605728 0
M  V30 10 H 11.047726 5.908755 -4.991079 0
M  V30 11 H 11.053986 8.145058 -6.118292 0
M  V30 END ATOM
M  V30 BEGIN BOND
M  V30 1 2 2 1
M  V30 2 1 3 2
M  V30 3 2 4 3
M  V30 4 1 5 4
M  V30 5 1 6 1
M  V30 6 2 6 5
M  V30 7 1 7 2
M  V30 8 1 8 3
M  V30 9 1 9 4
M  V30 10 1 10 5
M  V30 11 1 11 6
M  V30 END BOND
M  V30 END CTAB
M  END
>  <i_epik_Tot_Q>  (1) 
0

>  <i_epik_Tot_abs_Q>  (1) 
0

>  <i_i_glide_confnum>  (1) 
1

>  <i_i_glide_lignum>  (1) 
8

>  <i_i_glide_posenum>  (1) 
254

>  <i_i_glide_rotatable_bonds>  (1) 
0

>  <i_lp_mmshare_version>  (1) 
72125

>  <i_m_source_file_index>  (1) 
8

>  <i_f3d_flags>  (1) 
0

>  <num_sample>  (1) 
100

>  <b_lp_Chiralities_Consistent>  (1) 
1

>  <r_epik_Charging_Adjusted_Penalty>  (1) 
0

>  <r_epik_Ionization_Penalty>  (1) 
0.0028947865417402485

>  <r_epik_Ionization_Penalty_Charging>  (1) 
0

>  <r_epik_Ionization_Penalty_Neutral>  (1) 
0.0028947865417402485

>  <r_epik_State_Penalty>  (1) 
-0

>  <r_glide_ring_energy>  (1) 
0

>  <r_i_docking_score>  (1) 
-4.8442250047811681

>  <r_i_glide_ecoul>  (1) 
-1.3443035020974359

>  <r_i_glide_eff_state_penalty>  (1) 
-0

>  <r_i_glide_einternal>  (1) 
0

>  <r_i_glide_emodel>  (1) 
-19.979744568057729

>  <r_i_glide_emodel_strain>  (1) 
0

>  <r_i_glide_energy>  (1) 
-15.381977401946335

>  <r_i_glide_erotb>  (1) 
0

>  <r_i_glide_esite>  (1) 
0

>  <r_i_glide_evdw>  (1) 
-14.037673899848899

>  <r_i_glide_gscore>  (1) 
-4.8442250047811681

>  <r_i_glide_gscore_strain>  (1) 
0

>  <r_i_glide_hbond>  (1) 
0

>  <r_i_glide_ligand_efficiency>  (1) 
-0.80737083413019473

>  <r_i_glide_ligand_efficiency_ln>  (1) 
-1.7351870955131523

>  <r_i_glide_ligand_efficiency_sa>  (1) 
-1.4670901687500386

>  <r_i_glide_lipo>  (1) 
-1.4487609159579959

>  <r_i_glide_metal>  (1) 
-0

>  <r_i_glide_rewards>  (1) 
-2.4919348685161125

>  <r_lp_Energy>  (1) 
11.088944

>  <r_lp_tautomer_probability>  (1) 
1

>  <s_epik_cmdline>  (1) 
J2VwaWtfcHl0aG9uJywgJy1waHQnLCAnMS4wJywgJy1waCcsICc3LjQnLCAnLXRuJywgJzgnLCAnLW1hJywgJzUwMCcsICctaW1hZScsICc8aW5maWxlLm1hZT4nLCAnLW9tYWUnLCAnPG91dGZpbGUubWFlPic=

>  <s_epik_input>  (1) 
bjFbY0hdW2NIXVtjSF1bY0hdW2NIXTE=

>  <s_glide_docking_method>  (1) 
confgen

>  <s_i_glide_gridfile>  (1) 
gpcr_drd2_6luq_protein_autoprepared_prepared

>  <s_lp_Force_Field>  (1) 
S-OPLS

>  <s_lp_Variant>  (1) 
Pocket2Mol_7-1

>  <s_m_source_file>  (1) 
generated_generic_title2_ligand_Pocket2Mol_2026-06-23_prepared.sdf

>  <GenAI_Model>  (1) 
Pocket2Mol

>  <Protein>  (1) 
generic_title2

$$$$
Pocket2Mol_16
     RDKit          3D

  0  0  0  0  0  0  0  0  0  0999 V3000
M  V30 BEGIN CTAB
M  V30 COUNTS 19 19 0 0 1
M  V30 BEGIN ATOM
M  V30 1 C 11.188147 9.345391 -5.173542 0
M  V30 2 O 10.166286 8.789868 -5.984990 0
M  V30 3 C 10.760418 7.992647 -6.998433 0
M  V30 4 C 11.066991 6.596546 -6.426343 0
M  V30 5 C 9.775606 7.876621 -8.167693 0
M  V30 6 C 12.276665 9.702244 -6.166345 0
M  V30 7 C 12.021224 8.790150 -7.364603 0
M  V30 8 H 10.827864 10.212874 -4.619473 0
M  V30 9 H 11.538535 8.607087 -4.451668 0
M  V30 10 H 11.490231 5.942605 -7.187866 0
M  V30 11 H 10.158080 6.121043 -6.056155 0
M  V30 12 H 11.775404 6.629657 -5.600362 0
M  V30 13 H 10.214316 7.334834 -9.005756 0
M  V30 14 H 8.876408 7.340202 -7.864494 0
M  V30 15 H 9.460174 8.853939 -8.531785 0
M  V30 16 H 12.161461 10.747995 -6.449453 0
M  V30 17 H 13.275649 9.589031 -5.744513 0
M  V30 18 H 12.868390 8.140167 -7.585141 0
M  V30 19 H 11.849309 9.399949 -8.252483 0
M  V30 END ATOM
M  V30 BEGIN BOND
M  V30 1 1 2 1
M  V30 2 1 3 2
M  V30 3 1 4 3
M  V30 4 1 5 3
M  V30 5 1 6 1
M  V30 6 1 7 3
M  V30 7 1 7 6
M  V30 8 1 8 1
M  V30 9 1 9 1
M  V30 10 1 10 4
M  V30 11 1 11 4
M  V30 12 1 12 4
M  V30 13 1 13 5
M  V30 14 1 14 5
M  V30 15 1 15 5
M  V30 16 1 16 6
M  V30 17 1 17 6
M  V30 18 1 18 7
M  V30 19 1 19 7
M  V30 END BOND
M  V30 END CTAB
M  END
>  <i_epik_Tot_Q>  (1) 
0

>  <i_epik_Tot_abs_Q>  (1) 
0

>  <i_i_glide_confnum>  (1) 
2

>  <i_i_glide_lignum>  (1) 
19

>  <i_i_glide_posenum>  (1) 
151

>  <i_i_glide_rotatable_bonds>  (1) 
0

>  <i_lp_mmshare_version>  (1) 
72125

>  <i_m_source_file_index>  (1) 
17

>  <i_f3d_flags>  (1) 
0

>  <num_sample>  (1) 
100

>  <b_lp_Chiralities_Consistent>  (1) 
1

>  <r_epik_Charging_Adjusted_Penalty>  (1) 
0

>  <r_epik_Ionization_Penalty>  (1) 
1.3889264151150229e-11

>  <r_epik_Ionization_Penalty_Charging>  (1) 
0

>  <r_epik_Ionization_Penalty_Neutral>  (1) 
1.3889264151150229e-11

>  <r_epik_State_Penalty>  (1) 
-0

>  <r_glide_ring_energy>  (1) 
9.1057515726855501e-05

>  <r_i_docking_score>  (1) 
-4.8439806240299905

>  <r_i_glide_ecoul>  (1) 
-0.24231132597737998

>  <r_i_glide_eff_state_penalty>  (1) 
-0

>  <r_i_glide_einternal>  (1) 
0

>  <r_i_glide_emodel>  (1) 
-20.54309362481245

>  <r_i_glide_emodel_strain>  (1) 
0.66623417108077554

>  <r_i_glide_energy>  (1) 
-16.109759120717293

>  <r_i_glide_erotb>  (1) 
0

>  <r_i_glide_esite>  (1) 
0

>  <r_i_glide_evdw>  (1) 
-15.867447794739912

>  <r_i_glide_gscore>  (1) 
-4.8439806240299905

>  <r_i_glide_gscore_strain>  (1) 
0

>  <r_i_glide_hbond>  (1) 
0

>  <r_i_glide_ligand_efficiency>  (1) 
-0.69199723200428431

>  <r_i_glide_ligand_efficiency_ln>  (1) 
-1.6443069811831652

>  <r_i_glide_ligand_efficiency_sa>  (1) 
-1.3237430834931752

>  <r_i_glide_lipo>  (1) 
-1.3903791432269805

>  <r_i_glide_metal>  (1) 
-0

>  <r_i_glide_rewards>  (1) 
-2.6238823921694072

>  <r_lp_Energy>  (1) 
0.043719999999999995

>  <r_lp_tautomer_probability>  (1) 
1

>  <s_epik_cmdline>  (1) 
J2VwaWtfcHl0aG9uJywgJy1waHQnLCAnMS4wJywgJy1waCcsICc3LjQnLCAnLXRuJywgJzgnLCAnLW1hJywgJzUwMCcsICctaW1hZScsICc8aW5maWxlLm1hZT4nLCAnLW9tYWUnLCAnPG91dGZpbGUubWFlPic=

>  <s_epik_input>  (1) 
W0NIMl0xW0NIMl1bQ0gyXU9DMShbQ0gzXSlbQ0gzXQ==

>  <s_glide_docking_method>  (1) 
confgen

>  <s_i_glide_gridfile>  (1) 
gpcr_drd2_6luq_protein_autoprepared_prepared

>  <s_lp_Force_Field>  (1) 
S-OPLS

>  <s_lp_Variant>  (1) 
Pocket2Mol_16-1

>  <s_m_source_file>  (1) 
generated_generic_title2_ligand_Pocket2Mol_2026-06-23_prepared.sdf

>  <GenAI_Model>  (1) 
Pocket2Mol

>  <Protein>  (1) 
generic_title2

$$$$
Pocket2Mol_48
     RDKit          3D

  0  0  0  0  0  0  0  0  0  0999 V3000
M  V30 BEGIN CTAB
M  V30 COUNTS 20 21 0 0 1
M  V30 BEGIN ATOM
M  V30 1 C 8.627434 4.948681 -8.385031 0
M  V30 2 O 9.066485 5.990227 -7.572666 0
M  V30 3 C 10.009555 6.853113 -8.089479 0
M  V30 4 C 10.175414 6.992581 -9.493363 0
M  V30 5 C 11.141741 7.882084 -9.999664 0
M  V30 6 C 10.809953 7.611184 -7.213033 0
M  V30 7 C 11.775397 8.498190 -7.726943 0
M  V30 8 C 9.314648 6.188659 -10.452397 0
M  V30 9 C 11.940743 8.632020 -9.118776 0
M  V30 10 N 8.175404 5.590227 -9.750971 0 CHG=1
M  V30 11 H 9.434299 4.231652 -8.537941 0
M  V30 12 H 7.775463 4.456695 -7.915529 0
M  V30 13 H 11.270130 7.988687 -11.066171 0
M  V30 14 H 10.683512 7.510613 -6.144911 0
M  V30 15 H 12.389377 9.077038 -7.052872 0
M  V30 16 H 8.941886 6.833165 -11.249394 0
M  V30 17 H 9.904031 5.399887 -10.917654 0
M  V30 18 H 12.680388 9.312060 -9.511434 0
M  V30 19 H 7.720093 4.912558 -10.342959 0
M  V30 20 H 7.521254 6.356374 -9.565841 0
M  V30 END ATOM
M  V30 BEGIN BOND
M  V30 1 1 2 1
M  V30 2 1 3 2
M  V30 3 1 4 3
M  V30 4 2 5 4
M  V30 5 2 6 3
M  V30 6 1 7 6
M  V30 7 1 8 4
M  V30 8 1 9 5
M  V30 9 2 9 7
M  V30 10 1 10 1
M  V30 11 1 10 8
M  V30 12 1 11 1
M  V30 13 1 12 1
M  V30 14 1 13 5
M  V30 15 1 14 6
M  V30 16 1 15 7
M  V30 17 1 16 8
M  V30 18 1 17 8
M  V30 19 1 18 9
M  V30 20 1 19 10
M  V30 21 1 20 10
M  V30 END BOND
M  V30 END CTAB
M  END
>  <i_epik_Tot_Q>  (1) 
1

>  <i_epik_Tot_abs_Q>  (1) 
1

>  <i_i_glide_confnum>  (1) 
2

>  <i_i_glide_lignum>  (1) 
55

>  <i_i_glide_posenum>  (1) 
262

>  <i_i_glide_rotatable_bonds>  (1) 
0

>  <i_lp_mmshare_version>  (1) 
72125

>  <i_m_source_file_index>  (1) 
49

>  <i_f3d_flags>  (1) 
0

>  <num_sample>  (1) 
100

>  <b_lp_Chiralities_Consistent>  (1) 
1

>  <r_epik_Charging_Adjusted_Penalty>  (1) 
1.7789378330503367

>  <r_epik_Ionization_Penalty>  (1) 
0.88946891652516835

>  <r_epik_Ionization_Penalty_Charging>  (1) 
0.88946891652516835

>  <r_epik_Ionization_Penalty_Neutral>  (1) 
0

>  <r_epik_State_Penalty>  (1) 
0.88946891652516835

>  <r_glide_ring_energy>  (1) 
2.090668359176616

>  <r_i_docking_score>  (1) 
-4.8435858787218038

>  <r_i_glide_ecoul>  (1) 
-6.2842792547934936

>  <r_i_glide_eff_state_penalty>  (1) 
0.88946891652516835

>  <r_i_glide_einternal>  (1) 
0

>  <r_i_glide_emodel>  (1) 
-35.815932109957259

>  <r_i_glide_emodel_strain>  (1) 
0

>  <r_i_glide_energy>  (1) 
-22.744547680666351

>  <r_i_glide_erotb>  (1) 
0

>  <r_i_glide_esite>  (1) 
-0.13518168224551169

>  <r_i_glide_evdw>  (1) 
-16.460268425872858

>  <r_i_glide_gscore>  (1) 
-5.7330547952469724

>  <r_i_glide_gscore_strain>  (1) 
0

>  <r_i_glide_hbond>  (1) 
-0.20000000000000001

>  <r_i_glide_ligand_efficiency>  (1) 
-0.48435858787218039

>  <r_i_glide_ligand_efficiency_ln>  (1) 
-1.4666044151282482

>  <r_i_glide_ligand_efficiency_sa>  (1) 
-1.0435189441266819

>  <r_i_glide_lipo>  (1) 
-0.83381902394403773

>  <r_i_glide_metal>  (1) 
-0

>  <r_i_glide_rewards>  (1) 
-2.7983987795447556

>  <r_lp_Energy>  (1) 
22.335957999999998

>  <r_lp_tautomer_probability>  (1) 
1

>  <s_epik_Chemistry_Notes>  (1) 
This compound contains an acetal/aminal-like group ( X-CH(R)-Y where X, Y are N, S, or O) that may be acid/base labile, releasing an aldehyde.

>  <s_epik_cmdline>  (1) 
J2VwaWtfcHl0aG9uJywgJy1waHQnLCAnMS4wJywgJy1waCcsICc3LjQnLCAnLXRuJywgJzgnLCAnLW1hJywgJzUwMCcsICctaW1hZScsICc8aW5maWxlLm1hZT4nLCAnLW9tYWUnLCAnPG91dGZpbGUubWFlPic=

>  <s_epik_input>  (1) 
TzFbQ0gyXVtOSF1bQ0gyXWMoYzEyKVtjSF1bY0hdW2NIXVtjSF0y

>  <s_glide_docking_method>  (1) 
confgen

>  <s_i_glide_gridfile>  (1) 
gpcr_drd2_6luq_protein_autoprepared_prepared

>  <s_lp_Force_Field>  (1) 
S-OPLS

>  <s_lp_Variant>  (1) 
Pocket2Mol_48-2

>  <s_m_source_file>  (1) 
generated_generic_title2_ligand_Pocket2Mol_2026-06-23_prepared.sdf

>  <GenAI_Model>  (1) 
Pocket2Mol

>  <Protein>  (1) 
generic_title2

$$$$
Pocket2Mol_31
     RDKit          3D

  0  0  0  0  0  0  0  0  0  0999 V3000
M  V30 BEGIN CTAB
M  V30 COUNTS 20 21 0 0 1
M  V30 BEGIN ATOM
M  V30 1 C 11.259401 8.272509 -8.779530 0
M  V30 2 O 11.906297 8.725136 -7.590681 0
M  V30 3 C 11.184388 8.316377 -6.424805 0 CFG=2
M  V30 4 C 11.405664 9.357049 -5.333514 0
M  V30 5 C 11.376673 6.824620 -6.108417 0
M  V30 6 C 9.775409 8.238901 -8.430933 0
M  V30 7 C 9.908377 6.576927 -6.401603 0
M  V30 8 C 9.777997 8.008034 -6.945258 0 CFG=1
M  V30 9 H 11.478925 8.922653 -9.626735 0
M  V30 10 H 11.616320 7.270396 -9.020710 0
M  V30 11 H 10.974531 9.043464 -4.384639 0
M  V30 12 H 10.961811 10.315377 -5.603522 0
M  V30 13 H 12.469186 9.525891 -5.163320 0
M  V30 14 H 12.048010 6.308242 -6.793937 0
M  V30 15 H 11.646380 6.620971 -5.071506 0
M  V30 16 H 9.299851 9.190016 -8.670403 0
M  V30 17 H 9.250147 7.456953 -8.979409 0
M  V30 18 H 9.722498 5.792511 -7.136230 0
M  V30 19 H 9.375109 6.394843 -5.474145 0
M  V30 20 H 8.993285 8.552664 -6.417995 0
M  V30 END ATOM
M  V30 BEGIN BOND
M  V30 1 1 2 1
M  V30 2 1 3 2
M  V30 3 1 3 4 CFG=1
M  V30 4 1 5 3
M  V30 5 1 6 1
M  V30 6 1 7 5
M  V30 7 1 8 3
M  V30 8 1 8 6
M  V30 9 1 8 7
M  V30 10 1 9 1
M  V30 11 1 10 1
M  V30 12 1 11 4
M  V30 13 1 12 4
M  V30 14 1 13 4
M  V30 15 1 14 5
M  V30 16 1 15 5
M  V30 17 1 16 6
M  V30 18 1 17 6
M  V30 19 1 18 7
M  V30 20 1 19 7
M  V30 21 1 8 20 CFG=1
M  V30 END BOND
M  V30 END CTAB
M  END
>  <i_epik_Tot_Q>  (1) 
0

>  <i_epik_Tot_abs_Q>  (1) 
0

>  <i_i_glide_confnum>  (1) 
1

>  <i_i_glide_lignum>  (1) 
35

>  <i_i_glide_posenum>  (1) 
295

>  <i_i_glide_rotatable_bonds>  (1) 
0

>  <i_lp_mmshare_version>  (1) 
72125

>  <i_m_source_file_index>  (1) 
32

>  <i_f3d_flags>  (1) 
0

>  <num_sample>  (1) 
100

>  <b_lp_Chiralities_Consistent>  (1) 
1

>  <r_epik_Charging_Adjusted_Penalty>  (1) 
0

>  <r_epik_Ionization_Penalty>  (1) 
2.3587344998035955e-11

>  <r_epik_Ionization_Penalty_Charging>  (1) 
0

>  <r_epik_Ionization_Penalty_Neutral>  (1) 
2.3587344998035955e-11

>  <r_epik_State_Penalty>  (1) 
-0

>  <r_glide_ring_energy>  (1) 
0

>  <r_i_docking_score>  (1) 
-4.8394635261990882

>  <r_i_glide_ecoul>  (1) 
-0.45869945714450888

>  <r_i_glide_eff_state_penalty>  (1) 
-0

>  <r_i_glide_einternal>  (1) 
0

>  <r_i_glide_emodel>  (1) 
-19.737658470393598

>  <r_i_glide_emodel_strain>  (1) 
0

>  <r_i_glide_energy>  (1) 
-15.283820305374054

>  <r_i_glide_erotb>  (1) 
0

>  <r_i_glide_esite>  (1) 
0

>  <r_i_glide_evdw>  (1) 
-14.825120848229545

>  <r_i_glide_gscore>  (1) 
-4.8394635261990882

>  <r_i_glide_gscore_strain>  (1) 
0

>  <r_i_glide_hbond>  (1) 
0

>  <r_i_glide_ligand_efficiency>  (1) 
-0.60493294077488602

>  <r_i_glide_ligand_efficiency_ln>  (1) 
-1.5715393394216408

>  <r_i_glide_ligand_efficiency_sa>  (1) 
-1.2098658815497723

>  <r_i_glide_lipo>  (1) 
-1.2260477019602036

>  <r_i_glide_metal>  (1) 
-0

>  <r_i_glide_rewards>  (1) 
-2.8033548632557306

>  <r_lp_Energy>  (1) 
15.613807

>  <r_lp_tautomer_probability>  (1) 
1

>  <s_epik_cmdline>  (1) 
J2VwaWtfcHl0aG9uJywgJy1waHQnLCAnMS4wJywgJy1waCcsICc3LjQnLCAnLXRuJywgJzgnLCAnLW1hJywgJzUwMCcsICctaW1hZScsICc8aW5maWxlLm1hZT4nLCAnLW9tYWUnLCAnPG91dGZpbGUubWFlPic=

>  <s_epik_input>  (1) 
TzFbQ0gyXVtDSDJdW0NASF0oW0NAXTEyW0NIM10pW0NIMl1bQ0gyXTI=

>  <s_glide_docking_method>  (1) 
confgen

>  <s_i_glide_gridfile>  (1) 
gpcr_drd2_6luq_protein_autoprepared_prepared

>  <s_lp_Force_Field>  (1) 
S-OPLS

>  <s_lp_Variant>  (1) 
Pocket2Mol_31-1

>  <s_m_source_file>  (1) 
generated_generic_title2_ligand_Pocket2Mol_2026-06-23_prepared.sdf

>  <GenAI_Model>  (1) 
Pocket2Mol

>  <Protein>  (1) 
generic_title2

$$$$
Pocket2Mol_13
     RDKit          3D

  0  0  0  0  0  0  0  0  0  0999 V3000
M  V30 BEGIN CTAB
M  V30 COUNTS 15 15 0 0 1
M  V30 BEGIN ATOM
M  V30 1 N 11.276054 6.906429 -4.785852 0
M  V30 2 C 11.775411 6.782087 -3.511190 0
M  V30 3 C 12.201233 8.037743 -3.101772 0
M  V30 4 C 11.375413 8.190583 -5.185025 0
M  V30 5 C 12.813282 8.390264 -1.779378 0
M  V30 6 N 10.959540 8.662253 -6.418234 0
M  V30 7 C 11.935916 8.935470 -4.202610 0
M  V30 8 H 11.782856 5.825539 -3.008560 0
M  V30 9 H 12.975326 7.492811 -1.185043 0
M  V30 10 H 13.775611 8.865491 -1.938051 0
M  V30 11 H 12.170430 9.073968 -1.224083 0
M  V30 12 H 11.041972 9.630722 -6.689731 0
M  V30 13 H 10.889278 6.152119 -5.336370 0
M  V30 14 H 12.134927 9.993284 -4.249532 0
M  V30 15 H 10.531724 8.070375 -7.117742 0
M  V30 END ATOM
M  V30 BEGIN BOND
M  V30 1 1 2 1
M  V30 2 2 3 2
M  V30 3 1 4 1
M  V30 4 1 5 3
M  V30 5 1 6 4
M  V30 6 1 7 3
M  V30 7 2 7 4
M  V30 8 1 8 2
M  V30 9 1 9 5
M  V30 10 1 10 5
M  V30 11 1 11 5
M  V30 12 1 12 6
M  V30 13 1 13 1
M  V30 14 1 14 7
M  V30 15 1 15 6
M  V30 END BOND
M  V30 END CTAB
M  END
>  <i_epik_Tot_Q>  (1) 
0

>  <i_epik_Tot_abs_Q>  (1) 
0

>  <i_i_glide_confnum>  (1) 
1

>  <i_i_glide_lignum>  (1) 
16

>  <i_i_glide_posenum>  (1) 
234

>  <i_i_glide_rotatable_bonds>  (1) 
0

>  <i_lp_mmshare_version>  (1) 
72125

>  <i_m_source_file_index>  (1) 
14

>  <i_f3d_flags>  (1) 
0

>  <num_sample>  (1) 
100

>  <b_lp_Chiralities_Consistent>  (1) 
1

>  <r_epik_Charging_Adjusted_Penalty>  (1) 
0

>  <r_epik_Ionization_Penalty>  (1) 
0.00031849139131666116

>  <r_epik_Ionization_Penalty_Charging>  (1) 
0

>  <r_epik_Ionization_Penalty_Neutral>  (1) 
0.00031849139131666116

>  <r_epik_State_Penalty>  (1) 
-0

>  <r_glide_ring_energy>  (1) 
0

>  <r_i_docking_score>  (1) 
-4.8373472056818985

>  <r_i_glide_ecoul>  (1) 
-1.8626707764963979

>  <r_i_glide_eff_state_penalty>  (1) 
-0

>  <r_i_glide_einternal>  (1) 
0

>  <r_i_glide_emodel>  (1) 
-24.010182135746025

>  <r_i_glide_emodel_strain>  (1) 
0.00320198504410385

>  <r_i_glide_energy>  (1) 
-17.854311539746295

>  <r_i_glide_erotb>  (1) 
0

>  <r_i_glide_esite>  (1) 
0

>  <r_i_glide_evdw>  (1) 
-15.991640763249896

>  <r_i_glide_gscore>  (1) 
-4.8373472056818985

>  <r_i_glide_gscore_strain>  (1) 
0

>  <r_i_glide_hbond>  (1) 
0

>  <r_i_glide_ligand_efficiency>  (1) 
-0.69104960081169975

>  <r_i_glide_ligand_efficiency_ln>  (1) 
-1.6420552430063511

>  <r_i_glide_ligand_efficiency_sa>  (1) 
-1.3219303302351122

>  <r_i_glide_lipo>  (1) 
-1.5083645510449437

>  <r_i_glide_metal>  (1) 
-0

>  <r_i_glide_rewards>  (1) 
-2.25

>  <r_lp_Energy>  (1) 
-3.18065

>  <r_lp_tautomer_probability>  (1) 
1

>  <s_epik_cmdline>  (1) 
J2VwaWtfcHl0aG9uJywgJy1waHQnLCAnMS4wJywgJy1waCcsICc3LjQnLCAnLXRuJywgJzgnLCAnLW1hJywgJzUwMCcsICctaW1hZScsICc8aW5maWxlLm1hZT4nLCAnLW9tYWUnLCAnPG91dGZpbGUubWFlPic=

>  <s_epik_input>  (1) 
W05IMl1DKFtDSDJdMSk9TltDSF09QzFbQ0gzXQ==

>  <s_glide_docking_method>  (1) 
confgen

>  <s_i_glide_gridfile>  (1) 
gpcr_drd2_6luq_protein_autoprepared_prepared

>  <s_lp_Force_Field>  (1) 
S-OPLS

>  <s_lp_Variant>  (1) 
Pocket2Mol_13-1

>  <s_m_source_file>  (1) 
generated_generic_title2_ligand_Pocket2Mol_2026-06-23_prepared.sdf

>  <GenAI_Model>  (1) 
Pocket2Mol

>  <Protein>  (1) 
generic_title2

$$$$
Pocket2Mol_21
     RDKit          3D

  0  0  0  0  0  0  0  0  0  0999 V3000
M  V30 BEGIN CTAB
M  V30 COUNTS 12 12 0 0 1
M  V30 BEGIN ATOM
M  V30 1 N 10.966183 8.035106 -5.982729 0
M  V30 2 C 11.161845 6.934943 -5.227290 0
M  V30 3 C 11.774300 6.993190 -3.971770 0
M  V30 4 C 12.175478 8.250624 -3.517229 0
M  V30 5 N 12.777059 8.390228 -2.273850 0
M  V30 6 N 11.993792 9.368211 -4.245173 0
M  V30 7 C 11.395616 9.181431 -5.433631 0
M  V30 8 H 10.824337 5.994387 -5.636758 0
M  V30 9 H 11.922362 6.102978 -3.378011 0
M  V30 10 H 12.930282 7.598281 -1.670031 0
M  V30 11 H 13.063498 9.297746 -1.926326 0
M  V30 12 H 11.240597 10.071672 -6.025157 0
M  V30 END ATOM
M  V30 BEGIN BOND
M  V30 1 1 2 1
M  V30 2 2 3 2
M  V30 3 1 4 3
M  V30 4 1 5 4
M  V30 5 2 6 4
M  V30 6 2 7 1
M  V30 7 1 7 6
M  V30 8 1 8 2
M  V30 9 1 9 3
M  V30 10 1 10 5
M  V30 11 1 11 5
M  V30 12 1 12 7
M  V30 END BOND
M  V30 END CTAB
M  END
>  <i_epik_Tot_Q>  (1) 
0

>  <i_epik_Tot_abs_Q>  (1) 
0

>  <i_i_glide_confnum>  (1) 
1

>  <i_i_glide_lignum>  (1) 
25

>  <i_i_glide_posenum>  (1) 
391

>  <i_i_glide_rotatable_bonds>  (1) 
0

>  <i_lp_mmshare_version>  (1) 
72125

>  <i_m_source_file_index>  (1) 
22

>  <i_f3d_flags>  (1) 
0

>  <num_sample>  (1) 
100

>  <b_lp_Chiralities_Consistent>  (1) 
1

>  <r_epik_Charging_Adjusted_Penalty>  (1) 
0.011441366301234922

>  <r_epik_Ionization_Penalty>  (1) 
0.011523414685131987

>  <r_epik_Ionization_Penalty_Charging>  (1) 
0

>  <r_epik_Ionization_Penalty_Neutral>  (1) 
0.011523414685131987

>  <r_epik_State_Penalty>  (1) 
0.011441366301234922

>  <r_glide_ring_energy>  (1) 
0

>  <r_i_docking_score>  (1) 
-4.8304889271442146

>  <r_i_glide_ecoul>  (1) 
-1.6156610678432837

>  <r_i_glide_eff_state_penalty>  (1) 
0.011441366301234922

>  <r_i_glide_einternal>  (1) 
0

>  <r_i_glide_emodel>  (1) 
-24.765439726793886

>  <r_i_glide_emodel_strain>  (1) 
0

>  <r_i_glide_energy>  (1) 
-18.688718440842745

>  <r_i_glide_erotb>  (1) 
0

>  <r_i_glide_esite>  (1) 
0

>  <r_i_glide_evdw>  (1) 
-17.073057372999461

>  <r_i_glide_gscore>  (1) 
-4.8419302934454498

>  <r_i_glide_gscore_strain>  (1) 
0

>  <r_i_glide_hbond>  (1) 
-0.19917535663544692

>  <r_i_glide_ligand_efficiency>  (1) 
-0.6900698467348878

>  <r_i_glide_ligand_efficiency_ln>  (1) 
-1.6397271752138274

>  <r_i_glide_ligand_efficiency_sa>  (1) 
-1.3200561281101302

>  <r_i_glide_lipo>  (1) 
-0.84675290798353686

>  <r_i_glide_metal>  (1) 
-0

>  <r_i_glide_rewards>  (1) 
-2.7000000000000002

>  <r_lp_Energy>  (1) 
9.3523319999999988

>  <r_lp_tautomer_probability>  (1) 
0.9999995832001739

>  <s_epik_cmdline>  (1) 
J2VwaWtfcHl0aG9uJywgJy1waHQnLCAnMS4wJywgJy1waCcsICc3LjQnLCAnLXRuJywgJzgnLCAnLW1hJywgJzUwMCcsICctaW1hZScsICc8aW5maWxlLm1hZT4nLCAnLW9tYWUnLCAnPG91dGZpbGUubWFlPic=

>  <s_epik_input>  (1) 
bjFbY0hdbltjSF1bY0hdYzFbTkgyXQ==

>  <s_glide_docking_method>  (1) 
confgen

>  <s_i_glide_gridfile>  (1) 
gpcr_drd2_6luq_protein_autoprepared_prepared

>  <s_lp_Force_Field>  (1) 
S-OPLS

>  <s_lp_Variant>  (1) 
Pocket2Mol_21-1

>  <s_m_source_file>  (1) 
generated_generic_title2_ligand_Pocket2Mol_2026-06-23_prepared.sdf

>  <GenAI_Model>  (1) 
Pocket2Mol

>  <Protein>  (1) 
generic_title2

$$$$
Pocket2Mol_72
     RDKit          3D

  0  0  0  0  0  0  0  0  0  0999 V3000
M  V30 BEGIN CTAB
M  V30 COUNTS 18 19 0 0 1
M  V30 BEGIN ATOM
M  V30 1 C 8.884005 4.989996 -10.338908 0
M  V30 2 O 8.606939 5.359243 -8.995599 0
M  V30 3 C 9.398905 6.360784 -8.476053 0
M  V30 4 C 9.418044 6.582074 -7.085511 0
M  V30 5 C 9.068004 6.247167 -11.191877 0
M  V30 6 C 10.193706 7.173668 -9.330846 0
M  V30 7 O 10.176284 6.982501 -10.695807 0
M  V30 8 C 10.230702 7.594214 -6.540929 0
M  V30 9 C 11.009130 8.181952 -8.777429 0
M  V30 10 F 11.775410 8.952974 -9.585018 0
M  V30 11 C 11.027662 8.390227 -7.384945 0
M  V30 12 H 9.775408 4.362758 -10.371656 0
M  V30 13 H 8.055230 4.391452 -10.717414 0
M  V30 14 H 8.808198 5.974225 -6.435126 0
M  V30 15 H 9.262018 5.975864 -12.229645 0
M  V30 16 H 8.172090 6.868296 -11.185027 0
M  V30 17 H 10.243350 7.758657 -5.473917 0
M  V30 18 H 11.651738 9.164632 -6.964654 0
M  V30 END ATOM
M  V30 BEGIN BOND
M  V30 1 1 2 1
M  V30 2 1 3 2
M  V30 3 2 4 3
M  V30 4 1 5 1
M  V30 5 1 6 3
M  V30 6 1 7 5
M  V30 7 1 7 6
M  V30 8 1 8 4
M  V30 9 2 9 6
M  V30 10 1 10 9
M  V30 11 2 11 8
M  V30 12 1 11 9
M  V30 13 1 12 1
M  V30 14 1 13 1
M  V30 15 1 14 4
M  V30 16 1 15 5
M  V30 17 1 16 5
M  V30 18 1 17 8
M  V30 19 1 18 11
M  V30 END BOND
M  V30 END CTAB
M  END
>  <i_epik_Tot_Q>  (1) 
0

>  <i_epik_Tot_abs_Q>  (1) 
0

>  <i_i_glide_confnum>  (1) 
1

>  <i_i_glide_lignum>  (1) 
79

>  <i_i_glide_posenum>  (1) 
229

>  <i_i_glide_rotatable_bonds>  (1) 
0

>  <i_lp_mmshare_version>  (1) 
72125

>  <i_m_source_file_index>  (1) 
73

>  <i_f3d_flags>  (1) 
0

>  <num_sample>  (1) 
100

>  <b_lp_Chiralities_Consistent>  (1) 
1

>  <r_epik_Charging_Adjusted_Penalty>  (1) 
0

>  <r_epik_Ionization_Penalty>  (1) 
0

>  <r_epik_Ionization_Penalty_Charging>  (1) 
0

>  <r_epik_Ionization_Penalty_Neutral>  (1) 
0

>  <r_epik_State_Penalty>  (1) 
-0

>  <r_glide_ring_energy>  (1) 
0

>  <r_i_docking_score>  (1) 
-4.821336093317532

>  <r_i_glide_ecoul>  (1) 
-0.29118087583673991

>  <r_i_glide_eff_state_penalty>  (1) 
-0

>  <r_i_glide_einternal>  (1) 
0

>  <r_i_glide_emodel>  (1) 
-26.215168191617742

>  <r_i_glide_emodel_strain>  (1) 
0

>  <r_i_glide_energy>  (1) 
-19.903814169292481

>  <r_i_glide_erotb>  (1) 
0

>  <r_i_glide_esite>  (1) 
0

>  <r_i_glide_evdw>  (1) 
-19.61263329345574

>  <r_i_glide_gscore>  (1) 
-4.821336093317532

>  <r_i_glide_gscore_strain>  (1) 
0

>  <r_i_glide_hbond>  (1) 
0

>  <r_i_glide_ligand_efficiency>  (1) 
-0.43830328121068474

>  <r_i_glide_ligand_efficiency_ln>  (1) 
-1.4189183910152923

>  <r_i_glide_ligand_efficiency_sa>  (1) 
-0.97477777104376695

>  <r_i_glide_lipo>  (1) 
-0.50844663278633551

>  <r_i_glide_metal>  (1) 
-0

>  <r_i_glide_rewards>  (1) 
-3.2885806644828985

>  <r_lp_Energy>  (1) 
17.335863

>  <r_lp_tautomer_probability>  (1) 
1

>  <s_epik_cmdline>  (1) 
J2VwaWtfcHl0aG9uJywgJy1waHQnLCAnMS4wJywgJy1waCcsICc3LjQnLCAnLXRuJywgJzgnLCAnLW1hJywgJzUwMCcsICctaW1hZScsICc8aW5maWxlLm1hZT4nLCAnLW9tYWUnLCAnPG91dGZpbGUubWFlPic=

>  <s_epik_input>  (1) 
TzFbQ0gyXVtDSDJdT2MoYzEyKWMoRilbY0hdW2NIXVtjSF0y

>  <s_glide_docking_method>  (1) 
confgen

>  <s_i_glide_gridfile>  (1) 
gpcr_drd2_6luq_protein_autoprepared_prepared

>  <s_lp_Force_Field>  (1) 
S-OPLS

>  <s_lp_Variant>  (1) 
Pocket2Mol_72-1

>  <s_m_source_file>  (1) 
generated_generic_title2_ligand_Pocket2Mol_2026-06-23_prepared.sdf

>  <GenAI_Model>  (1) 
Pocket2Mol

>  <Protein>  (1) 
generic_title2

$$$$
Pocket2Mol_40
     RDKit          3D

  0  0  0  0  0  0  0  0  0  0999 V3000
M  V30 BEGIN CTAB
M  V30 COUNTS 14 14 0 0 1
M  V30 BEGIN ATOM
M  V30 1 C 9.940981 7.183115 -8.695694 0
M  V30 2 O 11.323095 7.451508 -8.855810 0
M  V30 3 C 11.872784 8.291473 -7.919392 0
M  V30 4 C 9.627842 6.957118 -7.218361 0
M  V30 5 O 9.996380 8.116665 -6.488256 0
M  V30 6 C 11.242110 8.635046 -6.768278 0
M  V30 7 C 11.875560 9.590638 -5.724677 0
M  V30 8 O 11.170500 9.866137 -4.729483 0 CHG=-1
M  V30 9 O 13.030365 9.989900 -5.985025 0
M  V30 10 H 9.673036 6.309234 -9.287247 0
M  V30 11 H 9.368300 8.023774 -9.084429 0
M  V30 12 H 12.849904 8.649906 -8.210831 0
M  V30 13 H 10.162696 6.088730 -6.833006 0
M  V30 14 H 8.567898 6.764441 -7.076195 0
M  V30 END ATOM
M  V30 BEGIN BOND
M  V30 1 1 2 1
M  V30 2 1 3 2
M  V30 3 1 4 1
M  V30 4 1 5 4
M  V30 5 2 6 3
M  V30 6 1 6 5
M  V30 7 1 7 6
M  V30 8 1 8 7
M  V30 9 2 9 7
M  V30 10 1 10 1
M  V30 11 1 11 1
M  V30 12 1 12 3
M  V30 13 1 13 4
M  V30 14 1 14 4
M  V30 END BOND
M  V30 END CTAB
M  END
>  <i_epik_Tot_Q>  (1) 
-1

>  <i_epik_Tot_abs_Q>  (1) 
1

>  <i_i_glide_confnum>  (1) 
1

>  <i_i_glide_lignum>  (1) 
45

>  <i_i_glide_posenum>  (1) 
42

>  <i_i_glide_rotatable_bonds>  (1) 
1

>  <i_lp_mmshare_version>  (1) 
72125

>  <i_m_source_file_index>  (1) 
41

>  <i_f3d_flags>  (1) 
0

>  <num_sample>  (1) 
100

>  <b_lp_Chiralities_Consistent>  (1) 
1

>  <r_epik_Charging_Adjusted_Penalty>  (1) 
1.9393830553820406e-05

>  <r_epik_Ionization_Penalty>  (1) 
1.9393830553820406e-05

>  <r_epik_Ionization_Penalty_Charging>  (1) 
1.9393830553820406e-05

>  <r_epik_Ionization_Penalty_Neutral>  (1) 
0

>  <r_epik_State_Penalty>  (1) 
-0

>  <r_glide_ring_energy>  (1) 
0

>  <r_i_docking_score>  (1) 
-4.8157501484296352

>  <r_i_glide_ecoul>  (1) 
-2.2406510164241684

>  <r_i_glide_eff_state_penalty>  (1) 
-0

>  <r_i_glide_einternal>  (1) 
0.20605320975399732

>  <r_i_glide_emodel>  (1) 
-25.743579243120887

>  <r_i_glide_emodel_strain>  (1) 
0

>  <r_i_glide_energy>  (1) 
-18.770924925352169

>  <r_i_glide_erotb>  (1) 
0

>  <r_i_glide_esite>  (1) 
0

>  <r_i_glide_evdw>  (1) 
-16.530273908928002

>  <r_i_glide_gscore>  (1) 
-4.8157501484296352

>  <r_i_glide_gscore_strain>  (1) 
0

>  <r_i_glide_hbond>  (1) 
0

>  <r_i_glide_ligand_efficiency>  (1) 
-0.53508334982551498

>  <r_i_glide_ligand_efficiency_ln>  (1) 
-1.5062283026867938

>  <r_i_glide_ligand_efficiency_sa>  (1) 
-1.1130182199564769

>  <r_i_glide_lipo>  (1) 
-0.49480546718627666

>  <r_i_glide_metal>  (1) 
-0

>  <r_i_glide_rewards>  (1) 
-3.1583333333333332

>  <r_lp_Energy>  (1) 
18.695968999999998

>  <r_lp_tautomer_probability>  (1) 
1

>  <s_epik_cmdline>  (1) 
J2VwaWtfcHl0aG9uJywgJy1waHQnLCAnMS4wJywgJy1waCcsICc3LjQnLCAnLXRuJywgJzgnLCAnLW1hJywgJzUwMCcsICctaW1hZScsICc8aW5maWxlLm1hZT4nLCAnLW9tYWUnLCAnPG91dGZpbGUubWFlPic=

>  <s_epik_input>  (1) 
TzFbQ0gyXVtDSDJdT1tDSF09QzFDKD1PKVtPSF0=

>  <s_glide_docking_method>  (1) 
confgen

>  <s_i_glide_gridfile>  (1) 
gpcr_drd2_6luq_protein_autoprepared_prepared

>  <s_lp_Force_Field>  (1) 
S-OPLS

>  <s_lp_Variant>  (1) 
Pocket2Mol_40-1

>  <s_m_source_file>  (1) 
generated_generic_title2_ligand_Pocket2Mol_2026-06-23_prepared.sdf

>  <GenAI_Model>  (1) 
Pocket2Mol

>  <Protein>  (1) 
generic_title2

$$$$
Pocket2Mol_35
     RDKit          3D

  0  0  0  0  0  0  0  0  0  0999 V3000
M  V30 BEGIN CTAB
M  V30 COUNTS 17 18 0 0 1
M  V30 BEGIN ATOM
M  V30 1 C 12.175411 7.660742 -2.750046 0
M  V30 2 O 11.546166 6.703858 -3.691258 0
M  V30 3 C 11.375410 7.476041 -4.785024 0
M  V30 4 C 11.775411 8.761988 -4.669526 0
M  V30 5 C 11.652690 9.647522 -5.751450 0
M  V30 6 N 11.125413 9.190227 -6.909577 0 CHG=1
M  V30 7 C 10.702169 7.911450 -7.065110 0
M  V30 8 C 10.818587 7.006649 -5.988510 0
M  V30 9 C 12.328879 9.131441 -3.365445 0
M  V30 10 H 13.155861 7.271871 -2.477702 0
M  V30 11 H 11.588543 7.696226 -1.831343 0
M  V30 12 H 11.949925 10.684913 -5.734943 0
M  V30 13 H 10.289376 7.657444 -8.032419 0
M  V30 14 H 10.490093 5.990226 -6.086225 0
M  V30 15 H 13.363916 9.467460 -3.432915 0
M  V30 16 H 11.710302 9.871867 -2.856385 0
M  V30 17 H 11.036389 9.833753 -7.696768 0
M  V30 END ATOM
M  V30 BEGIN BOND
M  V30 1 1 2 1
M  V30 2 1 3 2
M  V30 3 2 4 3
M  V30 4 1 5 4
M  V30 5 2 6 5
M  V30 6 1 7 6
M  V30 7 1 8 3
M  V30 8 2 8 7
M  V30 9 1 9 1
M  V30 10 1 9 4
M  V30 11 1 10 1
M  V30 12 1 11 1
M  V30 13 1 12 5
M  V30 14 1 13 7
M  V30 15 1 14 8
M  V30 16 1 15 9
M  V30 17 1 16 9
M  V30 18 1 17 6
M  V30 END BOND
M  V30 END CTAB
M  END
>  <i_epik_Tot_Q>  (1) 
1

>  <i_epik_Tot_abs_Q>  (1) 
1

>  <i_i_glide_confnum>  (1) 
1

>  <i_i_glide_lignum>  (1) 
39

>  <i_i_glide_posenum>  (1) 
342

>  <i_i_glide_rotatable_bonds>  (1) 
0

>  <i_lp_mmshare_version>  (1) 
72125

>  <i_m_source_file_index>  (1) 
36

>  <i_f3d_flags>  (1) 
0

>  <num_sample>  (1) 
100

>  <b_lp_Chiralities_Consistent>  (1) 
1

>  <r_epik_Charging_Adjusted_Penalty>  (1) 
0.75885481127580245

>  <r_epik_Ionization_Penalty>  (1) 
0.37942740563790117

>  <r_epik_Ionization_Penalty_Charging>  (1) 
0.37942740563790117

>  <r_epik_Ionization_Penalty_Neutral>  (1) 
0

>  <r_epik_State_Penalty>  (1) 
0.37942740563790123

>  <r_glide_ring_energy>  (1) 
0

>  <r_i_docking_score>  (1) 
-4.8155393837022871

>  <r_i_glide_ecoul>  (1) 
0.24803329336809687

>  <r_i_glide_eff_state_penalty>  (1) 
0.37942740563790123

>  <r_i_glide_einternal>  (1) 
0

>  <r_i_glide_emodel>  (1) 
-28.431326227646629

>  <r_i_glide_emodel_strain>  (1) 
0

>  <r_i_glide_energy>  (1) 
-18.548895530959282

>  <r_i_glide_erotb>  (1) 
0

>  <r_i_glide_esite>  (1) 
0

>  <r_i_glide_evdw>  (1) 
-18.796928824327377

>  <r_i_glide_gscore>  (1) 
-5.1949667893401879

>  <r_i_glide_gscore_strain>  (1) 
0

>  <r_i_glide_hbond>  (1) 
0

>  <r_i_glide_ligand_efficiency>  (1) 
-0.53505993152247633

>  <r_i_glide_ligand_efficiency_ln>  (1) 
-1.5061623815347913

>  <r_i_glide_ligand_efficiency_sa>  (1) 
-1.1129695079231627

>  <r_i_glide_lipo>  (1) 
-1.7786363814524129

>  <r_i_glide_metal>  (1) 
-0

>  <r_i_glide_rewards>  (1) 
-2.5136889606766202

>  <r_lp_Energy>  (1) 
18.327531999999998

>  <s_epik_cmdline>  (1) 
J2VwaWtfcHl0aG9uJywgJy1waHQnLCAnMS4wJywgJy1waCcsICc3LjQnLCAnLXRuJywgJzgnLCAnLW1hJywgJzUwMCcsICctaW1hZScsICc8aW5maWxlLm1hZT4nLCAnLW9tYWUnLCAnPG91dGZpbGUubWFlPic=

>  <s_epik_input>  (1) 
TzFbQ0gyXVtDSDJdYyhjMTIpW2NIXW5bY0hdW2NIXTI=

>  <s_glide_docking_method>  (1) 
confgen

>  <s_i_glide_gridfile>  (1) 
gpcr_drd2_6luq_protein_autoprepared_prepared

>  <s_lp_Force_Field>  (1) 
S-OPLS

>  <s_lp_Variant>  (1) 
Pocket2Mol_35-1

>  <s_m_source_file>  (1) 
generated_generic_title2_ligand_Pocket2Mol_2026-06-23_prepared.sdf

>  <GenAI_Model>  (1) 
Pocket2Mol

>  <Protein>  (1) 
generic_title2

$$$$
Pocket2Mol_30
     RDKit          3D

  0  0  0  0  0  0  0  0  0  0999 V3000
M  V30 BEGIN CTAB
M  V30 COUNTS 14 14 0 0 1
M  V30 BEGIN ATOM
M  V30 1 N 11.065141 8.808329 -6.403879 0
M  V30 2 C 10.888229 7.536012 -5.995279 0
M  V30 3 C 11.375410 7.074211 -4.770816 0
M  V30 4 C 12.061243 8.001475 -3.968113 0
M  V30 5 O 12.575690 7.666555 -2.732627 0
M  V30 6 C 11.742381 9.591789 -5.550691 0
M  V30 7 N 12.257641 9.277150 -4.351079 0
M  V30 8 C 12.239760 6.407561 -2.167220 0
M  V30 9 H 10.345391 6.879787 -6.660570 0
M  V30 10 H 11.220094 6.052428 -4.461397 0
M  V30 11 H 11.890095 10.612850 -5.870472 0
M  V30 12 H 12.746957 6.294109 -1.210375 0
M  V30 13 H 11.165652 6.310065 -2.000814 0
M  V30 14 H 12.577570 5.589857 -2.795482 0
M  V30 END ATOM
M  V30 BEGIN BOND
M  V30 1 1 2 1
M  V30 2 2 3 2
M  V30 3 1 4 3
M  V30 4 1 5 4
M  V30 5 2 6 1
M  V30 6 2 7 4
M  V30 7 1 7 6
M  V30 8 1 8 5
M  V30 9 1 9 2
M  V30 10 1 10 3
M  V30 11 1 11 6
M  V30 12 1 12 8
M  V30 13 1 13 8
M  V30 14 1 14 8
M  V30 END BOND
M  V30 END CTAB
M  END
>  <i_epik_Tot_Q>  (1) 
0

>  <i_epik_Tot_abs_Q>  (1) 
0

>  <i_i_glide_confnum>  (1) 
1

>  <i_i_glide_lignum>  (1) 
34

>  <i_i_glide_posenum>  (1) 
1

>  <i_i_glide_rotatable_bonds>  (1) 
1

>  <i_lp_mmshare_version>  (1) 
72125

>  <i_m_source_file_index>  (1) 
31

>  <i_f3d_flags>  (1) 
0

>  <num_sample>  (1) 
100

>  <b_lp_Chiralities_Consistent>  (1) 
1

>  <r_epik_Charging_Adjusted_Penalty>  (1) 
0

>  <r_epik_Ionization_Penalty>  (1) 
8.6638422661064201e-06

>  <r_epik_Ionization_Penalty_Charging>  (1) 
0

>  <r_epik_Ionization_Penalty_Neutral>  (1) 
8.6638422661064201e-06

>  <r_epik_State_Penalty>  (1) 
-0

>  <r_glide_ring_energy>  (1) 
0

>  <r_i_docking_score>  (1) 
-4.814540736582936

>  <r_i_glide_ecoul>  (1) 
-1.0718435511552638

>  <r_i_glide_eff_state_penalty>  (1) 
-0

>  <r_i_glide_einternal>  (1) 
3.9561296511417252

>  <r_i_glide_emodel>  (1) 
-23.694779081682647

>  <r_i_glide_emodel_strain>  (1) 
0

>  <r_i_glide_energy>  (1) 
-19.692490183584262

>  <r_i_glide_erotb>  (1) 
0

>  <r_i_glide_esite>  (1) 
0

>  <r_i_glide_evdw>  (1) 
-18.620646632428997

>  <r_i_glide_gscore>  (1) 
-4.814540736582936

>  <r_i_glide_gscore_strain>  (1) 
0

>  <r_i_glide_hbond>  (1) 
0

>  <r_i_glide_ligand_efficiency>  (1) 
-0.601817592072867

>  <r_i_glide_ligand_efficiency_ln>  (1) 
-1.5634460571563906

>  <r_i_glide_ligand_efficiency_sa>  (1) 
-1.2036351841457342

>  <r_i_glide_lipo>  (1) 
-1.0241864497166506

>  <r_i_glide_metal>  (1) 
-0

>  <r_i_glide_rewards>  (1) 
-2.6985454225715459

>  <r_lp_Energy>  (1) 
14.393509

>  <r_lp_tautomer_probability>  (1) 
1

>  <s_epik_cmdline>  (1) 
J2VwaWtfcHl0aG9uJywgJy1waHQnLCAnMS4wJywgJy1waCcsICc3LjQnLCAnLXRuJywgJzgnLCAnLW1hJywgJzUwMCcsICctaW1hZScsICc8aW5maWxlLm1hZT4nLCAnLW9tYWUnLCAnPG91dGZpbGUubWFlPic=

>  <s_epik_input>  (1) 
bjFbY0hdbltjSF1bY0hdYzFPW0NIM10=

>  <s_glide_docking_method>  (1) 
confgen

>  <s_i_glide_gridfile>  (1) 
gpcr_drd2_6luq_protein_autoprepared_prepared

>  <s_lp_Force_Field>  (1) 
S-OPLS

>  <s_lp_Variant>  (1) 
Pocket2Mol_30-1

>  <s_m_source_file>  (1) 
generated_generic_title2_ligand_Pocket2Mol_2026-06-23_prepared.sdf

>  <GenAI_Model>  (1) 
Pocket2Mol

>  <Protein>  (1) 
generic_title2

$$$$
Pocket2Mol_24
     RDKit          3D

  0  0  0  0  0  0  0  0  0  0999 V3000
M  V30 BEGIN CTAB
M  V30 COUNTS 15 16 0 0 1
M  V30 BEGIN ATOM
M  V30 1 C 9.358770 8.364688 -6.784968 0
M  V30 2 O 10.451185 9.190252 -6.385119 0
M  V30 3 C 11.680523 8.732611 -6.937600 0 CFG=2
M  V30 4 C 11.741182 8.440031 -8.419209 0 CFG=1
M  V30 5 O 13.068127 8.390200 -8.905101 0
M  V30 6 C 9.969252 7.008157 -7.121448 0
M  V30 7 C 11.392496 7.344004 -7.423675 0 CFG=2
M  V30 8 H 8.588800 8.311098 -6.016125 0
M  V30 9 H 8.905067 8.801720 -7.675561 0
M  V30 10 H 12.575269 8.955705 -6.363043 0
M  V30 11 H 10.996627 8.846298 -9.101865 0
M  V30 12 H 13.334653 9.258322 -9.185042 0
M  V30 13 H 9.930677 6.340701 -6.259939 0
M  V30 14 H 9.479453 6.522883 -7.966386 0
M  V30 15 H 12.129463 6.579492 -7.185026 0
M  V30 END ATOM
M  V30 BEGIN BOND
M  V30 1 1 2 1
M  V30 2 1 3 2
M  V30 3 1 4 3
M  V30 4 1 5 4
M  V30 5 1 6 1
M  V30 6 1 7 3
M  V30 7 1 7 4
M  V30 8 1 7 6
M  V30 9 1 8 1
M  V30 10 1 9 1
M  V30 11 1 3 10 CFG=1
M  V30 12 1 4 11 CFG=3
M  V30 13 1 12 5
M  V30 14 1 13 6
M  V30 15 1 14 6
M  V30 16 1 7 15 CFG=1
M  V30 END BOND
M  V30 END CTAB
M  END
>  <i_epik_Tot_Q>  (1) 
0

>  <i_epik_Tot_abs_Q>  (1) 
0

>  <i_i_glide_confnum>  (1) 
1

>  <i_i_glide_lignum>  (1) 
28

>  <i_i_glide_posenum>  (1) 
364

>  <i_i_glide_rotatable_bonds>  (1) 
1

>  <i_lp_mmshare_version>  (1) 
72125

>  <i_m_source_file_index>  (1) 
25

>  <i_f3d_flags>  (1) 
0

>  <num_sample>  (1) 
100

>  <b_lp_Chiralities_Consistent>  (1) 
1

>  <r_epik_Charging_Adjusted_Penalty>  (1) 
0

>  <r_epik_Ionization_Penalty>  (1) 
4.3639151522347116e-08

>  <r_epik_Ionization_Penalty_Charging>  (1) 
0

>  <r_epik_Ionization_Penalty_Neutral>  (1) 
4.3639151522347116e-08

>  <r_epik_State_Penalty>  (1) 
-0

>  <r_glide_ring_energy>  (1) 
0

>  <r_i_docking_score>  (1) 
-4.8132254501190639

>  <r_i_glide_ecoul>  (1) 
-3.5312729791579867

>  <r_i_glide_eff_state_penalty>  (1) 
-0

>  <r_i_glide_einternal>  (1) 
0.19216332128729513

>  <r_i_glide_emodel>  (1) 
-24.947032790285725

>  <r_i_glide_emodel_strain>  (1) 
0

>  <r_i_glide_energy>  (1) 
-18.532285742690743

>  <r_i_glide_erotb>  (1) 
0

>  <r_i_glide_esite>  (1) 
0

>  <r_i_glide_evdw>  (1) 
-15.001012763532755

>  <r_i_glide_gscore>  (1) 
-4.8132254501190639

>  <r_i_glide_gscore_strain>  (1) 
0

>  <r_i_glide_hbond>  (1) 
-0.28379505102936242

>  <r_i_glide_ligand_efficiency>  (1) 
-0.68760363573129479

>  <r_i_glide_ligand_efficiency_ln>  (1) 
-1.6338670246485814

>  <r_i_glide_ligand_efficiency_sa>  (1) 
-1.3153384361780609

>  <r_i_glide_lipo>  (1) 
-0.67468881403936509

>  <r_i_glide_metal>  (1) 
-0

>  <r_i_glide_rewards>  (1) 
-2.5750000000000002

>  <r_lp_Energy>  (1) 
3.2309049999999999

>  <r_lp_tautomer_probability>  (1) 
1

>  <s_epik_cmdline>  (1) 
J2VwaWtfcHl0aG9uJywgJy1waHQnLCAnMS4wJywgJy1waCcsICc3LjQnLCAnLXRuJywgJzgnLCAnLW1hJywgJzUwMCcsICctaW1hZScsICc8aW5maWxlLm1hZT4nLCAnLW9tYWUnLCAnPG91dGZpbGUubWFlPic=

>  <s_epik_input>  (1) 
TzFbQ0gyXVtDSDJdW0NIXShbQ0BIXTEyKVtDQEBIXTJbT0hd

>  <s_glide_docking_method>  (1) 
confgen

>  <s_i_glide_gridfile>  (1) 
gpcr_drd2_6luq_protein_autoprepared_prepared

>  <s_lp_Force_Field>  (1) 
S-OPLS

>  <s_lp_Variant>  (1) 
Pocket2Mol_24-1

>  <s_m_source_file>  (1) 
generated_generic_title2_ligand_Pocket2Mol_2026-06-23_prepared.sdf

>  <GenAI_Model>  (1) 
Pocket2Mol

>  <Protein>  (1) 
generic_title2

$$$$
Pocket2Mol_23
     RDKit          3D

  0  0  0  0  0  0  0  0  0  0999 V3000
M  V30 BEGIN CTAB
M  V30 COUNTS 11 11 0 0 1
M  V30 BEGIN ATOM
M  V30 1 N 11.375411 7.599206 -9.168397 0
M  V30 2 C 12.141530 8.390228 -8.378992 0
M  V30 3 C 11.761743 8.794067 -7.083354 0
M  V30 4 C 10.184497 7.190391 -8.662750 0
M  V30 5 C 9.724901 7.541678 -7.377753 0
M  V30 6 F 12.571484 9.590227 -6.343564 0
M  V30 7 C 10.529979 8.360158 -6.573380 0
M  V30 8 H 13.085216 8.711217 -8.795218 0
M  V30 9 H 9.582289 6.563619 -9.303997 0
M  V30 10 H 8.765455 7.190226 -7.022181 0
M  V30 11 H 10.207602 8.651504 -5.585025 0
M  V30 END ATOM
M  V30 BEGIN BOND
M  V30 1 2 2 1
M  V30 2 1 3 2
M  V30 3 1 4 1
M  V30 4 2 5 4
M  V30 5 1 6 3
M  V30 6 2 7 3
M  V30 7 1 7 5
M  V30 8 1 8 2
M  V30 9 1 9 4
M  V30 10 1 10 5
M  V30 11 1 11 7
M  V30 END BOND
M  V30 END CTAB
M  END
>  <i_epik_Tot_Q>  (1) 
0

>  <i_epik_Tot_abs_Q>  (1) 
0

>  <i_i_glide_confnum>  (1) 
1

>  <i_i_glide_lignum>  (1) 
27

>  <i_i_glide_posenum>  (1) 
142

>  <i_i_glide_rotatable_bonds>  (1) 
0

>  <i_lp_mmshare_version>  (1) 
72125

>  <i_m_source_file_index>  (1) 
24

>  <i_f3d_flags>  (1) 
0

>  <num_sample>  (1) 
100

>  <b_lp_Chiralities_Consistent>  (1) 
1

>  <r_epik_Charging_Adjusted_Penalty>  (1) 
0

>  <r_epik_Ionization_Penalty>  (1) 
7.3223601380878174e-05

>  <r_epik_Ionization_Penalty_Charging>  (1) 
0

>  <r_epik_Ionization_Penalty_Neutral>  (1) 
7.3223601380878174e-05

>  <r_epik_State_Penalty>  (1) 
-0

>  <r_glide_ring_energy>  (1) 
0

>  <r_i_docking_score>  (1) 
-4.8106906126463302

>  <r_i_glide_ecoul>  (1) 
-1.3117125563379211

>  <r_i_glide_eff_state_penalty>  (1) 
-0

>  <r_i_glide_einternal>  (1) 
0

>  <r_i_glide_emodel>  (1) 
-20.47310491027411

>  <r_i_glide_emodel_strain>  (1) 
0

>  <r_i_glide_energy>  (1) 
-15.55884129647414

>  <r_i_glide_erotb>  (1) 
0

>  <r_i_glide_esite>  (1) 
0

>  <r_i_glide_evdw>  (1) 
-14.247128740136219

>  <r_i_glide_gscore>  (1) 
-4.8106906126463302

>  <r_i_glide_gscore_strain>  (1) 
0

>  <r_i_glide_hbond>  (1) 
0

>  <r_i_glide_ligand_efficiency>  (1) 
-0.68724151609233286

>  <r_i_glide_ligand_efficiency_ln>  (1) 
-1.6330065647755787

>  <r_i_glide_ligand_efficiency_sa>  (1) 
-1.3146457262287963

>  <r_i_glide_lipo>  (1) 
-0.7682439588554979

>  <r_i_glide_metal>  (1) 
-0

>  <r_i_glide_rewards>  (1) 
-3.1333333333333333

>  <r_lp_Energy>  (1) 
10.789624

>  <r_lp_tautomer_probability>  (1) 
1

>  <s_epik_cmdline>  (1) 
J2VwaWtfcHl0aG9uJywgJy1waHQnLCAnMS4wJywgJy1waCcsICc3LjQnLCAnLXRuJywgJzgnLCAnLW1hJywgJzUwMCcsICctaW1hZScsICc8aW5maWxlLm1hZT4nLCAnLW9tYWUnLCAnPG91dGZpbGUubWFlPic=

>  <s_epik_input>  (1) 
W2NIXTFbY0hdW2NIXW5bY0hdYzFG

>  <s_glide_docking_method>  (1) 
confgen

>  <s_i_glide_gridfile>  (1) 
gpcr_drd2_6luq_protein_autoprepared_prepared

>  <s_lp_Force_Field>  (1) 
S-OPLS

>  <s_lp_Variant>  (1) 
Pocket2Mol_23-1

>  <s_m_source_file>  (1) 
generated_generic_title2_ligand_Pocket2Mol_2026-06-23_prepared.sdf

>  <GenAI_Model>  (1) 
Pocket2Mol

>  <Protein>  (1) 
generic_title2

$$$$
Pocket2Mol_13
     RDKit          3D

  0  0  0  0  0  0  0  0  0  0999 V3000
M  V30 BEGIN CTAB
M  V30 COUNTS 15 15 0 0 1
M  V30 BEGIN ATOM
M  V30 1 N 9.402584 7.544429 -8.081861 0
M  V30 2 C 9.375408 7.048949 -6.801575 0
M  V30 3 C 10.653731 7.172596 -6.274340 0
M  V30 4 C 10.648040 7.966879 -8.373675 0
M  V30 5 C 11.105548 6.764315 -4.900626 0
M  V30 6 N 11.024637 8.516253 -9.585026 0
M  V30 7 C 11.461753 7.771134 -7.310823 0
M  V30 8 H 8.460355 6.657813 -6.380672 0
M  V30 9 H 10.267145 6.378327 -4.320614 0
M  V30 10 H 11.860249 5.982547 -4.971726 0
M  V30 11 H 11.533460 7.615946 -4.372236 0
M  V30 12 H 11.965790 8.828535 -9.777548 0
M  V30 13 H 8.600613 7.590227 -8.710408 0
M  V30 14 H 12.511204 8.019419 -7.266537 0
M  V30 15 H 10.380310 8.635873 -10.353400 0
M  V30 END ATOM
M  V30 BEGIN BOND
M  V30 1 1 2 1
M  V30 2 2 3 2
M  V30 3 1 4 1
M  V30 4 1 5 3
M  V30 5 1 6 4
M  V30 6 1 7 3
M  V30 7 2 7 4
M  V30 8 1 8 2
M  V30 9 1 9 5
M  V30 10 1 10 5
M  V30 11 1 11 5
M  V30 12 1 12 6
M  V30 13 1 13 1
M  V30 14 1 14 7
M  V30 15 1 15 6
M  V30 END BOND
M  V30 END CTAB
M  END
>  <i_epik_Tot_Q>  (1) 
0

>  <i_epik_Tot_abs_Q>  (1) 
0

>  <i_i_glide_confnum>  (1) 
1

>  <i_i_glide_lignum>  (1) 
16

>  <i_i_glide_posenum>  (1) 
198

>  <i_i_glide_rotatable_bonds>  (1) 
0

>  <i_lp_mmshare_version>  (1) 
72125

>  <i_m_source_file_index>  (1) 
14

>  <i_f3d_flags>  (1) 
0

>  <num_sample>  (1) 
100

>  <b_lp_Chiralities_Consistent>  (1) 
1

>  <r_epik_Charging_Adjusted_Penalty>  (1) 
0

>  <r_epik_Ionization_Penalty>  (1) 
0.00031849139131666116

>  <r_epik_Ionization_Penalty_Charging>  (1) 
0

>  <r_epik_Ionization_Penalty_Neutral>  (1) 
0.00031849139131666116

>  <r_epik_State_Penalty>  (1) 
-0

>  <r_glide_ring_energy>  (1) 
0

>  <r_i_docking_score>  (1) 
-4.792012911420632

>  <r_i_glide_ecoul>  (1) 
-3.4377553327745023

>  <r_i_glide_eff_state_penalty>  (1) 
-0

>  <r_i_glide_einternal>  (1) 
0

>  <r_i_glide_emodel>  (1) 
-23.530045114864127

>  <r_i_glide_emodel_strain>  (1) 
0.0026178224512740655

>  <r_i_glide_energy>  (1) 
-17.431311499057756

>  <r_i_glide_erotb>  (1) 
0

>  <r_i_glide_esite>  (1) 
-0.10000000000000001

>  <r_i_glide_evdw>  (1) 
-13.993556166283254

>  <r_i_glide_gscore>  (1) 
-4.792012911420632

>  <r_i_glide_gscore_strain>  (1) 
0

>  <r_i_glide_hbond>  (1) 
-0.16

>  <r_i_glide_ligand_efficiency>  (1) 
-0.6845732730600903

>  <r_i_glide_ligand_efficiency_ln>  (1) 
-1.6266663506208163

>  <r_i_glide_ligand_efficiency_sa>  (1) 
-1.3095415609292043

>  <r_i_glide_lipo>  (1) 
-0.76667180319029382

>  <r_i_glide_metal>  (1) 
-0

>  <r_i_glide_rewards>  (1) 
-2.5499999999999998

>  <r_lp_Energy>  (1) 
-3.18065

>  <r_lp_tautomer_probability>  (1) 
1

>  <s_epik_cmdline>  (1) 
J2VwaWtfcHl0aG9uJywgJy1waHQnLCAnMS4wJywgJy1waCcsICc3LjQnLCAnLXRuJywgJzgnLCAnLW1hJywgJzUwMCcsICctaW1hZScsICc8aW5maWxlLm1hZT4nLCAnLW9tYWUnLCAnPG91dGZpbGUubWFlPic=

>  <s_epik_input>  (1) 
W05IMl1DKFtDSDJdMSk9TltDSF09QzFbQ0gzXQ==

>  <s_glide_docking_method>  (1) 
confgen

>  <s_i_glide_gridfile>  (1) 
gpcr_drd2_6luq_protein_autoprepared_prepared

>  <s_lp_Force_Field>  (1) 
S-OPLS

>  <s_lp_Variant>  (1) 
Pocket2Mol_13-1

>  <s_m_source_file>  (1) 
generated_generic_title2_ligand_Pocket2Mol_2026-06-23_prepared.sdf

>  <GenAI_Model>  (1) 
Pocket2Mol

>  <Protein>  (1) 
generic_title2

$$$$
Pocket2Mol_30
     RDKit          3D

  0  0  0  0  0  0  0  0  0  0999 V3000
M  V30 BEGIN CTAB
M  V30 COUNTS 14 14 0 0 1
M  V30 BEGIN ATOM
M  V30 1 N 10.859709 8.641307 -6.430264 0
M  V30 2 C 10.865798 7.343494 -6.060021 0
M  V30 3 C 11.375411 6.923925 -4.829303 0
M  V30 4 C 11.881636 7.909436 -3.985025 0
M  V30 5 O 12.398386 7.581506 -2.747073 0
M  V30 6 C 11.375168 9.492270 -5.530260 0
M  V30 7 N 11.891506 9.221026 -4.321773 0
M  V30 8 C 12.830461 8.632431 -1.890294 0
M  V30 9 H 10.456609 6.632791 -6.762732 0
M  V30 10 H 11.373916 5.882511 -4.543764 0
M  V30 11 H 11.373896 10.533942 -5.815807 0
M  V30 12 H 13.206899 8.219861 -0.955154 0
M  V30 13 H 13.642435 9.190201 -2.354954 0
M  V30 14 H 12.013211 9.314510 -1.648331 0
M  V30 END ATOM
M  V30 BEGIN BOND
M  V30 1 1 2 1
M  V30 2 2 3 2
M  V30 3 1 4 3
M  V30 4 1 5 4
M  V30 5 2 6 1
M  V30 6 2 7 4
M  V30 7 1 7 6
M  V30 8 1 8 5
M  V30 9 1 9 2
M  V30 10 1 10 3
M  V30 11 1 11 6
M  V30 12 1 12 8
M  V30 13 1 13 8
M  V30 14 1 14 8
M  V30 END BOND
M  V30 END CTAB
M  END
>  <i_epik_Tot_Q>  (1) 
0

>  <i_epik_Tot_abs_Q>  (1) 
0

>  <i_i_glide_confnum>  (1) 
1

>  <i_i_glide_lignum>  (1) 
34

>  <i_i_glide_posenum>  (1) 
313

>  <i_i_glide_rotatable_bonds>  (1) 
1

>  <i_lp_mmshare_version>  (1) 
72125

>  <i_m_source_file_index>  (1) 
31

>  <i_f3d_flags>  (1) 
0

>  <num_sample>  (1) 
100

>  <b_lp_Chiralities_Consistent>  (1) 
1

>  <r_epik_Charging_Adjusted_Penalty>  (1) 
0

>  <r_epik_Ionization_Penalty>  (1) 
8.6638422661064201e-06

>  <r_epik_Ionization_Penalty_Charging>  (1) 
0

>  <r_epik_Ionization_Penalty_Neutral>  (1) 
8.6638422661064201e-06

>  <r_epik_State_Penalty>  (1) 
-0

>  <r_glide_ring_energy>  (1) 
0

>  <r_i_docking_score>  (1) 
-4.7828160582452126

>  <r_i_glide_ecoul>  (1) 
-0.976784556868594

>  <r_i_glide_eff_state_penalty>  (1) 
-0

>  <r_i_glide_einternal>  (1) 
0.014744109539442274

>  <r_i_glide_emodel>  (1) 
-25.331464929996269

>  <r_i_glide_emodel_strain>  (1) 
0

>  <r_i_glide_energy>  (1) 
-19.397889885447764

>  <r_i_glide_erotb>  (1) 
0

>  <r_i_glide_esite>  (1) 
0

>  <r_i_glide_evdw>  (1) 
-18.42110532857917

>  <r_i_glide_gscore>  (1) 
-4.7828160582452126

>  <r_i_glide_gscore_strain>  (1) 
0

>  <r_i_glide_hbond>  (1) 
0

>  <r_i_glide_ligand_efficiency>  (1) 
-0.59785200728065158

>  <r_i_glide_ligand_efficiency_ln>  (1) 
-1.5531439689665893

>  <r_i_glide_ligand_efficiency_sa>  (1) 
-1.1957040145613034

>  <r_i_glide_lipo>  (1) 
-1.0152741820716327

>  <r_i_glide_metal>  (1) 
-0

>  <r_i_glide_rewards>  (1) 
-2.6999689262143334

>  <r_lp_Energy>  (1) 
14.393509

>  <r_lp_tautomer_probability>  (1) 
1

>  <s_epik_cmdline>  (1) 
J2VwaWtfcHl0aG9uJywgJy1waHQnLCAnMS4wJywgJy1waCcsICc3LjQnLCAnLXRuJywgJzgnLCAnLW1hJywgJzUwMCcsICctaW1hZScsICc8aW5maWxlLm1hZT4nLCAnLW9tYWUnLCAnPG91dGZpbGUubWFlPic=

>  <s_epik_input>  (1) 
bjFbY0hdbltjSF1bY0hdYzFPW0NIM10=

>  <s_glide_docking_method>  (1) 
confgen

>  <s_i_glide_gridfile>  (1) 
gpcr_drd2_6luq_protein_autoprepared_prepared

>  <s_lp_Force_Field>  (1) 
S-OPLS

>  <s_lp_Variant>  (1) 
Pocket2Mol_30-1

>  <s_m_source_file>  (1) 
generated_generic_title2_ligand_Pocket2Mol_2026-06-23_prepared.sdf

>  <GenAI_Model>  (1) 
Pocket2Mol

>  <Protein>  (1) 
generic_title2

$$$$
Pocket2Mol_7
     RDKit          3D

  0  0  0  0  0  0  0  0  0  0999 V3000
M  V30 BEGIN CTAB
M  V30 COUNTS 11 11 0 0 1
M  V30 BEGIN ATOM
M  V30 1 N 12.132782 9.509603 -4.643977 0
M  V30 2 C 11.373802 8.894532 -5.582850 0
M  V30 3 C 10.975412 7.545620 -5.498183 0
M  V30 4 C 11.382060 6.790498 -4.387218 0
M  V30 5 C 12.175414 7.413284 -3.407252 0
M  V30 6 C 12.522099 8.768140 -3.578374 0
M  V30 7 H 11.073359 9.499194 -6.425962 0
M  V30 8 H 10.367012 7.101562 -6.272879 0
M  V30 9 H 11.094877 5.754372 -4.288890 0
M  V30 10 H 12.510326 6.864631 -2.539515 0
M  V30 11 H 13.128462 9.272338 -2.840544 0
M  V30 END ATOM
M  V30 BEGIN BOND
M  V30 1 2 2 1
M  V30 2 1 3 2
M  V30 3 2 4 3
M  V30 4 1 5 4
M  V30 5 1 6 1
M  V30 6 2 6 5
M  V30 7 1 7 2
M  V30 8 1 8 3
M  V30 9 1 9 4
M  V30 10 1 10 5
M  V30 11 1 11 6
M  V30 END BOND
M  V30 END CTAB
M  END
>  <i_epik_Tot_Q>  (1) 
0

>  <i_epik_Tot_abs_Q>  (1) 
0

>  <i_i_glide_confnum>  (1) 
1

>  <i_i_glide_lignum>  (1) 
8

>  <i_i_glide_posenum>  (1) 
245

>  <i_i_glide_rotatable_bonds>  (1) 
0

>  <i_lp_mmshare_version>  (1) 
72125

>  <i_m_source_file_index>  (1) 
8

>  <i_f3d_flags>  (1) 
0

>  <num_sample>  (1) 
100

>  <b_lp_Chiralities_Consistent>  (1) 
1

>  <r_epik_Charging_Adjusted_Penalty>  (1) 
0

>  <r_epik_Ionization_Penalty>  (1) 
0.0028947865417402485

>  <r_epik_Ionization_Penalty_Charging>  (1) 
0

>  <r_epik_Ionization_Penalty_Neutral>  (1) 
0.0028947865417402485

>  <r_epik_State_Penalty>  (1) 
-0

>  <r_glide_ring_energy>  (1) 
0

>  <r_i_docking_score>  (1) 
-4.7773977051582239

>  <r_i_glide_ecoul>  (1) 
-1.2520588893886091

>  <r_i_glide_eff_state_penalty>  (1) 
-0

>  <r_i_glide_einternal>  (1) 
0

>  <r_i_glide_emodel>  (1) 
-19.979476504243372

>  <r_i_glide_emodel_strain>  (1) 
0

>  <r_i_glide_energy>  (1) 
-15.44513669002067

>  <r_i_glide_erotb>  (1) 
0

>  <r_i_glide_esite>  (1) 
0

>  <r_i_glide_evdw>  (1) 
-14.193077800632061

>  <r_i_glide_gscore>  (1) 
-4.7773977051582239

>  <r_i_glide_gscore_strain>  (1) 
0

>  <r_i_glide_hbond>  (1) 
0

>  <r_i_glide_ligand_efficiency>  (1) 
-0.79623295085970403

>  <r_i_glide_ligand_efficiency_ln>  (1) 
-1.7112497540768492

>  <r_i_glide_ligand_efficiency_sa>  (1) 
-1.4468512916986693

>  <r_i_glide_lipo>  (1) 
-1.479962543366832

>  <r_i_glide_metal>  (1) 
-0

>  <r_i_glide_rewards>  (1) 
-2.3999724383514973

>  <r_lp_Energy>  (1) 
11.088944

>  <r_lp_tautomer_probability>  (1) 
1

>  <s_epik_cmdline>  (1) 
J2VwaWtfcHl0aG9uJywgJy1waHQnLCAnMS4wJywgJy1waCcsICc3LjQnLCAnLXRuJywgJzgnLCAnLW1hJywgJzUwMCcsICctaW1hZScsICc8aW5maWxlLm1hZT4nLCAnLW9tYWUnLCAnPG91dGZpbGUubWFlPic=

>  <s_epik_input>  (1) 
bjFbY0hdW2NIXVtjSF1bY0hdW2NIXTE=

>  <s_glide_docking_method>  (1) 
confgen

>  <s_i_glide_gridfile>  (1) 
gpcr_drd2_6luq_protein_autoprepared_prepared

>  <s_lp_Force_Field>  (1) 
S-OPLS

>  <s_lp_Variant>  (1) 
Pocket2Mol_7-1

>  <s_m_source_file>  (1) 
generated_generic_title2_ligand_Pocket2Mol_2026-06-23_prepared.sdf

>  <GenAI_Model>  (1) 
Pocket2Mol

>  <Protein>  (1) 
generic_title2

$$$$
Pocket2Mol_24
     RDKit          3D

  0  0  0  0  0  0  0  0  0  0999 V3000
M  V30 BEGIN CTAB
M  V30 COUNTS 15 16 0 0 1
M  V30 BEGIN ATOM
M  V30 1 C 10.916998 7.626883 -6.052558 0
M  V30 2 O 9.576532 8.012692 -6.370163 0
M  V30 3 C 9.442657 8.379826 -7.747369 0 CFG=2
M  V30 4 C 9.848305 7.327123 -8.755648 0 CFG=1
M  V30 5 O 9.375432 7.587568 -10.058036 0
M  V30 6 C 11.776370 8.182432 -7.185386 0
M  V30 7 C 10.828272 8.390504 -8.312658 0 CFG=2
M  V30 8 H 11.232058 8.004956 -5.074861 0
M  V30 9 H 10.986491 6.533054 -6.032898 0
M  V30 10 H 8.725157 9.164041 -7.986910 0
M  V30 11 H 9.888484 6.280460 -8.446345 0
M  V30 12 H 8.409028 7.602681 -9.985013 0
M  V30 13 H 12.209885 9.145304 -6.897755 0
M  V30 14 H 12.575096 7.497484 -7.474958 0
M  V30 15 H 11.097293 9.148864 -9.051778 0
M  V30 END ATOM
M  V30 BEGIN BOND
M  V30 1 1 2 1
M  V30 2 1 3 2
M  V30 3 1 4 3
M  V30 4 1 5 4
M  V30 5 1 6 1
M  V30 6 1 7 3
M  V30 7 1 7 4
M  V30 8 1 7 6
M  V30 9 1 8 1
M  V30 10 1 9 1
M  V30 11 1 3 10 CFG=3
M  V30 12 1 4 11 CFG=1
M  V30 13 1 12 5
M  V30 14 1 13 6
M  V30 15 1 14 6
M  V30 16 1 7 15 CFG=3
M  V30 END BOND
M  V30 END CTAB
M  END
>  <i_epik_Tot_Q>  (1) 
0

>  <i_epik_Tot_abs_Q>  (1) 
0

>  <i_i_glide_confnum>  (1) 
1

>  <i_i_glide_lignum>  (1) 
28

>  <i_i_glide_posenum>  (1) 
157

>  <i_i_glide_rotatable_bonds>  (1) 
1

>  <i_lp_mmshare_version>  (1) 
72125

>  <i_m_source_file_index>  (1) 
25

>  <i_f3d_flags>  (1) 
0

>  <num_sample>  (1) 
100

>  <b_lp_Chiralities_Consistent>  (1) 
1

>  <r_epik_Charging_Adjusted_Penalty>  (1) 
0

>  <r_epik_Ionization_Penalty>  (1) 
4.3639151522347116e-08

>  <r_epik_Ionization_Penalty_Charging>  (1) 
0

>  <r_epik_Ionization_Penalty_Neutral>  (1) 
4.3639151522347116e-08

>  <r_epik_State_Penalty>  (1) 
-0

>  <r_glide_ring_energy>  (1) 
0

>  <r_i_docking_score>  (1) 
-4.7753293141277906

>  <r_i_glide_ecoul>  (1) 
-7.1997416421050353

>  <r_i_glide_eff_state_penalty>  (1) 
-0

>  <r_i_glide_einternal>  (1) 
0.33891542845935874

>  <r_i_glide_emodel>  (1) 
-24.345099856398427

>  <r_i_glide_emodel_strain>  (1) 
0.0029317015702439164

>  <r_i_glide_energy>  (1) 
-18.05792249895535

>  <r_i_glide_erotb>  (1) 
0

>  <r_i_glide_esite>  (1) 
0

>  <r_i_glide_evdw>  (1) 
-10.858180856850314

>  <r_i_glide_gscore>  (1) 
-4.7753293141277906

>  <r_i_glide_gscore_strain>  (1) 
0

>  <r_i_glide_hbond>  (1) 
-0.16

>  <r_i_glide_ligand_efficiency>  (1) 
-0.6821899020182558

>  <r_i_glide_ligand_efficiency_ln>  (1) 
-1.6210030423565804

>  <r_i_glide_ligand_efficiency_sa>  (1) 
-1.3049823361431623

>  <r_i_glide_lipo>  (1) 
-0.49052887022744263

>  <r_i_glide_metal>  (1) 
-0

>  <r_i_glide_rewards>  (1) 
-2.5019301547420767

>  <r_lp_Energy>  (1) 
3.2309049999999999

>  <r_lp_tautomer_probability>  (1) 
1

>  <s_epik_cmdline>  (1) 
J2VwaWtfcHl0aG9uJywgJy1waHQnLCAnMS4wJywgJy1waCcsICc3LjQnLCAnLXRuJywgJzgnLCAnLW1hJywgJzUwMCcsICctaW1hZScsICc8aW5maWxlLm1hZT4nLCAnLW9tYWUnLCAnPG91dGZpbGUubWFlPic=

>  <s_epik_input>  (1) 
TzFbQ0gyXVtDSDJdW0NIXShbQ0BIXTEyKVtDQEBIXTJbT0hd

>  <s_glide_docking_method>  (1) 
confgen

>  <s_i_glide_gridfile>  (1) 
gpcr_drd2_6luq_protein_autoprepared_prepared

>  <s_lp_Force_Field>  (1) 
S-OPLS

>  <s_lp_Variant>  (1) 
Pocket2Mol_24-1

>  <s_m_source_file>  (1) 
generated_generic_title2_ligand_Pocket2Mol_2026-06-23_prepared.sdf

>  <GenAI_Model>  (1) 
Pocket2Mol

>  <Protein>  (1) 
generic_title2

$$$$
Pocket2Mol_7
     RDKit          3D

  0  0  0  0  0  0  0  0  0  0999 V3000
M  V30 BEGIN CTAB
M  V30 COUNTS 11 11 0 0 1
M  V30 BEGIN ATOM
M  V30 1 N 12.175414 7.634557 -3.585025 0
M  V30 2 C 11.475826 6.790242 -4.385012 0
M  V30 3 C 10.863928 7.190259 -5.587993 0
M  V30 4 C 10.968371 8.531684 -5.984995 0
M  V30 5 C 11.677682 9.420461 -5.163413 0
M  V30 6 C 12.259852 8.928703 -3.978055 0
M  V30 7 H 11.408474 5.765146 -4.054188 0
M  V30 8 H 10.320639 6.477804 -6.191873 0
M  V30 9 H 10.508664 8.873499 -6.900677 0
M  V30 10 H 11.774910 10.461221 -5.434245 0
M  V30 11 H 12.812465 9.590311 -3.327909 0
M  V30 END ATOM
M  V30 BEGIN BOND
M  V30 1 2 2 1
M  V30 2 1 3 2
M  V30 3 2 4 3
M  V30 4 1 5 4
M  V30 5 1 6 1
M  V30 6 2 6 5
M  V30 7 1 7 2
M  V30 8 1 8 3
M  V30 9 1 9 4
M  V30 10 1 10 5
M  V30 11 1 11 6
M  V30 END BOND
M  V30 END CTAB
M  END
>  <i_epik_Tot_Q>  (1) 
0

>  <i_epik_Tot_abs_Q>  (1) 
0

>  <i_i_glide_confnum>  (1) 
1

>  <i_i_glide_lignum>  (1) 
8

>  <i_i_glide_posenum>  (1) 
378

>  <i_i_glide_rotatable_bonds>  (1) 
0

>  <i_lp_mmshare_version>  (1) 
72125

>  <i_m_source_file_index>  (1) 
8

>  <i_f3d_flags>  (1) 
0

>  <num_sample>  (1) 
100

>  <b_lp_Chiralities_Consistent>  (1) 
1

>  <r_epik_Charging_Adjusted_Penalty>  (1) 
0

>  <r_epik_Ionization_Penalty>  (1) 
0.0028947865417402485

>  <r_epik_Ionization_Penalty_Charging>  (1) 
0

>  <r_epik_Ionization_Penalty_Neutral>  (1) 
0.0028947865417402485

>  <r_epik_State_Penalty>  (1) 
-0

>  <r_glide_ring_energy>  (1) 
0

>  <r_i_docking_score>  (1) 
-4.7689825289526668

>  <r_i_glide_ecoul>  (1) 
-0.63743378379358284

>  <r_i_glide_eff_state_penalty>  (1) 
-0

>  <r_i_glide_einternal>  (1) 
0

>  <r_i_glide_emodel>  (1) 
-19.528610565523525

>  <r_i_glide_emodel_strain>  (1) 
0

>  <r_i_glide_energy>  (1) 
-15.002257791708065

>  <r_i_glide_erotb>  (1) 
0

>  <r_i_glide_esite>  (1) 
0

>  <r_i_glide_evdw>  (1) 
-14.364824007914482

>  <r_i_glide_gscore>  (1) 
-4.7689825289526668

>  <r_i_glide_gscore_strain>  (1) 
0

>  <r_i_glide_hbond>  (1) 
0

>  <r_i_glide_ligand_efficiency>  (1) 
-0.79483042149211114

>  <r_i_glide_ligand_efficiency_ln>  (1) 
-1.708235462803438

>  <r_i_glide_ligand_efficiency_sa>  (1) 
-1.4443027267027646

>  <r_i_glide_lipo>  (1) 
-1.4134403048527884

>  <r_i_glide_metal>  (1) 
-0

>  <r_i_glide_rewards>  (1) 
-2.5416859561351171

>  <r_lp_Energy>  (1) 
11.088944

>  <r_lp_tautomer_probability>  (1) 
1

>  <s_epik_cmdline>  (1) 
J2VwaWtfcHl0aG9uJywgJy1waHQnLCAnMS4wJywgJy1waCcsICc3LjQnLCAnLXRuJywgJzgnLCAnLW1hJywgJzUwMCcsICctaW1hZScsICc8aW5maWxlLm1hZT4nLCAnLW9tYWUnLCAnPG91dGZpbGUubWFlPic=

>  <s_epik_input>  (1) 
bjFbY0hdW2NIXVtjSF1bY0hdW2NIXTE=

>  <s_glide_docking_method>  (1) 
confgen

>  <s_i_glide_gridfile>  (1) 
gpcr_drd2_6luq_protein_autoprepared_prepared

>  <s_lp_Force_Field>  (1) 
S-OPLS

>  <s_lp_Variant>  (1) 
Pocket2Mol_7-1

>  <s_m_source_file>  (1) 
generated_generic_title2_ligand_Pocket2Mol_2026-06-23_prepared.sdf

>  <GenAI_Model>  (1) 
Pocket2Mol

>  <Protein>  (1) 
generic_title2

$$$$
Pocket2Mol_16
     RDKit          3D

  0  0  0  0  0  0  0  0  0  0999 V3000
M  V30 BEGIN CTAB
M  V30 COUNTS 19 19 0 0 1
M  V30 BEGIN ATOM
M  V30 1 C 10.617730 6.390640 -5.865470 0
M  V30 2 O 11.375351 7.539000 -5.503969 0
M  V30 3 C 11.104307 8.617009 -6.388585 0
M  V30 4 C 11.327431 9.917694 -5.602958 0
M  V30 5 C 12.054400 8.554379 -7.599781 0
M  V30 6 C 9.577405 6.857102 -6.883409 0
M  V30 7 C 9.646064 8.367502 -6.785112 0
M  V30 8 H 11.265380 5.611889 -6.276920 0
M  V30 9 H 10.145353 5.990227 -4.967344 0
M  V30 10 H 11.156470 10.790181 -6.230069 0
M  V30 11 H 12.350810 9.976466 -5.233380 0
M  V30 12 H 10.662768 9.991701 -4.743336 0
M  V30 13 H 11.759827 9.279068 -8.359529 0
M  V30 14 H 13.080303 8.785819 -7.313354 0
M  V30 15 H 12.056545 7.570451 -8.066840 0
M  V30 16 H 9.860042 6.534835 -7.885847 0
M  V30 17 H 8.577947 6.466530 -6.681860 0
M  V30 18 H 8.967521 8.704870 -6.001287 0
M  V30 19 H 9.351815 8.858497 -7.712945 0
M  V30 END ATOM
M  V30 BEGIN BOND
M  V30 1 1 2 1
M  V30 2 1 3 2
M  V30 3 1 4 3
M  V30 4 1 5 3
M  V30 5 1 6 1
M  V30 6 1 7 3
M  V30 7 1 7 6
M  V30 8 1 8 1
M  V30 9 1 9 1
M  V30 10 1 10 4
M  V30 11 1 11 4
M  V30 12 1 12 4
M  V30 13 1 13 5
M  V30 14 1 14 5
M  V30 15 1 15 5
M  V30 16 1 16 6
M  V30 17 1 17 6
M  V30 18 1 18 7
M  V30 19 1 19 7
M  V30 END BOND
M  V30 END CTAB
M  END
>  <i_epik_Tot_Q>  (1) 
0

>  <i_epik_Tot_abs_Q>  (1) 
0

>  <i_i_glide_confnum>  (1) 
4

>  <i_i_glide_lignum>  (1) 
19

>  <i_i_glide_posenum>  (1) 
115

>  <i_i_glide_rotatable_bonds>  (1) 
0

>  <i_lp_mmshare_version>  (1) 
72125

>  <i_m_source_file_index>  (1) 
17

>  <i_f3d_flags>  (1) 
0

>  <num_sample>  (1) 
100

>  <b_lp_Chiralities_Consistent>  (1) 
1

>  <r_epik_Charging_Adjusted_Penalty>  (1) 
0

>  <r_epik_Ionization_Penalty>  (1) 
1.3889264151150229e-11

>  <r_epik_Ionization_Penalty_Charging>  (1) 
0

>  <r_epik_Ionization_Penalty_Neutral>  (1) 
1.3889264151150229e-11

>  <r_epik_State_Penalty>  (1) 
-0

>  <r_glide_ring_energy>  (1) 
0.26153960478789529

>  <r_i_docking_score>  (1) 
-4.7676212917719427

>  <r_i_glide_ecoul>  (1) 
-0.68116092791552407

>  <r_i_glide_eff_state_penalty>  (1) 
-0

>  <r_i_glide_einternal>  (1) 
0

>  <r_i_glide_emodel>  (1) 
-21.614317319939985

>  <r_i_glide_emodel_strain>  (1) 
0.46421008254595897

>  <r_i_glide_energy>  (1) 
-17.059347087434485

>  <r_i_glide_erotb>  (1) 
0

>  <r_i_glide_esite>  (1) 
0

>  <r_i_glide_evdw>  (1) 
-16.378186159518961

>  <r_i_glide_gscore>  (1) 
-4.7676212917719427

>  <r_i_glide_gscore_strain>  (1) 
0

>  <r_i_glide_hbond>  (1) 
0

>  <r_i_glide_ligand_efficiency>  (1) 
-0.68108875596742036

>  <r_i_glide_ligand_efficiency_ln>  (1) 
-1.6183865259097636

>  <r_i_glide_ligand_efficiency_sa>  (1) 
-1.3028759195257327

>  <r_i_glide_lipo>  (1) 
-1.1618831015083377

>  <r_i_glide_metal>  (1) 
-0

>  <r_i_glide_rewards>  (1) 
-2.6846547431003289

>  <r_lp_Energy>  (1) 
0.043719999999999995

>  <r_lp_tautomer_probability>  (1) 
1

>  <s_epik_cmdline>  (1) 
J2VwaWtfcHl0aG9uJywgJy1waHQnLCAnMS4wJywgJy1waCcsICc3LjQnLCAnLXRuJywgJzgnLCAnLW1hJywgJzUwMCcsICctaW1hZScsICc8aW5maWxlLm1hZT4nLCAnLW9tYWUnLCAnPG91dGZpbGUubWFlPic=

>  <s_epik_input>  (1) 
W0NIMl0xW0NIMl1bQ0gyXU9DMShbQ0gzXSlbQ0gzXQ==

>  <s_glide_docking_method>  (1) 
confgen

>  <s_i_glide_gridfile>  (1) 
gpcr_drd2_6luq_protein_autoprepared_prepared

>  <s_lp_Force_Field>  (1) 
S-OPLS

>  <s_lp_Variant>  (1) 
Pocket2Mol_16-1

>  <s_m_source_file>  (1) 
generated_generic_title2_ligand_Pocket2Mol_2026-06-23_prepared.sdf

>  <GenAI_Model>  (1) 
Pocket2Mol

>  <Protein>  (1) 
generic_title2

$$$$
Pocket2Mol_78
     RDKit          3D

  0  0  0  0  0  0  0  0  0  0999 V3000
M  V30 BEGIN CTAB
M  V30 COUNTS 22 23 0 0 1
M  V30 BEGIN ATOM
M  V30 1 C 8.786218 4.842972 -10.355539 0
M  V30 2 O 9.347516 6.122996 -10.618482 0
M  V30 3 C 9.980304 6.720802 -9.549802 0
M  V30 4 C 7.982296 4.916974 -9.056153 0
M  V30 5 O 8.861214 5.233235 -7.985034 0
M  V30 6 C 9.741137 6.268579 -8.223372 0
M  V30 7 C 10.412550 6.876187 -7.141387 0
M  V30 8 O 10.175376 6.424230 -5.859874 0
M  V30 9 C 10.876327 7.781725 -9.778091 0
M  V30 10 C 11.542462 8.390187 -8.698905 0
M  V30 11 C 11.315749 7.942018 -7.383788 0
M  V30 12 C 11.106263 6.718973 -4.830423 0
M  V30 13 H 8.140921 4.559967 -11.187136 0
M  V30 14 H 9.576445 4.094017 -10.287935 0
M  V30 15 H 7.178889 5.633591 -9.145406 0
M  V30 16 H 7.466384 3.990227 -8.834679 0
M  V30 17 H 11.056168 8.125961 -10.784707 0
M  V30 18 H 12.231092 9.201637 -8.880504 0
M  V30 19 H 11.831540 8.416901 -6.565094 0
M  V30 20 H 10.818728 6.176965 -3.929561 0
M  V30 21 H 12.109543 6.390219 -5.100654 0
M  V30 22 H 11.119405 7.780448 -4.583447 0
M  V30 END ATOM
M  V30 BEGIN BOND
M  V30 1 1 2 1
M  V30 2 1 3 2
M  V30 3 1 4 1
M  V30 4 1 5 4
M  V30 5 1 6 3
M  V30 6 1 6 5
M  V30 7 2 7 6
M  V30 8 1 8 7
M  V30 9 2 9 3
M  V30 10 1 10 9
M  V30 11 1 11 7
M  V30 12 2 11 10
M  V30 13 1 12 8
M  V30 14 1 13 1
M  V30 15 1 14 1
M  V30 16 1 15 4
M  V30 17 1 16 4
M  V30 18 1 17 9
M  V30 19 1 18 10
M  V30 20 1 19 11
M  V30 21 1 20 12
M  V30 22 1 21 12
M  V30 23 1 22 12
M  V30 END BOND
M  V30 END CTAB
M  END
>  <i_epik_Tot_Q>  (1) 
0

>  <i_epik_Tot_abs_Q>  (1) 
0

>  <i_i_glide_confnum>  (1) 
2

>  <i_i_glide_lignum>  (1) 
85

>  <i_i_glide_posenum>  (1) 
63

>  <i_i_glide_rotatable_bonds>  (1) 
1

>  <i_lp_mmshare_version>  (1) 
72125

>  <i_m_source_file_index>  (1) 
79

>  <i_f3d_flags>  (1) 
0

>  <num_sample>  (1) 
100

>  <b_lp_Chiralities_Consistent>  (1) 
1

>  <r_epik_Charging_Adjusted_Penalty>  (1) 
0

>  <r_epik_Ionization_Penalty>  (1) 
0

>  <r_epik_Ionization_Penalty_Charging>  (1) 
0

>  <r_epik_Ionization_Penalty_Neutral>  (1) 
0

>  <r_epik_State_Penalty>  (1) 
-0

>  <r_glide_ring_energy>  (1) 
0.0030884499939853893

>  <r_i_docking_score>  (1) 
-4.7645132498783163

>  <r_i_glide_ecoul>  (1) 
0.635987430250326

>  <r_i_glide_eff_state_penalty>  (1) 
-0

>  <r_i_glide_einternal>  (1) 
0.46568645813236031

>  <r_i_glide_emodel>  (1) 
-25.999516059545698

>  <r_i_glide_emodel_strain>  (1) 
0.013230762276430497

>  <r_i_glide_energy>  (1) 
-20.253445099223452

>  <r_i_glide_erotb>  (1) 
0

>  <r_i_glide_esite>  (1) 
0

>  <r_i_glide_evdw>  (1) 
-20.889432529473776

>  <r_i_glide_gscore>  (1) 
-4.7645132498783163

>  <r_i_glide_gscore_strain>  (1) 
0

>  <r_i_glide_hbond>  (1) 
0

>  <r_i_glide_ligand_efficiency>  (1) 
-0.397042770823193

>  <r_i_glide_ligand_efficiency_ln>  (1) 
-1.3671853305362309

>  <r_i_glide_ligand_efficiency_sa>  (1) 
-0.90900102932829518

>  <r_i_glide_lipo>  (1) 
-1.0213097815687766

>  <r_i_glide_metal>  (1) 
-0

>  <r_i_glide_rewards>  (1) 
-2.7941299563733999

>  <r_lp_Energy>  (1) 
20.318058000000001

>  <r_lp_tautomer_probability>  (1) 
1

>  <s_epik_cmdline>  (1) 
J2VwaWtfcHl0aG9uJywgJy1waHQnLCAnMS4wJywgJy1waCcsICc3LjQnLCAnLXRuJywgJzgnLCAnLW1hJywgJzUwMCcsICctaW1hZScsICc8aW5maWxlLm1hZT4nLCAnLW9tYWUnLCAnPG91dGZpbGUubWFlPic=

>  <s_epik_input>  (1) 
TzFbQ0gyXVtDSDJdT2MoYzEyKWMoT1tDSDNdKVtjSF1bY0hdW2NIXTI=

>  <s_glide_docking_method>  (1) 
confgen

>  <s_i_glide_gridfile>  (1) 
gpcr_drd2_6luq_protein_autoprepared_prepared

>  <s_lp_Force_Field>  (1) 
S-OPLS

>  <s_lp_Variant>  (1) 
Pocket2Mol_78-1

>  <s_m_source_file>  (1) 
generated_generic_title2_ligand_Pocket2Mol_2026-06-23_prepared.sdf

>  <GenAI_Model>  (1) 
Pocket2Mol

>  <Protein>  (1) 
generic_title2

$$$$
Pocket2Mol_20
     RDKit          3D

  0  0  0  0  0  0  0  0  0  0999 V3000
M  V30 BEGIN CTAB
M  V30 COUNTS 12 12 0 0 1
M  V30 BEGIN ATOM
M  V30 1 N 9.375410 7.784177 -8.507840 0 CHG=1
M  V30 2 C 10.290238 7.778053 -9.495327 0
M  V30 3 C 11.640901 8.044316 -9.200519 0
M  V30 4 C 9.688182 8.035639 -7.218939 0
M  V30 5 O 12.575334 8.038682 -10.188903 0 CHG=-1
M  V30 6 C 12.013980 8.317796 -7.869314 0
M  V30 7 C 11.024764 8.311974 -6.861688 0
M  V30 8 H 9.916873 7.564439 -10.486355 0
M  V30 9 H 8.865147 8.012921 -6.518004 0
M  V30 10 H 8.383111 7.595238 -8.753503 0
M  V30 11 H 13.043494 8.527909 -7.626069 0
M  V30 12 H 11.287506 8.517068 -5.835252 0
M  V30 END ATOM
M  V30 BEGIN BOND
M  V30 1 1 2 1
M  V30 2 2 3 2
M  V30 3 2 4 1
M  V30 4 1 5 3
M  V30 5 1 6 3
M  V30 6 1 7 4
M  V30 7 2 7 6
M  V30 8 1 8 2
M  V30 9 1 9 4
M  V30 10 1 10 1
M  V30 11 1 11 6
M  V30 12 1 12 7
M  V30 END BOND
M  V30 END CTAB
M  END
>  <i_epik_Tot_Q>  (1) 
0

>  <i_epik_Tot_abs_Q>  (1) 
2

>  <i_i_glide_confnum>  (1) 
1

>  <i_i_glide_lignum>  (1) 
23

>  <i_i_glide_posenum>  (1) 
65

>  <i_i_glide_rotatable_bonds>  (1) 
0

>  <i_lp_mmshare_version>  (1) 
72125

>  <i_m_source_file_index>  (1) 
21

>  <i_f3d_flags>  (1) 
0

>  <num_sample>  (1) 
100

>  <b_lp_Chiralities_Consistent>  (1) 
1

>  <r_epik_Charging_Adjusted_Penalty>  (1) 
0.36510749842979956

>  <r_epik_Ionization_Penalty>  (1) 
0.025180683492302028

>  <r_epik_Ionization_Penalty_Charging>  (1) 
0.025180683492302028

>  <r_epik_Ionization_Penalty_Neutral>  (1) 
0

>  <r_epik_State_Penalty>  (1) 
0.33992681493749755

>  <r_glide_ring_energy>  (1) 
0

>  <r_i_docking_score>  (1) 
-4.7548562169883404

>  <r_i_glide_ecoul>  (1) 
-4.6558272466130912

>  <r_i_glide_eff_state_penalty>  (1) 
0.33992681493749755

>  <r_i_glide_einternal>  (1) 
0

>  <r_i_glide_emodel>  (1) 
-25.788472507577957

>  <r_i_glide_emodel_strain>  (1) 
0

>  <r_i_glide_energy>  (1) 
-16.217396991757624

>  <r_i_glide_erotb>  (1) 
0

>  <r_i_glide_esite>  (1) 
-0.10000000000000001

>  <r_i_glide_evdw>  (1) 
-11.561569745144535

>  <r_i_glide_gscore>  (1) 
-5.0947830319258376

>  <r_i_glide_gscore_strain>  (1) 
0

>  <r_i_glide_hbond>  (1) 
-0.20000000000000001

>  <r_i_glide_ligand_efficiency>  (1) 
-0.67926517385547724

>  <r_i_glide_ligand_efficiency_ln>  (1) 
-1.6140533744768539

>  <r_i_glide_ligand_efficiency_sa>  (1) 
-1.2993875324394506

>  <r_i_glide_lipo>  (1) 
-0.73833045767664685

>  <r_i_glide_metal>  (1) 
-0

>  <r_i_glide_rewards>  (1) 
-2.7800000000000002

>  <r_lp_Energy>  (1) 
9.275188

>  <r_lp_tautomer_probability>  (1) 
0.56342000000000003

>  <s_epik_cmdline>  (1) 
J2VwaWtfcHl0aG9uJywgJy1waHQnLCAnMS4wJywgJy1waCcsICc3LjQnLCAnLXRuJywgJzgnLCAnLW1hJywgJzUwMCcsICctaW1hZScsICc8aW5maWxlLm1hZT4nLCAnLW9tYWUnLCAnPG91dGZpbGUubWFlPic=

>  <s_epik_input>  (1) 
W2NIXTFbY0hdW2NIXW5bY0hdYzFbT0hd

>  <s_glide_docking_method>  (1) 
confgen

>  <s_i_glide_gridfile>  (1) 
gpcr_drd2_6luq_protein_autoprepared_prepared

>  <s_lp_Force_Field>  (1) 
S-OPLS

>  <s_lp_Variant>  (1) 
Pocket2Mol_20-1

>  <s_m_source_file>  (1) 
generated_generic_title2_ligand_Pocket2Mol_2026-06-23_prepared.sdf

>  <GenAI_Model>  (1) 
Pocket2Mol

>  <Protein>  (1) 
generic_title2

$$$$
Pocket2Mol_79
     RDKit          3D

  0  0  0  0  0  0  0  0  0  0999 V3000
M  V30 BEGIN CTAB
M  V30 COUNTS 24 25 0 0 1
M  V30 BEGIN ATOM
M  V30 1 C 9.291145 6.190604 -12.311101 0
M  V30 2 O 9.318937 5.165179 -11.331973 0
M  V30 3 C 9.529191 7.570148 -11.689185 0
M  V30 4 O 10.637502 7.485334 -10.812606 0
M  V30 5 C 8.591778 5.473699 -10.154642 0
M  V30 6 C 10.382892 7.202309 -9.486535 0
M  V30 7 C 11.120068 7.876643 -8.489277 0
M  V30 8 C 9.398054 6.239629 -9.105548 0
M  V30 9 C 12.175409 8.886971 -8.884983 0
M  V30 10 C 10.874674 7.613825 -7.127149 0
M  V30 11 C 9.896604 6.676482 -6.754280 0
M  V30 12 C 9.162392 5.990228 -7.738524 0
M  V30 13 H 10.064234 5.969223 -13.047385 0
M  V30 14 H 8.335871 6.176168 -12.836893 0
M  V30 15 H 9.759713 8.296048 -12.465799 0
M  V30 16 H 8.642196 7.956291 -11.184028 0
M  V30 17 H 8.299522 4.519568 -9.716261 0
M  V30 18 H 7.657833 5.987471 -10.385027 0
M  V30 19 H 11.709987 9.774968 -9.312480 0
M  V30 20 H 12.771742 9.187388 -8.024327 0
M  V30 21 H 12.851441 8.463910 -9.628525 0
M  V30 22 H 11.437446 8.134149 -6.366563 0
M  V30 23 H 9.709688 6.479283 -5.708670 0
M  V30 24 H 8.413672 5.269801 -7.444979 0
M  V30 END ATOM
M  V30 BEGIN BOND
M  V30 1 1 2 1
M  V30 2 1 3 1
M  V30 3 1 4 3
M  V30 4 1 5 2
M  V30 5 1 6 4
M  V30 6 2 7 6
M  V30 7 1 8 5
M  V30 8 1 8 6
M  V30 9 1 9 7
M  V30 10 1 10 7
M  V30 11 2 11 10
M  V30 12 2 12 8
M  V30 13 1 12 11
M  V30 14 1 13 1
M  V30 15 1 14 1
M  V30 16 1 15 3
M  V30 17 1 16 3
M  V30 18 1 17 5
M  V30 19 1 18 5
M  V30 20 1 19 9
M  V30 21 1 20 9
M  V30 22 1 21 9
M  V30 23 1 22 10
M  V30 24 1 23 11
M  V30 25 1 24 12
M  V30 END BOND
M  V30 END CTAB
M  END
>  <i_epik_Tot_Q>  (1) 
0

>  <i_epik_Tot_abs_Q>  (1) 
0

>  <i_i_glide_confnum>  (1) 
2

>  <i_i_glide_lignum>  (1) 
86

>  <i_i_glide_posenum>  (1) 
112

>  <i_i_glide_rotatable_bonds>  (1) 
0

>  <i_lp_mmshare_version>  (1) 
72125

>  <i_m_source_file_index>  (1) 
80

>  <i_f3d_flags>  (1) 
0

>  <num_sample>  (1) 
100

>  <b_lp_Chiralities_Consistent>  (1) 
1

>  <r_epik_Charging_Adjusted_Penalty>  (1) 
0

>  <r_epik_Ionization_Penalty>  (1) 
2.8363962595523293e-13

>  <r_epik_Ionization_Penalty_Charging>  (1) 
0

>  <r_epik_Ionization_Penalty_Neutral>  (1) 
2.8363962595523293e-13

>  <r_epik_State_Penalty>  (1) 
-0

>  <r_glide_ring_energy>  (1) 
1.7614129466602644

>  <r_i_docking_score>  (1) 
-4.7537999249812

>  <r_i_glide_ecoul>  (1) 
-0.71822972739226165

>  <r_i_glide_eff_state_penalty>  (1) 
-0

>  <r_i_glide_einternal>  (1) 
0

>  <r_i_glide_emodel>  (1) 
-26.347750085914896

>  <r_i_glide_emodel_strain>  (1) 
0

>  <r_i_glide_energy>  (1) 
-20.644920138095092

>  <r_i_glide_erotb>  (1) 
0

>  <r_i_glide_esite>  (1) 
0

>  <r_i_glide_evdw>  (1) 
-19.926690410702829

>  <r_i_glide_gscore>  (1) 
-4.7537999249812

>  <r_i_glide_gscore_strain>  (1) 
0

>  <r_i_glide_hbond>  (1) 
0

>  <r_i_glide_ligand_efficiency>  (1) 
-0.39614999374843335

>  <r_i_glide_ligand_efficiency_ln>  (1) 
-1.3641111233984966

>  <r_i_glide_ligand_efficiency_sa>  (1) 
-0.9069570800624901

>  <r_i_glide_lipo>  (1) 
-0.76301712298203628

>  <r_i_glide_metal>  (1) 
-0

>  <r_i_glide_rewards>  (1) 
-2.8867138223551834

>  <r_lp_Energy>  (1) 
16.059718999999998

>  <r_lp_tautomer_probability>  (1) 
1

>  <s_epik_cmdline>  (1) 
J2VwaWtfcHl0aG9uJywgJy1waHQnLCAnMS4wJywgJy1waCcsICc3LjQnLCAnLXRuJywgJzgnLCAnLW1hJywgJzUwMCcsICctaW1hZScsICc8aW5maWxlLm1hZT4nLCAnLW9tYWUnLCAnPG91dGZpbGUubWFlPic=

>  <s_epik_input>  (1) 
TzFbQ0gyXVtDSDJdT1tDSDJdYyhjMTIpW2NIXVtjSF1bY0hdYzJbQ0gzXQ==

>  <s_glide_docking_method>  (1) 
confgen

>  <s_i_glide_gridfile>  (1) 
gpcr_drd2_6luq_protein_autoprepared_prepared

>  <s_lp_Force_Field>  (1) 
S-OPLS

>  <s_lp_Variant>  (1) 
Pocket2Mol_79-1

>  <s_m_source_file>  (1) 
generated_generic_title2_ligand_Pocket2Mol_2026-06-23_prepared.sdf

>  <GenAI_Model>  (1) 
Pocket2Mol

>  <Protein>  (1) 
generic_title2

$$$$
Pocket2Mol_20
     RDKit          3D

  0  0  0  0  0  0  0  0  0  0999 V3000
M  V30 BEGIN CTAB
M  V30 COUNTS 12 12 0 0 1
M  V30 BEGIN ATOM
M  V30 1 N 10.412822 8.685009 -6.182917 0
M  V30 2 C 9.662936 8.191178 -7.199942 0
M  V30 3 C 10.181666 7.907616 -8.480063 0
M  V30 4 C 11.721772 8.916038 -6.439009 0
M  V30 5 O 9.375434 7.412381 -9.465044 0
M  V30 6 C 11.539983 8.146539 -8.727017 0
M  V30 7 C 12.325981 8.662775 -7.688470 0
M  V30 8 H 8.618943 8.018299 -6.983391 0
M  V30 9 H 12.306875 9.308380 -5.618404 0
M  V30 10 H 8.424359 7.590241 -9.354025 0
M  V30 11 H 11.971767 7.941450 -9.696688 0
M  V30 12 H 13.377880 8.860841 -7.843009 0
M  V30 END ATOM
M  V30 BEGIN BOND
M  V30 1 2 2 1
M  V30 2 1 3 2
M  V30 3 1 4 1
M  V30 4 1 5 3
M  V30 5 2 6 3
M  V30 6 2 7 4
M  V30 7 1 7 6
M  V30 8 1 8 2
M  V30 9 1 9 4
M  V30 10 1 10 5
M  V30 11 1 11 6
M  V30 12 1 12 7
M  V30 END BOND
M  V30 END CTAB
M  END
>  <i_epik_Tot_Q>  (1) 
0

>  <i_epik_Tot_abs_Q>  (1) 
0

>  <i_i_glide_confnum>  (1) 
1

>  <i_i_glide_lignum>  (1) 
24

>  <i_i_glide_posenum>  (1) 
298

>  <i_i_glide_rotatable_bonds>  (1) 
1

>  <i_lp_mmshare_version>  (1) 
72125

>  <i_m_source_file_index>  (1) 
21

>  <i_f3d_flags>  (1) 
0

>  <num_sample>  (1) 
100

>  <b_lp_Chiralities_Consistent>  (1) 
1

>  <r_epik_Charging_Adjusted_Penalty>  (1) 
0.49104251329211085

>  <r_epik_Ionization_Penalty>  (1) 
0.049438115990627488

>  <r_epik_Ionization_Penalty_Charging>  (1) 
0

>  <r_epik_Ionization_Penalty_Neutral>  (1) 
0.049438115990627488

>  <r_epik_State_Penalty>  (1) 
0.49104251329211085

>  <r_glide_ring_energy>  (1) 
0

>  <r_i_docking_score>  (1) 
-4.7449688793861107

>  <r_i_glide_ecoul>  (1) 
-9.1913907688139069

>  <r_i_glide_eff_state_penalty>  (1) 
0.49104251329211085

>  <r_i_glide_einternal>  (1) 
0.15335936864355273

>  <r_i_glide_emodel>  (1) 
-26.370291587685184

>  <r_i_glide_emodel_strain>  (1) 
0.059941963563342249

>  <r_i_glide_energy>  (1) 
-19.661316095549637

>  <r_i_glide_erotb>  (1) 
0

>  <r_i_glide_esite>  (1) 
0

>  <r_i_glide_evdw>  (1) 
-10.469925326735728

>  <r_i_glide_gscore>  (1) 
-5.2360113926782219

>  <r_i_glide_gscore_strain>  (1) 
0

>  <r_i_glide_hbond>  (1) 
-0.14900992588130352

>  <r_i_glide_ligand_efficiency>  (1) 
-0.67785269705515871

>  <r_i_glide_ligand_efficiency_ln>  (1) 
-1.6106970814801376

>  <r_i_glide_ligand_efficiency_sa>  (1) 
-1.2966855615231787

>  <r_i_glide_lipo>  (1) 
-0.70979658513804644

>  <r_i_glide_metal>  (1) 
-0

>  <r_i_glide_rewards>  (1) 
-2.4750000000000001

>  <r_lp_Energy>  (1) 
10.560834

>  <r_lp_tautomer_probability>  (1) 
0.43658000000000002

>  <s_epik_cmdline>  (1) 
J2VwaWtfcHl0aG9uJywgJy1waHQnLCAnMS4wJywgJy1waCcsICc3LjQnLCAnLXRuJywgJzgnLCAnLW1hJywgJzUwMCcsICctaW1hZScsICc8aW5maWxlLm1hZT4nLCAnLW9tYWUnLCAnPG91dGZpbGUubWFlPic=

>  <s_epik_input>  (1) 
W2NIXTFbY0hdW2NIXW5bY0hdYzFbT0hd

>  <s_glide_docking_method>  (1) 
confgen

>  <s_i_glide_gridfile>  (1) 
gpcr_drd2_6luq_protein_autoprepared_prepared

>  <s_lp_Force_Field>  (1) 
S-OPLS

>  <s_lp_Variant>  (1) 
Pocket2Mol_20-2

>  <s_m_source_file>  (1) 
generated_generic_title2_ligand_Pocket2Mol_2026-06-23_prepared.sdf

>  <GenAI_Model>  (1) 
Pocket2Mol

>  <Protein>  (1) 
generic_title2

$$$$
Pocket2Mol_78
     RDKit          3D

  0  0  0  0  0  0  0  0  0  0999 V3000
M  V30 BEGIN CTAB
M  V30 COUNTS 22 23 0 0 1
M  V30 BEGIN ATOM
M  V30 1 C 8.921996 4.955728 -9.881253 0
M  V30 2 O 8.779521 5.372549 -8.533508 0
M  V30 3 C 9.580365 6.416648 -8.126544 0
M  V30 4 C 9.062074 6.162894 -10.808828 0
M  V30 5 O 10.178405 6.941106 -10.423803 0
M  V30 6 C 10.285562 7.205551 -9.076252 0
M  V30 7 C 11.101563 8.272837 -8.632344 0
M  V30 8 O 11.780668 9.049145 -9.535159 0
M  V30 9 C 9.694173 6.707741 -6.754972 0
M  V30 10 C 10.505964 7.771253 -6.320508 0
M  V30 11 C 11.207695 8.551801 -7.256093 0
M  V30 12 C 12.844850 8.390126 -10.200315 0
M  V30 13 H 9.775384 4.285807 -9.967350 0
M  V30 14 H 8.034084 4.390230 -10.159238 0
M  V30 15 H 9.197068 5.832954 -11.839452 0
M  V30 16 H 8.175409 6.788408 -10.785026 0
M  V30 17 H 9.155337 6.112389 -6.033128 0
M  V30 18 H 10.588297 7.989374 -5.266299 0
M  V30 19 H 11.827317 9.368749 -6.918672 0
M  V30 20 H 13.375379 9.105823 -10.826319 0
M  V30 21 H 13.558084 7.974521 -9.487785 0
M  V30 22 H 12.491252 7.593049 -10.851241 0
M  V30 END ATOM
M  V30 BEGIN BOND
M  V30 1 1 2 1
M  V30 2 1 3 2
M  V30 3 1 4 1
M  V30 4 1 5 4
M  V30 5 1 6 3
M  V30 6 1 6 5
M  V30 7 2 7 6
M  V30 8 1 8 7
M  V30 9 2 9 3
M  V30 10 1 10 9
M  V30 11 1 11 7
M  V30 12 2 11 10
M  V30 13 1 12 8
M  V30 14 1 13 1
M  V30 15 1 14 1
M  V30 16 1 15 4
M  V30 17 1 16 4
M  V30 18 1 17 9
M  V30 19 1 18 10
M  V30 20 1 19 11
M  V30 21 1 20 12
M  V30 22 1 21 12
M  V30 23 1 22 12
M  V30 END BOND
M  V30 END CTAB
M  END
>  <i_epik_Tot_Q>  (1) 
0

>  <i_epik_Tot_abs_Q>  (1) 
0

>  <i_i_glide_confnum>  (1) 
1

>  <i_i_glide_lignum>  (1) 
85

>  <i_i_glide_posenum>  (1) 
204

>  <i_i_glide_rotatable_bonds>  (1) 
1

>  <i_lp_mmshare_version>  (1) 
72125

>  <i_m_source_file_index>  (1) 
79

>  <i_f3d_flags>  (1) 
0

>  <num_sample>  (1) 
100

>  <b_lp_Chiralities_Consistent>  (1) 
1

>  <r_epik_Charging_Adjusted_Penalty>  (1) 
0

>  <r_epik_Ionization_Penalty>  (1) 
0

>  <r_epik_Ionization_Penalty_Charging>  (1) 
0

>  <r_epik_Ionization_Penalty_Neutral>  (1) 
0

>  <r_epik_State_Penalty>  (1) 
-0

>  <r_glide_ring_energy>  (1) 
0

>  <r_i_docking_score>  (1) 
-4.7427133451353001

>  <r_i_glide_ecoul>  (1) 
-0.3385493994986386

>  <r_i_glide_eff_state_penalty>  (1) 
-0

>  <r_i_glide_einternal>  (1) 
3.9373847562674089

>  <r_i_glide_emodel>  (1) 
-25.928629380947356

>  <r_i_glide_emodel_strain>  (1) 
9.045820232955748e-05

>  <r_i_glide_energy>  (1) 
-21.932684166842591

>  <r_i_glide_erotb>  (1) 
0

>  <r_i_glide_esite>  (1) 
0

>  <r_i_glide_evdw>  (1) 
-21.594134767343952

>  <r_i_glide_gscore>  (1) 
-4.7427133451353001

>  <r_i_glide_gscore_strain>  (1) 
0

>  <r_i_glide_hbond>  (1) 
0

>  <r_i_glide_ligand_efficiency>  (1) 
-0.39522611209460834

>  <r_i_glide_ligand_efficiency_ln>  (1) 
-1.3609298101066256

>  <r_i_glide_ligand_efficiency_sa>  (1) 
-0.90484191908735567

>  <r_i_glide_lipo>  (1) 
-0.63432411005959399

>  <r_i_glide_metal>  (1) 
-0

>  <r_i_glide_rewards>  (1) 
-2.9779000867837127

>  <r_lp_Energy>  (1) 
20.318058000000001

>  <r_lp_tautomer_probability>  (1) 
1

>  <s_epik_cmdline>  (1) 
J2VwaWtfcHl0aG9uJywgJy1waHQnLCAnMS4wJywgJy1waCcsICc3LjQnLCAnLXRuJywgJzgnLCAnLW1hJywgJzUwMCcsICctaW1hZScsICc8aW5maWxlLm1hZT4nLCAnLW9tYWUnLCAnPG91dGZpbGUubWFlPic=

>  <s_epik_input>  (1) 
TzFbQ0gyXVtDSDJdT2MoYzEyKWMoT1tDSDNdKVtjSF1bY0hdW2NIXTI=

>  <s_glide_docking_method>  (1) 
confgen

>  <s_i_glide_gridfile>  (1) 
gpcr_drd2_6luq_protein_autoprepared_prepared

>  <s_lp_Force_Field>  (1) 
S-OPLS

>  <s_lp_Variant>  (1) 
Pocket2Mol_78-1

>  <s_m_source_file>  (1) 
generated_generic_title2_ligand_Pocket2Mol_2026-06-23_prepared.sdf

>  <GenAI_Model>  (1) 
Pocket2Mol

>  <Protein>  (1) 
generic_title2

$$$$
Pocket2Mol_47
     RDKit          3D

  0  0  0  0  0  0  0  0  0  0999 V3000
M  V30 BEGIN CTAB
M  V30 COUNTS 16 17 0 0 1
M  V30 BEGIN ATOM
M  V30 1 C 9.301251 5.911180 -10.308591 0
M  V30 2 O 10.175411 6.944923 -10.093853 0
M  V30 3 C 10.437092 7.294205 -8.788120 0
M  V30 4 C 9.864921 6.554259 -7.722148 0
M  V30 5 C 10.136622 6.919971 -6.389551 0
M  V30 6 C 11.277009 8.390227 -8.509884 0
M  V30 7 C 11.546018 8.751357 -7.174715 0
M  V30 8 O 9.045426 5.479341 -7.985025 0
M  V30 9 C 10.975413 8.017697 -6.115909 0
M  V30 10 C 8.759651 5.208217 -9.297336 0
M  V30 11 H 9.106816 5.739875 -11.356646 0
M  V30 12 H 9.700112 6.358490 -5.577042 0
M  V30 13 H 11.714199 8.954434 -9.320681 0
M  V30 14 H 12.189529 9.590978 -6.962578 0
M  V30 15 H 11.181967 8.296523 -5.093239 0
M  V30 16 H 8.064840 4.390279 -9.412837 0
M  V30 END ATOM
M  V30 BEGIN BOND
M  V30 1 1 2 1
M  V30 2 1 3 2
M  V30 3 1 4 3
M  V30 4 2 5 4
M  V30 5 2 6 3
M  V30 6 1 7 6
M  V30 7 1 8 4
M  V30 8 1 9 5
M  V30 9 2 9 7
M  V30 10 2 10 1
M  V30 11 1 10 8
M  V30 12 1 11 1
M  V30 13 1 12 5
M  V30 14 1 13 6
M  V30 15 1 14 7
M  V30 16 1 15 9
M  V30 17 1 16 10
M  V30 END BOND
M  V30 END CTAB
M  END
>  <i_epik_Tot_Q>  (1) 
0

>  <i_epik_Tot_abs_Q>  (1) 
0

>  <i_i_glide_confnum>  (1) 
1

>  <i_i_glide_lignum>  (1) 
53

>  <i_i_glide_posenum>  (1) 
268

>  <i_i_glide_rotatable_bonds>  (1) 
0

>  <i_lp_mmshare_version>  (1) 
72125

>  <i_m_source_file_index>  (1) 
48

>  <i_f3d_flags>  (1) 
0

>  <num_sample>  (1) 
100

>  <b_lp_Chiralities_Consistent>  (1) 
1

>  <r_epik_Charging_Adjusted_Penalty>  (1) 
0

>  <r_epik_Ionization_Penalty>  (1) 
0

>  <r_epik_Ionization_Penalty_Charging>  (1) 
0

>  <r_epik_Ionization_Penalty_Neutral>  (1) 
0

>  <r_epik_State_Penalty>  (1) 
-0

>  <r_glide_ring_energy>  (1) 
0

>  <r_i_docking_score>  (1) 
-4.7409458035161931

>  <r_i_glide_ecoul>  (1) 
0.038808800824384759

>  <r_i_glide_eff_state_penalty>  (1) 
-0

>  <r_i_glide_einternal>  (1) 
0

>  <r_i_glide_emodel>  (1) 
-25.313512288468509

>  <r_i_glide_emodel_strain>  (1) 
0

>  <r_i_glide_energy>  (1) 
-19.14643438630651

>  <r_i_glide_erotb>  (1) 
0

>  <r_i_glide_esite>  (1) 
0

>  <r_i_glide_evdw>  (1) 
-19.185243187130894

>  <r_i_glide_gscore>  (1) 
-4.7409458035161931

>  <r_i_glide_gscore_strain>  (1) 
0

>  <r_i_glide_hbond>  (1) 
0

>  <r_i_glide_ligand_efficiency>  (1) 
-0.47409458035161933

>  <r_i_glide_ligand_efficiency_ln>  (1) 
-1.4355257078987671

>  <r_i_glide_ligand_efficiency_sa>  (1) 
-1.0214058102656371

>  <r_i_glide_lipo>  (1) 
-0.93281329300356519

>  <r_i_glide_metal>  (1) 
-0

>  <r_i_glide_rewards>  (1) 
-2.854691671279741

>  <r_lp_Energy>  (1) 
24.726983000000001

>  <r_lp_tautomer_probability>  (1) 
1

>  <s_epik_cmdline>  (1) 
J2VwaWtfcHl0aG9uJywgJy1waHQnLCAnMS4wJywgJy1waCcsICc3LjQnLCAnLXRuJywgJzgnLCAnLW1hJywgJzUwMCcsICctaW1hZScsICc8aW5maWxlLm1hZT4nLCAnLW9tYWUnLCAnPG91dGZpbGUubWFlPic=

>  <s_epik_input>  (1) 
TzFbQ0hdPVtDSF1PYyhjMTIpW2NIXVtjSF1bY0hdW2NIXTI=

>  <s_glide_docking_method>  (1) 
confgen

>  <s_i_glide_gridfile>  (1) 
gpcr_drd2_6luq_protein_autoprepared_prepared

>  <s_lp_Force_Field>  (1) 
S-OPLS

>  <s_lp_Variant>  (1) 
Pocket2Mol_47-1

>  <s_m_source_file>  (1) 
generated_generic_title2_ligand_Pocket2Mol_2026-06-23_prepared.sdf

>  <GenAI_Model>  (1) 
Pocket2Mol

>  <Protein>  (1) 
generic_title2

$$$$
Pocket2Mol_14
     RDKit          3D

  0  0  0  0  0  0  0  0  0  0999 V3000
M  V30 BEGIN CTAB
M  V30 COUNTS 17 17 0 0 1
M  V30 BEGIN ATOM
M  V30 1 C 11.863176 8.589260 -7.149393 0
M  V30 2 O 11.855985 9.190192 -8.437370 0
M  V30 3 C 11.378133 8.309712 -9.444344 0
M  V30 4 C 9.912207 7.987405 -9.142822 0 CFG=1
M  V30 5 O 9.375416 7.148853 -10.134225 0
M  V30 6 C 10.435378 8.233320 -6.711637 0
M  V30 7 C 9.775443 7.331905 -7.760971 0
M  V30 8 H 12.486196 7.695239 -7.185878 0
M  V30 9 H 12.321290 9.275797 -6.437743 0
M  V30 10 H 11.987974 7.406201 -9.492246 0
M  V30 11 H 11.464888 8.804814 -10.407616 0
M  V30 12 H 9.340764 8.915029 -9.157468 0
M  V30 13 H 8.423436 7.203431 -10.020071 0
M  V30 14 H 10.445884 7.739705 -5.738975 0
M  V30 15 H 9.856113 9.150210 -6.598402 0
M  V30 16 H 8.725889 7.166643 -7.512607 0
M  V30 17 H 10.252939 6.350887 -7.765719 0
M  V30 END ATOM
M  V30 BEGIN BOND
M  V30 1 1 2 1
M  V30 2 1 3 2
M  V30 3 1 4 3
M  V30 4 1 5 4
M  V30 5 1 6 1
M  V30 6 1 7 4
M  V30 7 1 7 6
M  V30 8 1 8 1
M  V30 9 1 9 1
M  V30 10 1 10 3
M  V30 11 1 11 3
M  V30 12 1 4 12 CFG=1
M  V30 13 1 13 5
M  V30 14 1 14 6
M  V30 15 1 15 6
M  V30 16 1 16 7
M  V30 17 1 17 7
M  V30 END BOND
M  V30 END CTAB
M  END
>  <i_epik_Tot_Q>  (1) 
0

>  <i_epik_Tot_abs_Q>  (1) 
0

>  <i_i_glide_confnum>  (1) 
1

>  <i_i_glide_lignum>  (1) 
17

>  <i_i_glide_posenum>  (1) 
304

>  <i_i_glide_rotatable_bonds>  (1) 
1

>  <i_lp_mmshare_version>  (1) 
72125

>  <i_m_source_file_index>  (1) 
15

>  <i_f3d_flags>  (1) 
0

>  <num_sample>  (1) 
100

>  <b_lp_Chiralities_Consistent>  (1) 
1

>  <r_epik_Charging_Adjusted_Penalty>  (1) 
0

>  <r_epik_Ionization_Penalty>  (1) 
4.2263924331700322e-08

>  <r_epik_Ionization_Penalty_Charging>  (1) 
0

>  <r_epik_Ionization_Penalty_Neutral>  (1) 
4.2263924331700322e-08

>  <r_epik_State_Penalty>  (1) 
-0

>  <r_glide_ring_energy>  (1) 
0

>  <r_i_docking_score>  (1) 
-4.7404377663446109

>  <r_i_glide_ecoul>  (1) 
-4.2620106515363947

>  <r_i_glide_eff_state_penalty>  (1) 
-0

>  <r_i_glide_einternal>  (1) 
0.36947404472684153

>  <r_i_glide_emodel>  (1) 
-22.518704847734565

>  <r_i_glide_emodel_strain>  (1) 
0

>  <r_i_glide_energy>  (1) 
-16.69373726279408

>  <r_i_glide_erotb>  (1) 
0

>  <r_i_glide_esite>  (1) 
0

>  <r_i_glide_evdw>  (1) 
-12.431726611257684

>  <r_i_glide_gscore>  (1) 
-4.7404377663446109

>  <r_i_glide_gscore_strain>  (1) 
0

>  <r_i_glide_hbond>  (1) 
-0.16

>  <r_i_glide_ligand_efficiency>  (1) 
-0.67720539519208722

>  <r_i_glide_ligand_efficiency_ln>  (1) 
-1.6091589785468379

>  <r_i_glide_ligand_efficiency_sa>  (1) 
-1.2954473176046428

>  <r_i_glide_lipo>  (1) 
-0.69454983805126758

>  <r_i_glide_metal>  (1) 
-0

>  <r_i_glide_rewards>  (1) 
-2.625

>  <r_lp_Energy>  (1) 
6.7642049999999996

>  <r_lp_tautomer_probability>  (1) 
1

>  <s_epik_cmdline>  (1) 
J2VwaWtfcHl0aG9uJywgJy1waHQnLCAnMS4wJywgJy1waCcsICc3LjQnLCAnLXRuJywgJzgnLCAnLW1hJywgJzUwMCcsICctaW1hZScsICc8aW5maWxlLm1hZT4nLCAnLW9tYWUnLCAnPG91dGZpbGUubWFlPic=

>  <s_epik_input>  (1) 
W0NIMl0xW0NIMl1bQ0gyXU9bQ0gyXVtDQEhdMVtPSF0=

>  <s_glide_docking_method>  (1) 
confgen

>  <s_i_glide_gridfile>  (1) 
gpcr_drd2_6luq_protein_autoprepared_prepared

>  <s_lp_Force_Field>  (1) 
S-OPLS

>  <s_lp_Variant>  (1) 
Pocket2Mol_14-1

>  <s_m_source_file>  (1) 
generated_generic_title2_ligand_Pocket2Mol_2026-06-23_prepared.sdf

>  <GenAI_Model>  (1) 
Pocket2Mol

>  <Protein>  (1) 
generic_title2

$$$$
Pocket2Mol_17
     RDKit          3D

  0  0  0  0  0  0  0  0  0  0999 V3000
M  V30 BEGIN CTAB
M  V30 COUNTS 12 12 0 0 1
M  V30 BEGIN ATOM
M  V30 1 N 11.171890 8.691321 -5.862101 0
M  V30 2 C 10.975368 7.354453 -5.541734 0
M  V30 3 C 11.428341 6.790251 -4.402275 0
M  V30 4 C 12.175359 7.621358 -3.430536 0
M  V30 5 O 12.609719 7.158216 -2.378014 0
M  V30 6 C 11.869182 9.494237 -4.969025 0
M  V30 7 C 12.369095 9.042410 -3.799490 0
M  V30 8 H 10.425130 6.797262 -6.285820 0
M  V30 9 H 11.260048 5.746780 -4.180141 0
M  V30 10 H 10.814641 9.072243 -6.727770 0
M  V30 11 H 11.980102 10.519857 -5.289476 0
M  V30 12 H 12.907637 9.691099 -3.124453 0
M  V30 END ATOM
M  V30 BEGIN BOND
M  V30 1 1 2 1
M  V30 2 2 3 2
M  V30 3 1 4 3
M  V30 4 2 5 4
M  V30 5 1 6 1
M  V30 6 1 7 4
M  V30 7 2 7 6
M  V30 8 1 8 2
M  V30 9 1 9 3
M  V30 10 1 10 1
M  V30 11 1 11 6
M  V30 12 1 12 7
M  V30 END BOND
M  V30 END CTAB
M  END
>  <i_epik_Tot_Q>  (1) 
0

>  <i_epik_Tot_abs_Q>  (1) 
0

>  <i_i_glide_confnum>  (1) 
1

>  <i_i_glide_lignum>  (1) 
20

>  <i_i_glide_posenum>  (1) 
1

>  <i_i_glide_rotatable_bonds>  (1) 
0

>  <i_lp_mmshare_version>  (1) 
72125

>  <i_m_source_file_index>  (1) 
18

>  <i_f3d_flags>  (1) 
0

>  <num_sample>  (1) 
100

>  <b_lp_Chiralities_Consistent>  (1) 
1

>  <r_epik_Charging_Adjusted_Penalty>  (1) 
0.00011828912318149299

>  <r_epik_Ionization_Penalty>  (1) 
0.00011828912318149299

>  <r_epik_Ionization_Penalty_Charging>  (1) 
0.00011828912318149299

>  <r_epik_Ionization_Penalty_Neutral>  (1) 
0

>  <r_epik_State_Penalty>  (1) 
-0

>  <r_glide_ring_energy>  (1) 
0

>  <r_i_docking_score>  (1) 
-4.7322421100367684

>  <r_i_glide_ecoul>  (1) 
-0.84931267371474573

>  <r_i_glide_eff_state_penalty>  (1) 
-0

>  <r_i_glide_einternal>  (1) 
0

>  <r_i_glide_emodel>  (1) 
-23.936000382788905

>  <r_i_glide_emodel_strain>  (1) 
0

>  <r_i_glide_energy>  (1) 
-18.059583364092134

>  <r_i_glide_erotb>  (1) 
0

>  <r_i_glide_esite>  (1) 
0

>  <r_i_glide_evdw>  (1) 
-17.210270690377389

>  <r_i_glide_gscore>  (1) 
-4.7322421100367684

>  <r_i_glide_gscore_strain>  (1) 
0

>  <r_i_glide_hbond>  (1) 
0

>  <r_i_glide_ligand_efficiency>  (1) 
-0.67603458714810982

>  <r_i_glide_ligand_efficiency_ln>  (1) 
-1.6063769329673179

>  <r_i_glide_ligand_efficiency_sa>  (1) 
-1.2932076423882775

>  <r_i_glide_lipo>  (1) 
-1.4943316744606876

>  <r_i_glide_metal>  (1) 
-0

>  <r_i_glide_rewards>  (1) 
-2.25

>  <r_lp_Energy>  (1) 
8.1847359999999991

>  <r_lp_tautomer_probability>  (1) 
1

>  <s_epik_cmdline>  (1) 
J2VwaWtfcHl0aG9uJywgJy1waHQnLCAnMS4wJywgJy1waCcsICc3LjQnLCAnLXRuJywgJzgnLCAnLW1hJywgJzUwMCcsICctaW1hZScsICc8aW5maWxlLm1hZT4nLCAnLW9tYWUnLCAnPG91dGZpbGUubWFlPic=

>  <s_epik_input>  (1) 
W2NIXTFbY0hdbltjSF1bY0hdYzFbT0hd

>  <s_glide_docking_method>  (1) 
confgen

>  <s_i_glide_gridfile>  (1) 
gpcr_drd2_6luq_protein_autoprepared_prepared

>  <s_lp_Force_Field>  (1) 
S-OPLS

>  <s_lp_Variant>  (1) 
Pocket2Mol_17-1

>  <s_m_source_file>  (1) 
generated_generic_title2_ligand_Pocket2Mol_2026-06-23_prepared.sdf

>  <GenAI_Model>  (1) 
Pocket2Mol

>  <Protein>  (1) 
generic_title2

$$$$
Pocket2Mol_31
     RDKit          3D

  0  0  0  0  0  0  0  0  0  0999 V3000
M  V30 BEGIN CTAB
M  V30 COUNTS 20 21 0 0 1
M  V30 BEGIN ATOM
M  V30 1 C 9.345652 7.458345 -7.022000 0
M  V30 2 O 10.017735 8.674212 -6.691017 0
M  V30 3 C 11.311083 8.715087 -7.301224 0 CFG=2
M  V30 4 C 12.236058 9.544868 -6.418953 0
M  V30 5 C 11.233875 8.992056 -8.814168 0
M  V30 6 C 10.457012 6.421250 -7.123951 0
M  V30 7 C 11.772859 7.590327 -9.084455 0
M  V30 8 C 11.622559 7.244695 -7.594995 0 CFG=1
M  V30 9 H 8.576068 7.196882 -6.298868 0
M  V30 10 H 8.859065 7.576200 -7.986188 0
M  V30 11 H 13.262474 9.522986 -6.784849 0
M  V30 12 H 12.244062 9.172508 -5.394558 0
M  V30 13 H 11.915958 10.586424 -6.385025 0
M  V30 14 H 10.218195 9.137372 -9.185026 0
M  V30 15 H 11.895162 9.780521 -9.172006 0
M  V30 16 H 10.663774 5.991164 -6.143346 0
M  V30 17 H 10.202816 5.607338 -7.803646 0
M  V30 18 H 11.138664 7.000460 -9.746782 0
M  V30 19 H 12.810682 7.597393 -9.419800 0
M  V30 20 H 12.575373 6.916478 -7.185025 0
M  V30 END ATOM
M  V30 BEGIN BOND
M  V30 1 1 2 1
M  V30 2 1 3 2
M  V30 3 1 3 4 CFG=1
M  V30 4 1 5 3
M  V30 5 1 6 1
M  V30 6 1 7 5
M  V30 7 1 8 3
M  V30 8 1 8 6
M  V30 9 1 8 7
M  V30 10 1 9 1
M  V30 11 1 10 1
M  V30 12 1 11 4
M  V30 13 1 12 4
M  V30 14 1 13 4
M  V30 15 1 14 5
M  V30 16 1 15 5
M  V30 17 1 16 6
M  V30 18 1 17 6
M  V30 19 1 18 7
M  V30 20 1 19 7
M  V30 21 1 8 20 CFG=1
M  V30 END BOND
M  V30 END CTAB
M  END
>  <i_epik_Tot_Q>  (1) 
0

>  <i_epik_Tot_abs_Q>  (1) 
0

>  <i_i_glide_confnum>  (1) 
1

>  <i_i_glide_lignum>  (1) 
35

>  <i_i_glide_posenum>  (1) 
285

>  <i_i_glide_rotatable_bonds>  (1) 
0

>  <i_lp_mmshare_version>  (1) 
72125

>  <i_m_source_file_index>  (1) 
32

>  <i_f3d_flags>  (1) 
0

>  <num_sample>  (1) 
100

>  <b_lp_Chiralities_Consistent>  (1) 
1

>  <r_epik_Charging_Adjusted_Penalty>  (1) 
0

>  <r_epik_Ionization_Penalty>  (1) 
2.3587344998035955e-11

>  <r_epik_Ionization_Penalty_Charging>  (1) 
0

>  <r_epik_Ionization_Penalty_Neutral>  (1) 
2.3587344998035955e-11

>  <r_epik_State_Penalty>  (1) 
-0

>  <r_glide_ring_energy>  (1) 
0

>  <r_i_docking_score>  (1) 
-4.7301164745545226

>  <r_i_glide_ecoul>  (1) 
-0.72201770999037507

>  <r_i_glide_eff_state_penalty>  (1) 
-0

>  <r_i_glide_einternal>  (1) 
0

>  <r_i_glide_emodel>  (1) 
-18.260018395683545

>  <r_i_glide_emodel_strain>  (1) 
3.6986236295888375e-10

>  <r_i_glide_energy>  (1) 
-13.906814127582606

>  <r_i_glide_erotb>  (1) 
0

>  <r_i_glide_esite>  (1) 
0

>  <r_i_glide_evdw>  (1) 
-13.184796417592231

>  <r_i_glide_gscore>  (1) 
-4.7301164745545226

>  <r_i_glide_gscore_strain>  (1) 
0

>  <r_i_glide_hbond>  (1) 
0

>  <r_i_glide_ligand_efficiency>  (1) 
-0.59126455931931532

>  <r_i_glide_ligand_efficiency_ln>  (1) 
-1.5360306115680453

>  <r_i_glide_ligand_efficiency_sa>  (1) 
-1.1825291186386309

>  <r_i_glide_lipo>  (1) 
-1.1927973015327999

>  <r_i_glide_metal>  (1) 
-0

>  <r_i_glide_rewards>  (1) 
-2.7697766956435546

>  <r_lp_Energy>  (1) 
15.613807

>  <r_lp_tautomer_probability>  (1) 
1

>  <s_epik_cmdline>  (1) 
J2VwaWtfcHl0aG9uJywgJy1waHQnLCAnMS4wJywgJy1waCcsICc3LjQnLCAnLXRuJywgJzgnLCAnLW1hJywgJzUwMCcsICctaW1hZScsICc8aW5maWxlLm1hZT4nLCAnLW9tYWUnLCAnPG91dGZpbGUubWFlPic=

>  <s_epik_input>  (1) 
TzFbQ0gyXVtDSDJdW0NASF0oW0NAXTEyW0NIM10pW0NIMl1bQ0gyXTI=

>  <s_glide_docking_method>  (1) 
confgen

>  <s_i_glide_gridfile>  (1) 
gpcr_drd2_6luq_protein_autoprepared_prepared

>  <s_lp_Force_Field>  (1) 
S-OPLS

>  <s_lp_Variant>  (1) 
Pocket2Mol_31-1

>  <s_m_source_file>  (1) 
generated_generic_title2_ligand_Pocket2Mol_2026-06-23_prepared.sdf

>  <GenAI_Model>  (1) 
Pocket2Mol

>  <Protein>  (1) 
generic_title2

$$$$
Pocket2Mol_28
     RDKit          3D

  0  0  0  0  0  0  0  0  0  0999 V3000
M  V30 BEGIN CTAB
M  V30 COUNTS 13 13 0 0 1
M  V30 BEGIN ATOM
M  V30 1 N 10.105155 6.926068 -6.705780 0
M  V30 2 C 9.461721 7.025800 -7.920558 0
M  V30 3 C 10.017565 7.599010 -9.008073 0
M  V30 4 C 11.379496 7.447154 -6.577969 0
M  V30 5 O 9.375430 7.702666 -10.179330 0
M  V30 6 C 11.396580 8.152850 -8.917728 0
M  V30 7 O 11.961115 8.668002 -9.879837 0
M  V30 8 C 12.048891 8.042360 -7.587282 0
M  V30 9 H 8.466397 6.610793 -7.928139 0
M  V30 10 H 11.802035 7.336824 -5.587806 0
M  V30 11 H 8.440295 7.590415 -9.985014 0
M  V30 12 H 13.042526 8.440292 -7.457222 0
M  V30 13 H 9.647203 6.488943 -5.916189 0
M  V30 END ATOM
M  V30 BEGIN BOND
M  V30 1 1 2 1
M  V30 2 2 3 2
M  V30 3 1 4 1
M  V30 4 1 5 3
M  V30 5 1 6 3
M  V30 6 2 7 6
M  V30 7 2 8 4
M  V30 8 1 8 6
M  V30 9 1 9 2
M  V30 10 1 10 4
M  V30 11 1 11 5
M  V30 12 1 12 8
M  V30 13 1 13 1
M  V30 END BOND
M  V30 END CTAB
M  END
>  <i_epik_Tot_Q>  (1) 
0

>  <i_epik_Tot_abs_Q>  (1) 
0

>  <i_i_glide_confnum>  (1) 
1

>  <i_i_glide_lignum>  (1) 
32

>  <i_i_glide_posenum>  (1) 
101

>  <i_i_glide_rotatable_bonds>  (1) 
1

>  <i_lp_mmshare_version>  (1) 
72125

>  <i_m_source_file_index>  (1) 
29

>  <i_f3d_flags>  (1) 
0

>  <num_sample>  (1) 
100

>  <b_lp_Chiralities_Consistent>  (1) 
1

>  <r_epik_Charging_Adjusted_Penalty>  (1) 
0.000203171374695584

>  <r_epik_Ionization_Penalty>  (1) 
0.014901896624084464

>  <r_epik_Ionization_Penalty_Charging>  (1) 
0.000203171374695584

>  <r_epik_Ionization_Penalty_Neutral>  (1) 
0.01469872524938888

>  <r_epik_State_Penalty>  (1) 
-0

>  <r_glide_ring_energy>  (1) 
0

>  <r_i_docking_score>  (1) 
-4.7270848911808763

>  <r_i_glide_ecoul>  (1) 
-7.1078291876659279

>  <r_i_glide_eff_state_penalty>  (1) 
-0

>  <r_i_glide_einternal>  (1) 
0.68476587634233765

>  <r_i_glide_emodel>  (1) 
-26.242007802651056

>  <r_i_glide_emodel_strain>  (1) 
0.045689273119294604

>  <r_i_glide_energy>  (1) 
-19.788215554622752

>  <r_i_glide_erotb>  (1) 
0

>  <r_i_glide_esite>  (1) 
0

>  <r_i_glide_evdw>  (1) 
-12.680386366956826

>  <r_i_glide_gscore>  (1) 
-4.7270848911808763

>  <r_i_glide_gscore_strain>  (1) 
0

>  <r_i_glide_hbond>  (1) 
-0.16

>  <r_i_glide_ligand_efficiency>  (1) 
-0.59088561139760953

>  <r_i_glide_ligand_efficiency_ln>  (1) 
-1.5350461527521808

>  <r_i_glide_ligand_efficiency_sa>  (1) 
-1.1817712227952193

>  <r_i_glide_lipo>  (1) 
-0.61689119468314524

>  <r_i_glide_metal>  (1) 
-0

>  <r_i_glide_rewards>  (1) 
-2.25

>  <r_lp_Energy>  (1) 
11.500328

>  <r_lp_tautomer_probability>  (1) 
1

>  <s_epik_cmdline>  (1) 
J2VwaWtfcHl0aG9uJywgJy1waHQnLCAnMS4wJywgJy1waCcsICc3LjQnLCAnLXRuJywgJzgnLCAnLW1hJywgJzUwMCcsICctaW1hZScsICc8aW5maWxlLm1hZT4nLCAnLW9tYWUnLCAnPG91dGZpbGUubWFlPic=

>  <s_epik_input>  (1) 
W09IXWMxW2NIXW5bY0hdW2NIXWMxW09IXQ==

>  <s_glide_docking_method>  (1) 
confgen

>  <s_i_glide_gridfile>  (1) 
gpcr_drd2_6luq_protein_autoprepared_prepared

>  <s_lp_Force_Field>  (1) 
S-OPLS

>  <s_lp_Variant>  (1) 
Pocket2Mol_28-1

>  <s_m_source_file>  (1) 
generated_generic_title2_ligand_Pocket2Mol_2026-06-23_prepared.sdf

>  <GenAI_Model>  (1) 
Pocket2Mol

>  <Protein>  (1) 
generic_title2

$$$$
Pocket2Mol_8
     RDKit          3D

  0  0  0  0  0  0  0  0  0  0999 V3000
M  V30 BEGIN CTAB
M  V30 COUNTS 13 13 0 0 1
M  V30 BEGIN ATOM
M  V30 1 N 10.826074 8.790227 -6.341689 0
M  V30 2 C 11.488478 9.178399 -5.213593 0
M  V30 3 C 11.775410 8.217692 -4.384987 0
M  V30 4 C 10.740812 7.511794 -6.104670 0
M  V30 5 C 12.500360 8.390226 -3.066240 0
M  V30 6 C 11.341638 6.869213 -4.793029 0
M  V30 7 H 11.728305 10.222938 -5.074446 0
M  V30 8 H 10.252839 6.817550 -6.794097 0
M  V30 9 H 13.375410 7.742392 -3.032300 0
M  V30 10 H 12.827505 9.421066 -2.924577 0
M  V30 11 H 11.844421 8.122774 -2.237406 0
M  V30 12 H 10.575412 6.428735 -4.154016 0
M  V30 13 H 12.160387 6.181674 -5.003175 0
M  V30 END ATOM
M  V30 BEGIN BOND
M  V30 1 1 2 1
M  V30 2 2 3 2
M  V30 3 2 4 1
M  V30 4 1 5 3
M  V30 5 1 6 3
M  V30 6 1 6 4
M  V30 7 1 7 2
M  V30 8 1 8 4
M  V30 9 1 9 5
M  V30 10 1 10 5
M  V30 11 1 11 5
M  V30 12 1 12 6
M  V30 13 1 13 6
M  V30 END BOND
M  V30 END CTAB
M  END
>  <i_epik_Tot_Q>  (1) 
0

>  <i_epik_Tot_abs_Q>  (1) 
0

>  <i_i_glide_confnum>  (1) 
1

>  <i_i_glide_lignum>  (1) 
9

>  <i_i_glide_posenum>  (1) 
178

>  <i_i_glide_rotatable_bonds>  (1) 
0

>  <i_lp_mmshare_version>  (1) 
72125

>  <i_m_source_file_index>  (1) 
9

>  <i_f3d_flags>  (1) 
0

>  <num_sample>  (1) 
100

>  <b_lp_Chiralities_Consistent>  (1) 
1

>  <r_epik_Charging_Adjusted_Penalty>  (1) 
0

>  <r_epik_Ionization_Penalty>  (1) 
0

>  <r_epik_Ionization_Penalty_Charging>  (1) 
0

>  <r_epik_Ionization_Penalty_Neutral>  (1) 
0

>  <r_epik_State_Penalty>  (1) 
-0

>  <r_glide_ring_energy>  (1) 
0

>  <r_i_docking_score>  (1) 
-4.7261355719837734

>  <r_i_glide_ecoul>  (1) 
-0.73239216238574101

>  <r_i_glide_eff_state_penalty>  (1) 
-0

>  <r_i_glide_einternal>  (1) 
0

>  <r_i_glide_emodel>  (1) 
-21.496855448942544

>  <r_i_glide_emodel_strain>  (1) 
0

>  <r_i_glide_energy>  (1) 
-16.27103551797622

>  <r_i_glide_erotb>  (1) 
0

>  <r_i_glide_esite>  (1) 
0

>  <r_i_glide_evdw>  (1) 
-15.538643355590478

>  <r_i_glide_gscore>  (1) 
-4.7261355719837734

>  <r_i_glide_gscore_strain>  (1) 
0

>  <r_i_glide_hbond>  (1) 
0

>  <r_i_glide_ligand_efficiency>  (1) 
-0.78768926199729561

>  <r_i_glide_ligand_efficiency_ln>  (1) 
-1.6928878093106603

>  <r_i_glide_ligand_efficiency_sa>  (1) 
-1.4313263787280364

>  <r_i_glide_lipo>  (1) 
-1.0756865427226239

>  <r_i_glide_metal>  (1) 
-0

>  <r_i_glide_rewards>  (1) 
-2.7636580371237649

>  <r_lp_Energy>  (1) 
-3.9959819999999997

>  <r_lp_tautomer_probability>  (1) 
1

>  <s_epik_Chemistry_Notes>  (1) 
This compound has an imine and may undergo hydrolysis.

>  <s_epik_cmdline>  (1) 
J2VwaWtfcHl0aG9uJywgJy1waHQnLCAnMS4wJywgJy1waCcsICc3LjQnLCAnLXRuJywgJzgnLCAnLW1hJywgJzUwMCcsICctaW1hZScsICc8aW5maWxlLm1hZT4nLCAnLW9tYWUnLCAnPG91dGZpbGUubWFlPic=

>  <s_epik_input>  (1) 
W0NIMl0xW0NIXT1OW0NIXT1DMVtDSDNd

>  <s_glide_docking_method>  (1) 
confgen

>  <s_i_glide_gridfile>  (1) 
gpcr_drd2_6luq_protein_autoprepared_prepared

>  <s_lp_Force_Field>  (1) 
S-OPLS

>  <s_lp_Variant>  (1) 
Pocket2Mol_8-1

>  <s_m_source_file>  (1) 
generated_generic_title2_ligand_Pocket2Mol_2026-06-23_prepared.sdf

>  <GenAI_Model>  (1) 
Pocket2Mol

>  <Protein>  (1) 
generic_title2

$$$$
Pocket2Mol_30
     RDKit          3D

  0  0  0  0  0  0  0  0  0  0999 V3000
M  V30 BEGIN CTAB
M  V30 COUNTS 14 14 0 0 1
M  V30 BEGIN ATOM
M  V30 1 N 10.965914 7.507841 -7.085403 0
M  V30 2 C 11.375410 8.790227 -7.131117 0
M  V30 3 C 11.790742 9.482565 -5.989610 0
M  V30 4 C 11.775409 8.781540 -4.785029 0
M  V30 5 O 12.180171 9.383436 -3.610004 0
M  V30 6 C 10.975410 6.951831 -5.865008 0
M  V30 7 N 11.375410 7.491642 -4.702272 0
M  V30 8 C 12.327836 8.582744 -2.439473 0
M  V30 9 H 11.371447 9.268897 -8.098934 0
M  V30 10 H 12.115186 10.510858 -6.039592 0
M  V30 11 H 10.631753 5.932369 -5.813163 0
M  V30 12 H 12.725897 9.190227 -1.628290 0
M  V30 13 H 11.375440 8.176115 -2.100412 0
M  V30 14 H 13.025604 7.761011 -2.606226 0
M  V30 END ATOM
M  V30 BEGIN BOND
M  V30 1 1 2 1
M  V30 2 2 3 2
M  V30 3 1 4 3
M  V30 4 1 5 4
M  V30 5 2 6 1
M  V30 6 2 7 4
M  V30 7 1 7 6
M  V30 8 1 8 5
M  V30 9 1 9 2
M  V30 10 1 10 3
M  V30 11 1 11 6
M  V30 12 1 12 8
M  V30 13 1 13 8
M  V30 14 1 14 8
M  V30 END BOND
M  V30 END CTAB
M  END
>  <i_epik_Tot_Q>  (1) 
0

>  <i_epik_Tot_abs_Q>  (1) 
0

>  <i_i_glide_confnum>  (1) 
1

>  <i_i_glide_lignum>  (1) 
34

>  <i_i_glide_posenum>  (1) 
71

>  <i_i_glide_rotatable_bonds>  (1) 
1

>  <i_lp_mmshare_version>  (1) 
72125

>  <i_m_source_file_index>  (1) 
31

>  <i_f3d_flags>  (1) 
0

>  <num_sample>  (1) 
100

>  <b_lp_Chiralities_Consistent>  (1) 
1

>  <r_epik_Charging_Adjusted_Penalty>  (1) 
0

>  <r_epik_Ionization_Penalty>  (1) 
8.6638422661064201e-06

>  <r_epik_Ionization_Penalty_Charging>  (1) 
0

>  <r_epik_Ionization_Penalty_Neutral>  (1) 
8.6638422661064201e-06

>  <r_epik_State_Penalty>  (1) 
-0

>  <r_glide_ring_energy>  (1) 
0

>  <r_i_docking_score>  (1) 
-4.7228026759211899

>  <r_i_glide_ecoul>  (1) 
-0.24303198928569628

>  <r_i_glide_eff_state_penalty>  (1) 
-0

>  <r_i_glide_einternal>  (1) 
0.064024518661524477

>  <r_i_glide_emodel>  (1) 
-24.135999416153773

>  <r_i_glide_emodel_strain>  (1) 
0

>  <r_i_glide_energy>  (1) 
-18.301609849347688

>  <r_i_glide_erotb>  (1) 
0

>  <r_i_glide_esite>  (1) 
0

>  <r_i_glide_evdw>  (1) 
-18.058577860061991

>  <r_i_glide_gscore>  (1) 
-4.7228026759211899

>  <r_i_glide_gscore_strain>  (1) 
0

>  <r_i_glide_hbond>  (1) 
0

>  <r_i_glide_ligand_efficiency>  (1) 
-0.59035033449014873

>  <r_i_glide_ligand_efficiency_ln>  (1) 
-1.5336555709854134

>  <r_i_glide_ligand_efficiency_sa>  (1) 
-1.1807006689802977

>  <r_i_glide_lipo>  (1) 
-1.1203294857721036

>  <r_i_glide_metal>  (1) 
-0

>  <r_i_glide_rewards>  (1) 
-2.6630894987531319

>  <r_lp_Energy>  (1) 
14.393509

>  <r_lp_tautomer_probability>  (1) 
1

>  <s_epik_cmdline>  (1) 
J2VwaWtfcHl0aG9uJywgJy1waHQnLCAnMS4wJywgJy1waCcsICc3LjQnLCAnLXRuJywgJzgnLCAnLW1hJywgJzUwMCcsICctaW1hZScsICc8aW5maWxlLm1hZT4nLCAnLW9tYWUnLCAnPG91dGZpbGUubWFlPic=

>  <s_epik_input>  (1) 
bjFbY0hdbltjSF1bY0hdYzFPW0NIM10=

>  <s_glide_docking_method>  (1) 
confgen

>  <s_i_glide_gridfile>  (1) 
gpcr_drd2_6luq_protein_autoprepared_prepared

>  <s_lp_Force_Field>  (1) 
S-OPLS

>  <s_lp_Variant>  (1) 
Pocket2Mol_30-1

>  <s_m_source_file>  (1) 
generated_generic_title2_ligand_Pocket2Mol_2026-06-23_prepared.sdf

>  <GenAI_Model>  (1) 
Pocket2Mol

>  <Protein>  (1) 
generic_title2

$$$$
Pocket2Mol_10
     RDKit          3D

  0  0  0  0  0  0  0  0  0  0999 V3000
M  V30 BEGIN CTAB
M  V30 COUNTS 12 12 0 0 1
M  V30 BEGIN ATOM
M  V30 1 O 12.426877 7.961554 -1.985578 0
M  V30 2 C 12.175681 9.023260 -2.804491 0
M  V30 3 C 12.175293 6.853151 -2.726753 0
M  V30 4 C 11.775410 8.614118 -4.049237 0
M  V30 5 C 11.410151 9.479893 -5.224423 0
M  V30 6 C 11.775410 7.190413 -3.985642 0
M  V30 7 H 12.329542 9.990771 -2.352502 0
M  V30 8 H 12.325178 5.913321 -2.215028 0
M  V30 9 H 10.681845 8.974912 -5.859653 0
M  V30 10 H 10.975374 10.421458 -4.887087 0
M  V30 11 H 12.295595 9.701449 -5.820486 0
M  V30 12 H 11.513158 6.495912 -4.771102 0
M  V30 END ATOM
M  V30 BEGIN BOND
M  V30 1 1 2 1
M  V30 2 1 3 1
M  V30 3 2 4 2
M  V30 4 1 5 4
M  V30 5 2 6 3
M  V30 6 1 6 4
M  V30 7 1 7 2
M  V30 8 1 8 3
M  V30 9 1 9 5
M  V30 10 1 10 5
M  V30 11 1 11 5
M  V30 12 1 12 6
M  V30 END BOND
M  V30 END CTAB
M  END
>  <i_epik_Tot_Q>  (1) 
0

>  <i_epik_Tot_abs_Q>  (1) 
0

>  <i_i_glide_confnum>  (1) 
1

>  <i_i_glide_lignum>  (1) 
13

>  <i_i_glide_posenum>  (1) 
335

>  <i_i_glide_rotatable_bonds>  (1) 
0

>  <i_lp_mmshare_version>  (1) 
72125

>  <i_m_source_file_index>  (1) 
11

>  <i_f3d_flags>  (1) 
0

>  <num_sample>  (1) 
100

>  <b_lp_Chiralities_Consistent>  (1) 
1

>  <r_epik_Charging_Adjusted_Penalty>  (1) 
0

>  <r_epik_Ionization_Penalty>  (1) 
0

>  <r_epik_Ionization_Penalty_Charging>  (1) 
0

>  <r_epik_Ionization_Penalty_Neutral>  (1) 
0

>  <r_epik_State_Penalty>  (1) 
-0

>  <r_glide_ring_energy>  (1) 
0

>  <r_i_docking_score>  (1) 
-4.7227966726077169

>  <r_i_glide_ecoul>  (1) 
-1.1066919003855373

>  <r_i_glide_eff_state_penalty>  (1) 
-0

>  <r_i_glide_einternal>  (1) 
0

>  <r_i_glide_emodel>  (1) 
-19.409898833366757

>  <r_i_glide_emodel_strain>  (1) 
0

>  <r_i_glide_energy>  (1) 
-15.015961098227766

>  <r_i_glide_erotb>  (1) 
0

>  <r_i_glide_esite>  (1) 
0

>  <r_i_glide_evdw>  (1) 
-13.909269197842228

>  <r_i_glide_gscore>  (1) 
-4.7227966726077169

>  <r_i_glide_gscore_strain>  (1) 
0

>  <r_i_glide_hbond>  (1) 
0

>  <r_i_glide_ligand_efficiency>  (1) 
-0.78713277876795285

>  <r_i_glide_ligand_efficiency_ln>  (1) 
-1.6916918254113096

>  <r_i_glide_ligand_efficiency_sa>  (1) 
-1.430315181592432

>  <r_i_glide_lipo>  (1) 
-1.4184278982680851

>  <r_i_glide_metal>  (1) 
-0

>  <r_i_glide_rewards>  (1) 
-2.4429015293896894

>  <r_lp_Energy>  (1) 
-1.206345

>  <r_lp_tautomer_probability>  (1) 
1

>  <s_epik_cmdline>  (1) 
J2VwaWtfcHl0aG9uJywgJy1waHQnLCAnMS4wJywgJy1waCcsICc3LjQnLCAnLXRuJywgJzgnLCAnLW1hJywgJzUwMCcsICctaW1hZScsICc8aW5maWxlLm1hZT4nLCAnLW9tYWUnLCAnPG91dGZpbGUubWFlPic=

>  <s_epik_input>  (1) 
W2NIXTFbY0hdb1tjSF1jMVtDSDNd

>  <s_glide_docking_method>  (1) 
confgen

>  <s_i_glide_gridfile>  (1) 
gpcr_drd2_6luq_protein_autoprepared_prepared

>  <s_lp_Force_Field>  (1) 
S-OPLS

>  <s_lp_Variant>  (1) 
Pocket2Mol_10-1

>  <s_m_source_file>  (1) 
generated_generic_title2_ligand_Pocket2Mol_2026-06-23_prepared.sdf

>  <GenAI_Model>  (1) 
Pocket2Mol

>  <Protein>  (1) 
generic_title2

$$$$
Pocket2Mol_81
     RDKit          3D

  0  0  0  0  0  0  0  0  0  0999 V3000
M  V30 BEGIN CTAB
M  V30 COUNTS 20 21 0 0 1
M  V30 BEGIN ATOM
M  V30 1 C 8.832280 5.003574 -10.330088 0
M  V30 2 O 8.574975 5.390963 -8.988133 0
M  V30 3 C 9.423776 6.343518 -8.469411 0
M  V30 4 C 9.077783 6.247810 -11.186033 0
M  V30 5 O 10.223553 6.925136 -10.691817 0
M  V30 6 C 10.261087 7.109912 -9.325212 0
M  V30 7 C 11.141614 8.063021 -8.771694 0
M  V30 8 O 11.961270 8.790227 -9.585027 0
M  V30 9 C 9.460618 6.558825 -7.078506 0
M  V30 10 C 11.177799 8.265749 -7.376715 0
M  V30 11 O 12.030513 9.190229 -6.843160 0
M  V30 12 C 10.334687 7.517440 -6.533000 0
M  V30 13 H 7.974884 4.445342 -10.706016 0
M  V30 14 H 9.692861 4.334083 -10.361432 0
M  V30 15 H 8.212389 6.911853 -11.185025 0
M  V30 16 H 9.259909 5.962887 -12.222275 0
M  V30 17 H 12.515293 9.369410 -9.082233 0
M  V30 18 H 8.817435 5.986343 -6.428046 0
M  V30 19 H 11.945189 9.270296 -5.905768 0
M  V30 20 H 10.359384 7.674920 -5.465209 0
M  V30 END ATOM
M  V30 BEGIN BOND
M  V30 1 1 2 1
M  V30 2 1 3 2
M  V30 3 1 4 1
M  V30 4 1 5 4
M  V30 5 2 6 3
M  V30 6 1 6 5
M  V30 7 1 7 6
M  V30 8 1 8 7
M  V30 9 1 9 3
M  V30 10 2 10 7
M  V30 11 1 11 10
M  V30 12 2 12 9
M  V30 13 1 12 10
M  V30 14 1 13 1
M  V30 15 1 14 1
M  V30 16 1 15 4
M  V30 17 1 16 4
M  V30 18 1 17 8
M  V30 19 1 18 9
M  V30 20 1 19 11
M  V30 21 1 20 12
M  V30 END BOND
M  V30 END CTAB
M  END
>  <i_epik_Tot_Q>  (1) 
0

>  <i_epik_Tot_abs_Q>  (1) 
0

>  <i_i_glide_confnum>  (1) 
1

>  <i_i_glide_lignum>  (1) 
88

>  <i_i_glide_posenum>  (1) 
394

>  <i_i_glide_rotatable_bonds>  (1) 
2

>  <i_lp_mmshare_version>  (1) 
72125

>  <i_m_source_file_index>  (1) 
82

>  <i_f3d_flags>  (1) 
0

>  <num_sample>  (1) 
100

>  <b_lp_Chiralities_Consistent>  (1) 
1

>  <r_epik_Charging_Adjusted_Penalty>  (1) 
0.0036846811785224438

>  <r_epik_Ionization_Penalty>  (1) 
0.0053862680964110767

>  <r_epik_Ionization_Penalty_Charging>  (1) 
0

>  <r_epik_Ionization_Penalty_Neutral>  (1) 
0.0053862680964110767

>  <r_epik_State_Penalty>  (1) 
0.0036846811785224438

>  <r_glide_ring_energy>  (1) 
0

>  <r_i_docking_score>  (1) 
-4.7103924473319063

>  <r_i_glide_ecoul>  (1) 
-1.0786986991631244

>  <r_i_glide_eff_state_penalty>  (1) 
0.0036846811785224438

>  <r_i_glide_einternal>  (1) 
0.015626146317950562

>  <r_i_glide_emodel>  (1) 
-31.733087001327934

>  <r_i_glide_emodel_strain>  (1) 
0

>  <r_i_glide_energy>  (1) 
-23.323384856107936

>  <r_i_glide_erotb>  (1) 
0

>  <r_i_glide_esite>  (1) 
0

>  <r_i_glide_evdw>  (1) 
-22.244686156944812

>  <r_i_glide_gscore>  (1) 
-4.7140771285104286

>  <r_i_glide_gscore_strain>  (1) 
0

>  <r_i_glide_hbond>  (1) 
0

>  <r_i_glide_ligand_efficiency>  (1) 
-0.39253270394432555

>  <r_i_glide_ligand_efficiency_ln>  (1) 
-1.3516552724930111

>  <r_i_glide_ligand_efficiency_sa>  (1) 
-0.89867555374607977

>  <r_i_glide_lipo>  (1) 
-0.58205261035812728

>  <r_i_glide_metal>  (1) 
-0

>  <r_i_glide_rewards>  (1) 
-2.8579854054305911

>  <r_lp_Energy>  (1) 
18.638769

>  <r_lp_tautomer_probability>  (1) 
0.99999998461580031

>  <s_epik_cmdline>  (1) 
J2VwaWtfcHl0aG9uJywgJy1waHQnLCAnMS4wJywgJy1waCcsICc3LjQnLCAnLXRuJywgJzgnLCAnLW1hJywgJzUwMCcsICctaW1hZScsICc8aW5maWxlLm1hZT4nLCAnLW9tYWUnLCAnPG91dGZpbGUubWFlPic=

>  <s_epik_input>  (1) 
TzFbQ0gyXVtDSDJdT2MoYzEyKWMoW09IXSljKFtPSF0pW2NIXVtjSF0y

>  <s_glide_docking_method>  (1) 
confgen

>  <s_i_glide_gridfile>  (1) 
gpcr_drd2_6luq_protein_autoprepared_prepared

>  <s_lp_Force_Field>  (1) 
S-OPLS

>  <s_lp_Variant>  (1) 
Pocket2Mol_81-1

>  <s_m_source_file>  (1) 
generated_generic_title2_ligand_Pocket2Mol_2026-06-23_prepared.sdf

>  <GenAI_Model>  (1) 
Pocket2Mol

>  <Protein>  (1) 
generic_title2

$$$$
Pocket2Mol_40
     RDKit          3D

  0  0  0  0  0  0  0  0  0  0999 V3000
M  V30 BEGIN CTAB
M  V30 COUNTS 14 14 0 0 1
M  V30 BEGIN ATOM
M  V30 1 C 11.203480 8.337580 -6.874346 0
M  V30 2 O 11.360435 9.451674 -6.008011 0
M  V30 3 C 11.757985 9.163060 -4.723200 0
M  V30 4 C 10.559874 7.176496 -6.118899 0
M  V30 5 O 11.365383 6.847996 -4.997556 0
M  V30 6 C 11.775410 7.906449 -4.215504 0
M  V30 7 C 12.232957 7.592909 -2.753840 0
M  V30 8 O 12.210795 6.390227 -2.418528 0 CHG=-1
M  V30 9 O 12.575413 8.576864 -2.063586 0
M  V30 10 H 12.177421 8.044645 -7.266917 0
M  V30 11 H 10.586623 8.629285 -7.724543 0
M  V30 12 H 12.055701 10.042700 -4.178063 0
M  V30 13 H 10.465662 6.301397 -6.762121 0
M  V30 14 H 9.556021 7.441794 -5.785543 0
M  V30 END ATOM
M  V30 BEGIN BOND
M  V30 1 1 2 1
M  V30 2 1 3 2
M  V30 3 1 4 1
M  V30 4 1 5 4
M  V30 5 2 6 3
M  V30 6 1 6 5
M  V30 7 1 7 6
M  V30 8 1 8 7
M  V30 9 2 9 7
M  V30 10 1 10 1
M  V30 11 1 11 1
M  V30 12 1 12 3
M  V30 13 1 13 4
M  V30 14 1 14 4
M  V30 END BOND
M  V30 END CTAB
M  END
>  <i_epik_Tot_Q>  (1) 
-1

>  <i_epik_Tot_abs_Q>  (1) 
1

>  <i_i_glide_confnum>  (1) 
2

>  <i_i_glide_lignum>  (1) 
45

>  <i_i_glide_posenum>  (1) 
133

>  <i_i_glide_rotatable_bonds>  (1) 
1

>  <i_lp_mmshare_version>  (1) 
72125

>  <i_m_source_file_index>  (1) 
41

>  <i_f3d_flags>  (1) 
0

>  <num_sample>  (1) 
100

>  <b_lp_Chiralities_Consistent>  (1) 
1

>  <r_epik_Charging_Adjusted_Penalty>  (1) 
1.9393830553820406e-05

>  <r_epik_Ionization_Penalty>  (1) 
1.9393830553820406e-05

>  <r_epik_Ionization_Penalty_Charging>  (1) 
1.9393830553820406e-05

>  <r_epik_Ionization_Penalty_Neutral>  (1) 
0

>  <r_epik_State_Penalty>  (1) 
-0

>  <r_glide_ring_energy>  (1) 
0.00027798022993746121

>  <r_i_docking_score>  (1) 
-4.7082705806925675

>  <r_i_glide_ecoul>  (1) 
0.55375574415337392

>  <r_i_glide_eff_state_penalty>  (1) 
-0

>  <r_i_glide_einternal>  (1) 
0.0024669928746274827

>  <r_i_glide_emodel>  (1) 
-23.118610297330559

>  <r_i_glide_emodel_strain>  (1) 
0

>  <r_i_glide_energy>  (1) 
-16.20208035096886

>  <r_i_glide_erotb>  (1) 
0

>  <r_i_glide_esite>  (1) 
0

>  <r_i_glide_evdw>  (1) 
-16.755836095122234

>  <r_i_glide_gscore>  (1) 
-4.7082705806925675

>  <r_i_glide_gscore_strain>  (1) 
0

>  <r_i_glide_hbond>  (1) 
0

>  <r_i_glide_ligand_efficiency>  (1) 
-0.5231411756325075

>  <r_i_glide_ligand_efficiency_ln>  (1) 
-1.4726117815018431

>  <r_i_glide_ligand_efficiency_sa>  (1) 
-1.088177496605534

>  <r_i_glide_lipo>  (1) 
-0.91268197541846519

>  <r_i_glide_metal>  (1) 
-0

>  <r_i_glide_rewards>  (1) 
-3.040860162140997

>  <r_lp_Energy>  (1) 
18.695968999999998

>  <r_lp_tautomer_probability>  (1) 
1

>  <s_epik_cmdline>  (1) 
J2VwaWtfcHl0aG9uJywgJy1waHQnLCAnMS4wJywgJy1waCcsICc3LjQnLCAnLXRuJywgJzgnLCAnLW1hJywgJzUwMCcsICctaW1hZScsICc8aW5maWxlLm1hZT4nLCAnLW9tYWUnLCAnPG91dGZpbGUubWFlPic=

>  <s_epik_input>  (1) 
TzFbQ0gyXVtDSDJdT1tDSF09QzFDKD1PKVtPSF0=

>  <s_glide_docking_method>  (1) 
confgen

>  <s_i_glide_gridfile>  (1) 
gpcr_drd2_6luq_protein_autoprepared_prepared

>  <s_lp_Force_Field>  (1) 
S-OPLS

>  <s_lp_Variant>  (1) 
Pocket2Mol_40-1

>  <s_m_source_file>  (1) 
generated_generic_title2_ligand_Pocket2Mol_2026-06-23_prepared.sdf

>  <GenAI_Model>  (1) 
Pocket2Mol

>  <Protein>  (1) 
generic_title2

$$$$
Pocket2Mol_16
     RDKit          3D

  0  0  0  0  0  0  0  0  0  0999 V3000
M  V30 BEGIN CTAB
M  V30 COUNTS 19 19 0 0 1
M  V30 BEGIN ATOM
M  V30 1 C 11.892279 8.416665 -9.339118 0
M  V30 2 O 12.182143 7.990227 -8.014212 0
M  V30 3 C 10.973910 7.828576 -7.269881 0
M  V30 4 C 10.947440 6.390563 -6.735308 0
M  V30 5 C 10.975410 8.843382 -6.119479 0
M  V30 6 C 10.498334 7.872699 -9.611616 0
M  V30 7 C 9.831153 8.070421 -8.268240 0
M  V30 8 H 11.890096 9.507339 -9.371335 0
M  V30 9 H 12.635475 8.054842 -10.049665 0
M  V30 10 H 10.040593 6.203102 -6.159073 0
M  V30 11 H 11.797465 6.188506 -6.084603 0
M  V30 12 H 10.975410 5.664593 -7.548492 0
M  V30 13 H 10.028196 8.808057 -5.585026 0
M  V30 14 H 11.775392 8.637713 -5.408055 0
M  V30 15 H 11.113995 9.861353 -6.482470 0
M  V30 16 H 9.984674 8.389057 -10.422984 0
M  V30 17 H 10.546150 6.810725 -9.855154 0
M  V30 18 H 8.977624 7.406229 -8.120643 0
M  V30 19 H 9.455087 9.091185 -8.196778 0
M  V30 END ATOM
M  V30 BEGIN BOND
M  V30 1 1 2 1
M  V30 2 1 3 2
M  V30 3 1 4 3
M  V30 4 1 5 3
M  V30 5 1 6 1
M  V30 6 1 7 3
M  V30 7 1 7 6
M  V30 8 1 8 1
M  V30 9 1 9 1
M  V30 10 1 10 4
M  V30 11 1 11 4
M  V30 12 1 12 4
M  V30 13 1 13 5
M  V30 14 1 14 5
M  V30 15 1 15 5
M  V30 16 1 16 6
M  V30 17 1 17 6
M  V30 18 1 18 7
M  V30 19 1 19 7
M  V30 END BOND
M  V30 END CTAB
M  END
>  <i_epik_Tot_Q>  (1) 
0

>  <i_epik_Tot_abs_Q>  (1) 
0

>  <i_i_glide_confnum>  (1) 
3

>  <i_i_glide_lignum>  (1) 
19

>  <i_i_glide_posenum>  (1) 
282

>  <i_i_glide_rotatable_bonds>  (1) 
0

>  <i_lp_mmshare_version>  (1) 
72125

>  <i_m_source_file_index>  (1) 
17

>  <i_f3d_flags>  (1) 
0

>  <num_sample>  (1) 
100

>  <b_lp_Chiralities_Consistent>  (1) 
1

>  <r_epik_Charging_Adjusted_Penalty>  (1) 
0

>  <r_epik_Ionization_Penalty>  (1) 
1.3889264151150229e-11

>  <r_epik_Ionization_Penalty_Charging>  (1) 
0

>  <r_epik_Ionization_Penalty_Neutral>  (1) 
1.3889264151150229e-11

>  <r_epik_State_Penalty>  (1) 
-0

>  <r_glide_ring_energy>  (1) 
0.26153915213888035

>  <r_i_docking_score>  (1) 
-4.704828577244113

>  <r_i_glide_ecoul>  (1) 
-0.50429620178524615

>  <r_i_glide_eff_state_penalty>  (1) 
-0

>  <r_i_glide_einternal>  (1) 
0

>  <r_i_glide_emodel>  (1) 
-22.072354240366767

>  <r_i_glide_emodel_strain>  (1) 
1.119690651307792e-08

>  <r_i_glide_energy>  (1) 
-17.11927984916737

>  <r_i_glide_erotb>  (1) 
0

>  <r_i_glide_esite>  (1) 
0

>  <r_i_glide_evdw>  (1) 
-16.614983647382125

>  <r_i_glide_gscore>  (1) 
-4.704828577244113

>  <r_i_glide_gscore_strain>  (1) 
0

>  <r_i_glide_hbond>  (1) 
0

>  <r_i_glide_ligand_efficiency>  (1) 
-0.67211836817773041

>  <r_i_glide_ligand_efficiency_ln>  (1) 
-1.5970713087610104

>  <r_i_glide_ligand_efficiency_sa>  (1) 
-1.2857161850012739

>  <r_i_glide_lipo>  (1) 
-1.0122267635944793

>  <r_i_glide_metal>  (1) 
-0

>  <r_i_glide_rewards>  (1) 
-2.7862082010127405

>  <r_lp_Energy>  (1) 
0.043719999999999995

>  <r_lp_tautomer_probability>  (1) 
1

>  <s_epik_cmdline>  (1) 
J2VwaWtfcHl0aG9uJywgJy1waHQnLCAnMS4wJywgJy1waCcsICc3LjQnLCAnLXRuJywgJzgnLCAnLW1hJywgJzUwMCcsICctaW1hZScsICc8aW5maWxlLm1hZT4nLCAnLW9tYWUnLCAnPG91dGZpbGUubWFlPic=

>  <s_epik_input>  (1) 
W0NIMl0xW0NIMl1bQ0gyXU9DMShbQ0gzXSlbQ0gzXQ==

>  <s_glide_docking_method>  (1) 
confgen

>  <s_i_glide_gridfile>  (1) 
gpcr_drd2_6luq_protein_autoprepared_prepared

>  <s_lp_Force_Field>  (1) 
S-OPLS

>  <s_lp_Variant>  (1) 
Pocket2Mol_16-1

>  <s_m_source_file>  (1) 
generated_generic_title2_ligand_Pocket2Mol_2026-06-23_prepared.sdf

>  <GenAI_Model>  (1) 
Pocket2Mol

>  <Protein>  (1) 
generic_title2

$$$$
Pocket2Mol_10
     RDKit          3D

  0  0  0  0  0  0  0  0  0  0999 V3000
M  V30 BEGIN CTAB
M  V30 COUNTS 12 12 0 0 1
M  V30 BEGIN ATOM
M  V30 1 O 12.457208 9.433955 -3.180243 0
M  V30 2 C 11.969498 8.773310 -4.265336 0
M  V30 3 C 12.575352 8.502484 -2.198946 0
M  V30 4 C 11.775413 7.442550 -3.996313 0
M  V30 5 C 11.248818 6.390228 -4.929545 0
M  V30 6 C 12.176556 7.276775 -2.641282 0
M  V30 7 H 11.816026 9.386810 -5.141090 0
M  V30 8 H 12.954292 8.873357 -1.257596 0
M  V30 9 H 10.774690 5.591527 -4.361998 0
M  V30 10 H 10.504158 6.815603 -5.603204 0
M  V30 11 H 12.054960 5.962502 -5.526096 0
M  V30 12 H 12.170817 6.366016 -2.059752 0
M  V30 END ATOM
M  V30 BEGIN BOND
M  V30 1 1 2 1
M  V30 2 1 3 1
M  V30 3 2 4 2
M  V30 4 1 5 4
M  V30 5 2 6 3
M  V30 6 1 6 4
M  V30 7 1 7 2
M  V30 8 1 8 3
M  V30 9 1 9 5
M  V30 10 1 10 5
M  V30 11 1 11 5
M  V30 12 1 12 6
M  V30 END BOND
M  V30 END CTAB
M  END
>  <i_epik_Tot_Q>  (1) 
0

>  <i_epik_Tot_abs_Q>  (1) 
0

>  <i_i_glide_confnum>  (1) 
1

>  <i_i_glide_lignum>  (1) 
13

>  <i_i_glide_posenum>  (1) 
29

>  <i_i_glide_rotatable_bonds>  (1) 
0

>  <i_lp_mmshare_version>  (1) 
72125

>  <i_m_source_file_index>  (1) 
11

>  <i_f3d_flags>  (1) 
0

>  <num_sample>  (1) 
100

>  <b_lp_Chiralities_Consistent>  (1) 
1

>  <r_epik_Charging_Adjusted_Penalty>  (1) 
0

>  <r_epik_Ionization_Penalty>  (1) 
0

>  <r_epik_Ionization_Penalty_Charging>  (1) 
0

>  <r_epik_Ionization_Penalty_Neutral>  (1) 
0

>  <r_epik_State_Penalty>  (1) 
-0

>  <r_glide_ring_energy>  (1) 
0

>  <r_i_docking_score>  (1) 
-4.7018447600810092

>  <r_i_glide_ecoul>  (1) 
-1.0643570328843777

>  <r_i_glide_eff_state_penalty>  (1) 
-0

>  <r_i_glide_einternal>  (1) 
0

>  <r_i_glide_emodel>  (1) 
-18.995683553041054

>  <r_i_glide_emodel_strain>  (1) 
0

>  <r_i_glide_energy>  (1) 
-14.621238801711504

>  <r_i_glide_erotb>  (1) 
0

>  <r_i_glide_esite>  (1) 
0

>  <r_i_glide_evdw>  (1) 
-13.556881768827127

>  <r_i_glide_gscore>  (1) 
-4.7018447600810092

>  <r_i_glide_gscore_strain>  (1) 
0

>  <r_i_glide_hbond>  (1) 
0

>  <r_i_glide_ligand_efficiency>  (1) 
-0.7836407933468349

>  <r_i_glide_ligand_efficiency_ln>  (1) 
-1.684186912198818

>  <r_i_glide_ligand_efficiency_sa>  (1) 
-1.4239698229738489

>  <r_i_glide_lipo>  (1) 
-1.4149067360929488

>  <r_i_glide_metal>  (1) 
-0

>  <r_i_glide_rewards>  (1) 
-2.4494403806140479

>  <r_lp_Energy>  (1) 
-1.206345

>  <r_lp_tautomer_probability>  (1) 
1

>  <s_epik_cmdline>  (1) 
J2VwaWtfcHl0aG9uJywgJy1waHQnLCAnMS4wJywgJy1waCcsICc3LjQnLCAnLXRuJywgJzgnLCAnLW1hJywgJzUwMCcsICctaW1hZScsICc8aW5maWxlLm1hZT4nLCAnLW9tYWUnLCAnPG91dGZpbGUubWFlPic=

>  <s_epik_input>  (1) 
W2NIXTFbY0hdb1tjSF1jMVtDSDNd

>  <s_glide_docking_method>  (1) 
confgen

>  <s_i_glide_gridfile>  (1) 
gpcr_drd2_6luq_protein_autoprepared_prepared

>  <s_lp_Force_Field>  (1) 
S-OPLS

>  <s_lp_Variant>  (1) 
Pocket2Mol_10-1

>  <s_m_source_file>  (1) 
generated_generic_title2_ligand_Pocket2Mol_2026-06-23_prepared.sdf

>  <GenAI_Model>  (1) 
Pocket2Mol

>  <Protein>  (1) 
generic_title2

$$$$
Pocket2Mol_40
     RDKit          3D

  0  0  0  0  0  0  0  0  0  0999 V3000
M  V30 BEGIN CTAB
M  V30 COUNTS 14 14 0 0 1
M  V30 BEGIN ATOM
M  V30 1 C 9.725706 6.588870 -8.091004 0
M  V30 2 O 10.309698 6.099008 -6.894525 0
M  V30 3 C 10.797802 7.063544 -6.044533 0
M  V30 4 C 10.640712 7.658597 -8.684942 0
M  V30 5 O 10.803695 8.704864 -7.743526 0
M  V30 6 C 11.035355 8.339796 -6.435545 0
M  V30 7 C 11.581553 9.438346 -5.473190 0
M  V30 8 O 11.775054 10.560783 -5.985025 0 CHG=-1
M  V30 9 O 11.775971 9.087765 -4.286797 0
M  V30 10 H 8.745744 7.005924 -7.856354 0
M  V30 11 H 9.570244 5.771648 -8.797401 0
M  V30 12 H 10.955976 6.687870 -5.042915 0
M  V30 13 H 10.211130 8.079840 -9.594008 0
M  V30 14 H 11.619787 7.249643 -8.940750 0
M  V30 END ATOM
M  V30 BEGIN BOND
M  V30 1 1 2 1
M  V30 2 1 3 2
M  V30 3 1 4 1
M  V30 4 1 5 4
M  V30 5 2 6 3
M  V30 6 1 6 5
M  V30 7 1 7 6
M  V30 8 1 8 7
M  V30 9 2 9 7
M  V30 10 1 10 1
M  V30 11 1 11 1
M  V30 12 1 12 3
M  V30 13 1 13 4
M  V30 14 1 14 4
M  V30 END BOND
M  V30 END CTAB
M  END
>  <i_epik_Tot_Q>  (1) 
-1

>  <i_epik_Tot_abs_Q>  (1) 
1

>  <i_i_glide_confnum>  (1) 
2

>  <i_i_glide_lignum>  (1) 
45

>  <i_i_glide_posenum>  (1) 
77

>  <i_i_glide_rotatable_bonds>  (1) 
1

>  <i_lp_mmshare_version>  (1) 
72125

>  <i_m_source_file_index>  (1) 
41

>  <i_f3d_flags>  (1) 
0

>  <num_sample>  (1) 
100

>  <b_lp_Chiralities_Consistent>  (1) 
1

>  <r_epik_Charging_Adjusted_Penalty>  (1) 
1.9393830553820406e-05

>  <r_epik_Ionization_Penalty>  (1) 
1.9393830553820406e-05

>  <r_epik_Ionization_Penalty_Charging>  (1) 
1.9393830553820406e-05

>  <r_epik_Ionization_Penalty_Neutral>  (1) 
0

>  <r_epik_State_Penalty>  (1) 
-0

>  <r_glide_ring_energy>  (1) 
0.00027798022993746121

>  <r_i_docking_score>  (1) 
-4.6994477583817469

>  <r_i_glide_ecoul>  (1) 
-1.0314843495910724

>  <r_i_glide_eff_state_penalty>  (1) 
-0

>  <r_i_glide_einternal>  (1) 
0.0013434693433682643

>  <r_i_glide_emodel>  (1) 
-23.9818536884747

>  <r_i_glide_emodel_strain>  (1) 
0

>  <r_i_glide_energy>  (1) 
-17.077725168549506

>  <r_i_glide_erotb>  (1) 
0

>  <r_i_glide_esite>  (1) 
0

>  <r_i_glide_evdw>  (1) 
-16.046240818958434

>  <r_i_glide_gscore>  (1) 
-4.6994477583817469

>  <r_i_glide_gscore_strain>  (1) 
0

>  <r_i_glide_hbond>  (1) 
0

>  <r_i_glide_ligand_efficiency>  (1) 
-0.5221608620424163

>  <r_i_glide_ligand_efficiency_ln>  (1) 
-1.4698522561393266

>  <r_i_glide_ligand_efficiency_sa>  (1) 
-1.0861383621652674

>  <r_i_glide_lipo>  (1) 
-0.5318692556979856

>  <r_i_glide_metal>  (1) 
-0

>  <r_i_glide_rewards>  (1) 
-3.210543809297179

>  <r_lp_Energy>  (1) 
18.695968999999998

>  <r_lp_tautomer_probability>  (1) 
1

>  <s_epik_cmdline>  (1) 
J2VwaWtfcHl0aG9uJywgJy1waHQnLCAnMS4wJywgJy1waCcsICc3LjQnLCAnLXRuJywgJzgnLCAnLW1hJywgJzUwMCcsICctaW1hZScsICc8aW5maWxlLm1hZT4nLCAnLW9tYWUnLCAnPG91dGZpbGUubWFlPic=

>  <s_epik_input>  (1) 
TzFbQ0gyXVtDSDJdT1tDSF09QzFDKD1PKVtPSF0=

>  <s_glide_docking_method>  (1) 
confgen

>  <s_i_glide_gridfile>  (1) 
gpcr_drd2_6luq_protein_autoprepared_prepared

>  <s_lp_Force_Field>  (1) 
S-OPLS

>  <s_lp_Variant>  (1) 
Pocket2Mol_40-1

>  <s_m_source_file>  (1) 
generated_generic_title2_ligand_Pocket2Mol_2026-06-23_prepared.sdf

>  <GenAI_Model>  (1) 
Pocket2Mol

>  <Protein>  (1) 
generic_title2

$$$$
Pocket2Mol_16
     RDKit          3D

  0  0  0  0  0  0  0  0  0  0999 V3000
M  V30 BEGIN CTAB
M  V30 COUNTS 19 19 0 0 1
M  V30 BEGIN ATOM
M  V30 1 C 9.375688 8.347866 -7.651689 0
M  V30 2 O 9.812013 8.790227 -6.374172 0
M  V30 3 C 11.101694 8.269446 -6.098152 0
M  V30 4 C 11.757311 9.197119 -5.060457 0
M  V30 5 C 10.974043 6.825488 -5.566814 0
M  V30 6 C 10.643921 8.027244 -8.445675 0
M  V30 7 C 11.771700 8.336002 -7.475749 0
M  V30 8 H 8.754260 7.458531 -7.539819 0
M  V30 9 H 8.775386 9.124402 -8.126379 0
M  V30 10 H 12.756758 8.863835 -4.785021 0
M  V30 11 H 11.166473 9.237138 -4.145775 0
M  V30 12 H 11.836238 10.217633 -5.436709 0
M  V30 13 H 11.945193 6.390227 -5.335037 0
M  V30 14 H 10.376005 6.790267 -4.656937 0
M  V30 15 H 10.491839 6.165638 -6.288160 0
M  V30 16 H 10.652438 6.973676 -8.727781 0
M  V30 17 H 10.719278 8.619118 -9.358399 0
M  V30 18 H 12.137032 9.344531 -7.666977 0
M  V30 19 H 12.613930 7.652999 -7.585025 0
M  V30 END ATOM
M  V30 BEGIN BOND
M  V30 1 1 2 1
M  V30 2 1 3 2
M  V30 3 1 4 3
M  V30 4 1 5 3
M  V30 5 1 6 1
M  V30 6 1 7 3
M  V30 7 1 7 6
M  V30 8 1 8 1
M  V30 9 1 9 1
M  V30 10 1 10 4
M  V30 11 1 11 4
M  V30 12 1 12 4
M  V30 13 1 13 5
M  V30 14 1 14 5
M  V30 15 1 15 5
M  V30 16 1 16 6
M  V30 17 1 17 6
M  V30 18 1 18 7
M  V30 19 1 19 7
M  V30 END BOND
M  V30 END CTAB
M  END
>  <i_epik_Tot_Q>  (1) 
0

>  <i_epik_Tot_abs_Q>  (1) 
0

>  <i_i_glide_confnum>  (1) 
4

>  <i_i_glide_lignum>  (1) 
19

>  <i_i_glide_posenum>  (1) 
352

>  <i_i_glide_rotatable_bonds>  (1) 
0

>  <i_lp_mmshare_version>  (1) 
72125

>  <i_m_source_file_index>  (1) 
17

>  <i_f3d_flags>  (1) 
0

>  <num_sample>  (1) 
100

>  <b_lp_Chiralities_Consistent>  (1) 
1

>  <r_epik_Charging_Adjusted_Penalty>  (1) 
0

>  <r_epik_Ionization_Penalty>  (1) 
1.3889264151150229e-11

>  <r_epik_Ionization_Penalty_Charging>  (1) 
0

>  <r_epik_Ionization_Penalty_Neutral>  (1) 
1.3889264151150229e-11

>  <r_epik_State_Penalty>  (1) 
-0

>  <r_glide_ring_energy>  (1) 
0.26153960478789529

>  <r_i_docking_score>  (1) 
-4.699021102755518

>  <r_i_glide_ecoul>  (1) 
-0.56008741236787063

>  <r_i_glide_eff_state_penalty>  (1) 
-0

>  <r_i_glide_einternal>  (1) 
0

>  <r_i_glide_emodel>  (1) 
-20.744759946859187

>  <r_i_glide_emodel_strain>  (1) 
0.715710932870401

>  <r_i_glide_energy>  (1) 
-16.513510377714514

>  <r_i_glide_erotb>  (1) 
0

>  <r_i_glide_esite>  (1) 
0

>  <r_i_glide_evdw>  (1) 
-15.953422965346645

>  <r_i_glide_gscore>  (1) 
-4.699021102755518

>  <r_i_glide_gscore_strain>  (1) 
0

>  <r_i_glide_hbond>  (1) 
0

>  <r_i_glide_ligand_efficiency>  (1) 
-0.67128872896507397

>  <r_i_glide_ligand_efficiency_ln>  (1) 
-1.5950999402552679

>  <r_i_glide_ligand_efficiency_sa>  (1) 
-1.2841291422809329

>  <r_i_glide_lipo>  (1) 
-1.1665125346123506

>  <r_i_glide_metal>  (1) 
-0

>  <r_i_glide_rewards>  (1) 
-2.6508243080206544

>  <r_lp_Energy>  (1) 
0.043719999999999995

>  <r_lp_tautomer_probability>  (1) 
1

>  <s_epik_cmdline>  (1) 
J2VwaWtfcHl0aG9uJywgJy1waHQnLCAnMS4wJywgJy1waCcsICc3LjQnLCAnLXRuJywgJzgnLCAnLW1hJywgJzUwMCcsICctaW1hZScsICc8aW5maWxlLm1hZT4nLCAnLW9tYWUnLCAnPG91dGZpbGUubWFlPic=

>  <s_epik_input>  (1) 
W0NIMl0xW0NIMl1bQ0gyXU9DMShbQ0gzXSlbQ0gzXQ==

>  <s_glide_docking_method>  (1) 
confgen

>  <s_i_glide_gridfile>  (1) 
gpcr_drd2_6luq_protein_autoprepared_prepared

>  <s_lp_Force_Field>  (1) 
S-OPLS

>  <s_lp_Variant>  (1) 
Pocket2Mol_16-1

>  <s_m_source_file>  (1) 
generated_generic_title2_ligand_Pocket2Mol_2026-06-23_prepared.sdf

>  <GenAI_Model>  (1) 
Pocket2Mol

>  <Protein>  (1) 
generic_title2

$$$$
Pocket2Mol_13
     RDKit          3D

  0  0  0  0  0  0  0  0  0  0999 V3000
M  V30 BEGIN CTAB
M  V30 COUNTS 15 15 0 0 1
M  V30 BEGIN ATOM
M  V30 1 N 10.593985 7.039610 -5.903809 0
M  V30 2 C 11.375410 7.206085 -4.785025 0
M  V30 3 C 11.775388 8.537917 -4.745263 0
M  V30 4 C 10.495718 8.209783 -6.563725 0
M  V30 5 C 12.635879 9.190227 -3.699411 0
M  V30 6 N 9.775409 8.390219 -7.732563 0
M  V30 7 C 11.196751 9.168678 -5.910082 0
M  V30 8 H 11.574753 6.378518 -4.119081 0
M  V30 9 H 13.013146 8.450429 -2.993287 0
M  V30 10 H 13.485542 9.686789 -4.166981 0
M  V30 11 H 12.059362 9.929759 -3.142994 0
M  V30 12 H 9.700288 9.282188 -8.197311 0
M  V30 13 H 10.157428 6.173237 -6.185994 0
M  V30 14 H 11.289881 10.200932 -6.213786 0
M  V30 15 H 9.227251 7.654133 -8.163670 0
M  V30 END ATOM
M  V30 BEGIN BOND
M  V30 1 1 2 1
M  V30 2 2 3 2
M  V30 3 1 4 1
M  V30 4 1 5 3
M  V30 5 1 6 4
M  V30 6 1 7 3
M  V30 7 2 7 4
M  V30 8 1 8 2
M  V30 9 1 9 5
M  V30 10 1 10 5
M  V30 11 1 11 5
M  V30 12 1 12 6
M  V30 13 1 13 1
M  V30 14 1 14 7
M  V30 15 1 15 6
M  V30 END BOND
M  V30 END CTAB
M  END
>  <i_epik_Tot_Q>  (1) 
0

>  <i_epik_Tot_abs_Q>  (1) 
0

>  <i_i_glide_confnum>  (1) 
1

>  <i_i_glide_lignum>  (1) 
16

>  <i_i_glide_posenum>  (1) 
324

>  <i_i_glide_rotatable_bonds>  (1) 
0

>  <i_lp_mmshare_version>  (1) 
72125

>  <i_m_source_file_index>  (1) 
14

>  <i_f3d_flags>  (1) 
0

>  <num_sample>  (1) 
100

>  <b_lp_Chiralities_Consistent>  (1) 
1

>  <r_epik_Charging_Adjusted_Penalty>  (1) 
0

>  <r_epik_Ionization_Penalty>  (1) 
0.00031849139131666116

>  <r_epik_Ionization_Penalty_Charging>  (1) 
0

>  <r_epik_Ionization_Penalty_Neutral>  (1) 
0.00031849139131666116

>  <r_epik_State_Penalty>  (1) 
-0

>  <r_glide_ring_energy>  (1) 
0

>  <r_i_docking_score>  (1) 
-4.6965538164167722

>  <r_i_glide_ecoul>  (1) 
-1.6767099162882502

>  <r_i_glide_eff_state_penalty>  (1) 
-0

>  <r_i_glide_einternal>  (1) 
0

>  <r_i_glide_emodel>  (1) 
-23.510892668958068

>  <r_i_glide_emodel_strain>  (1) 
0.0025914419815187273

>  <r_i_glide_energy>  (1) 
-17.5336743916553

>  <r_i_glide_erotb>  (1) 
0

>  <r_i_glide_esite>  (1) 
-0.043309473713005045

>  <r_i_glide_evdw>  (1) 
-15.856964475367048

>  <r_i_glide_gscore>  (1) 
-4.6965538164167722

>  <r_i_glide_gscore_strain>  (1) 
0

>  <r_i_glide_hbond>  (1) 
0

>  <r_i_glide_ligand_efficiency>  (1) 
-0.67093625948811031

>  <r_i_glide_ligand_efficiency_ln>  (1) 
-1.5942624108623444

>  <r_i_glide_ligand_efficiency_sa>  (1) 
-1.2834548924274736

>  <r_i_glide_lipo>  (1) 
-1.2684131064571167

>  <r_i_glide_metal>  (1) 
-0

>  <r_i_glide_rewards>  (1) 
-2.3404765250350605

>  <r_lp_Energy>  (1) 
-3.18065

>  <r_lp_tautomer_probability>  (1) 
1

>  <s_epik_cmdline>  (1) 
J2VwaWtfcHl0aG9uJywgJy1waHQnLCAnMS4wJywgJy1waCcsICc3LjQnLCAnLXRuJywgJzgnLCAnLW1hJywgJzUwMCcsICctaW1hZScsICc8aW5maWxlLm1hZT4nLCAnLW9tYWUnLCAnPG91dGZpbGUubWFlPic=

>  <s_epik_input>  (1) 
W05IMl1DKFtDSDJdMSk9TltDSF09QzFbQ0gzXQ==

>  <s_glide_docking_method>  (1) 
confgen

>  <s_i_glide_gridfile>  (1) 
gpcr_drd2_6luq_protein_autoprepared_prepared

>  <s_lp_Force_Field>  (1) 
S-OPLS

>  <s_lp_Variant>  (1) 
Pocket2Mol_13-1

>  <s_m_source_file>  (1) 
generated_generic_title2_ligand_Pocket2Mol_2026-06-23_prepared.sdf

>  <GenAI_Model>  (1) 
Pocket2Mol

>  <Protein>  (1) 
generic_title2

$$$$
Pocket2Mol_13
     RDKit          3D

  0  0  0  0  0  0  0  0  0  0999 V3000
M  V30 BEGIN CTAB
M  V30 COUNTS 15 15 0 0 1
M  V30 BEGIN ATOM
M  V30 1 N 10.815094 6.457652 -5.902016 0
M  V30 2 C 11.375277 7.421678 -5.097947 0
M  V30 3 C 10.975414 8.659888 -5.586269 0
M  V30 4 C 10.078918 7.045652 -6.865109 0
M  V30 5 C 11.345225 10.010480 -5.035108 0
M  V30 6 N 9.375630 6.362274 -7.841909 0
M  V30 7 C 10.132392 8.390605 -6.728927 0
M  V30 8 H 12.002626 7.151024 -4.261167 0
M  V30 9 H 12.287711 9.955096 -4.489846 0
M  V30 10 H 11.460868 10.731464 -5.844636 0
M  V30 11 H 10.575523 10.377427 -4.356367 0
M  V30 12 H 8.781521 6.834580 -8.518446 0
M  V30 13 H 10.930248 5.460295 -5.783904 0
M  V30 14 H 9.634019 9.108467 -7.363384 0
M  V30 15 H 9.342310 5.355927 -7.896240 0
M  V30 END ATOM
M  V30 BEGIN BOND
M  V30 1 1 2 1
M  V30 2 2 3 2
M  V30 3 1 4 1
M  V30 4 1 5 3
M  V30 5 1 6 4
M  V30 6 1 7 3
M  V30 7 2 7 4
M  V30 8 1 8 2
M  V30 9 1 9 5
M  V30 10 1 10 5
M  V30 11 1 11 5
M  V30 12 1 12 6
M  V30 13 1 13 1
M  V30 14 1 14 7
M  V30 15 1 15 6
M  V30 END BOND
M  V30 END CTAB
M  END
>  <i_epik_Tot_Q>  (1) 
0

>  <i_epik_Tot_abs_Q>  (1) 
0

>  <i_i_glide_confnum>  (1) 
1

>  <i_i_glide_lignum>  (1) 
16

>  <i_i_glide_posenum>  (1) 
374

>  <i_i_glide_rotatable_bonds>  (1) 
0

>  <i_lp_mmshare_version>  (1) 
72125

>  <i_m_source_file_index>  (1) 
14

>  <i_f3d_flags>  (1) 
0

>  <num_sample>  (1) 
100

>  <b_lp_Chiralities_Consistent>  (1) 
1

>  <r_epik_Charging_Adjusted_Penalty>  (1) 
0

>  <r_epik_Ionization_Penalty>  (1) 
0.00031849139131666116

>  <r_epik_Ionization_Penalty_Charging>  (1) 
0

>  <r_epik_Ionization_Penalty_Neutral>  (1) 
0.00031849139131666116

>  <r_epik_State_Penalty>  (1) 
-0

>  <r_glide_ring_energy>  (1) 
0

>  <r_i_docking_score>  (1) 
-4.6838832260207912

>  <r_i_glide_ecoul>  (1) 
-1.617929517270321

>  <r_i_glide_eff_state_penalty>  (1) 
-0

>  <r_i_glide_einternal>  (1) 
0

>  <r_i_glide_emodel>  (1) 
-23.238138905479346

>  <r_i_glide_emodel_strain>  (1) 
0.00017046661037412036

>  <r_i_glide_energy>  (1) 
-17.274632273139538

>  <r_i_glide_erotb>  (1) 
0

>  <r_i_glide_esite>  (1) 
-0.071074986966328343

>  <r_i_glide_evdw>  (1) 
-15.656702755869215

>  <r_i_glide_gscore>  (1) 
-4.6838832260207912

>  <r_i_glide_gscore_strain>  (1) 
0

>  <r_i_glide_hbond>  (1) 
-0.064682715485802372

>  <r_i_glide_ligand_efficiency>  (1) 
-0.66912617514582728

>  <r_i_glide_ligand_efficiency_ln>  (1) 
-1.5899613325011988

>  <r_i_glide_ligand_efficiency_sa>  (1) 
-1.2799923256456722

>  <r_i_glide_lipo>  (1) 
-1.1142676248513181

>  <r_i_glide_metal>  (1) 
-0

>  <r_i_glide_rewards>  (1) 
-2.4083333333333332

>  <r_lp_Energy>  (1) 
-3.18065

>  <r_lp_tautomer_probability>  (1) 
1

>  <s_epik_cmdline>  (1) 
J2VwaWtfcHl0aG9uJywgJy1waHQnLCAnMS4wJywgJy1waCcsICc3LjQnLCAnLXRuJywgJzgnLCAnLW1hJywgJzUwMCcsICctaW1hZScsICc8aW5maWxlLm1hZT4nLCAnLW9tYWUnLCAnPG91dGZpbGUubWFlPic=

>  <s_epik_input>  (1) 
W05IMl1DKFtDSDJdMSk9TltDSF09QzFbQ0gzXQ==

>  <s_glide_docking_method>  (1) 
confgen

>  <s_i_glide_gridfile>  (1) 
gpcr_drd2_6luq_protein_autoprepared_prepared

>  <s_lp_Force_Field>  (1) 
S-OPLS

>  <s_lp_Variant>  (1) 
Pocket2Mol_13-1

>  <s_m_source_file>  (1) 
generated_generic_title2_ligand_Pocket2Mol_2026-06-23_prepared.sdf

>  <GenAI_Model>  (1) 
Pocket2Mol

>  <Protein>  (1) 
generic_title2

$$$$
Pocket2Mol_97
     RDKit          3D

  0  0  0  0  0  0  0  0  0  0999 V3000
M  V30 BEGIN CTAB
M  V30 COUNTS 24 25 0 0 1
M  V30 BEGIN ATOM
M  V30 1 C 12.181223 9.540188 -6.573309 0
M  V30 2 O 10.878344 9.212083 -6.135374 0
M  V30 3 C 12.597426 8.733117 -7.815004 0
M  V30 4 O 11.525366 8.702664 -8.734189 0
M  V30 5 C 10.640806 7.824095 -6.061486 0
M  V30 6 C 10.637377 7.650709 -8.633466 0
M  V30 7 C 10.175410 7.024154 -9.813272 0
M  V30 8 C 10.171771 7.186232 -7.363667 0
M  V30 9 C 10.657690 7.501112 -11.166378 0
M  V30 10 C 9.266427 5.951336 -9.734011 0
M  V30 11 C 8.810440 5.503237 -8.483346 0
M  V30 12 F 7.931283 4.479481 -8.411445 0
M  V30 13 C 9.261808 6.117074 -7.306795 0
M  V30 14 H 12.896609 9.390855 -5.764562 0
M  V30 15 H 12.168199 10.606649 -6.785005 0
M  V30 16 H 12.911337 7.715163 -7.585025 0
M  V30 17 H 13.463206 9.190212 -8.292096 0
M  V30 18 H 9.845118 7.688045 -5.330044 0
M  V30 19 H 11.500515 7.284445 -5.661478 0
M  V30 20 H 11.722482 7.731680 -11.136605 0
M  V30 21 H 10.503033 6.738101 -11.929860 0
M  V30 22 H 10.104666 8.390137 -11.463535 0
M  V30 23 H 8.912733 5.474648 -10.636007 0
M  V30 24 H 8.903429 5.768823 -6.352526 0
M  V30 END ATOM
M  V30 BEGIN BOND
M  V30 1 1 2 1
M  V30 2 1 3 1
M  V30 3 1 4 3
M  V30 4 1 5 2
M  V30 5 1 6 4
M  V30 6 2 7 6
M  V30 7 1 8 5
M  V30 8 1 8 6
M  V30 9 1 9 7
M  V30 10 1 10 7
M  V30 11 2 11 10
M  V30 12 1 12 11
M  V30 13 2 13 8
M  V30 14 1 13 11
M  V30 15 1 14 1
M  V30 16 1 15 1
M  V30 17 1 16 3
M  V30 18 1 17 3
M  V30 19 1 18 5
M  V30 20 1 19 5
M  V30 21 1 20 9
M  V30 22 1 21 9
M  V30 23 1 22 9
M  V30 24 1 23 10
M  V30 25 1 24 13
M  V30 END BOND
M  V30 END CTAB
M  END
>  <i_epik_Tot_Q>  (1) 
0

>  <i_epik_Tot_abs_Q>  (1) 
0

>  <i_i_glide_confnum>  (1) 
2

>  <i_i_glide_lignum>  (1) 
106

>  <i_i_glide_posenum>  (1) 
81

>  <i_i_glide_rotatable_bonds>  (1) 
0

>  <i_lp_mmshare_version>  (1) 
72125

>  <i_m_source_file_index>  (1) 
98

>  <i_f3d_flags>  (1) 
0

>  <num_sample>  (1) 
100

>  <b_lp_Chiralities_Consistent>  (1) 
1

>  <r_epik_Charging_Adjusted_Penalty>  (1) 
0

>  <r_epik_Ionization_Penalty>  (1) 
1.3261073421285308e-13

>  <r_epik_Ionization_Penalty_Charging>  (1) 
0

>  <r_epik_Ionization_Penalty_Neutral>  (1) 
1.3261073421285308e-13

>  <r_epik_State_Penalty>  (1) 
-0

>  <r_glide_ring_energy>  (1) 
1.7623001670689571

>  <r_i_docking_score>  (1) 
-4.6770537821710558

>  <r_i_glide_ecoul>  (1) 
0.16167191293481009

>  <r_i_glide_eff_state_penalty>  (1) 
-0

>  <r_i_glide_einternal>  (1) 
0

>  <r_i_glide_emodel>  (1) 
-24.339516009465424

>  <r_i_glide_emodel_strain>  (1) 
0.0059389454764087191

>  <r_i_glide_energy>  (1) 
-18.260844748119059

>  <r_i_glide_erotb>  (1) 
0

>  <r_i_glide_esite>  (1) 
-0.036379051448338008

>  <r_i_glide_evdw>  (1) 
-18.422516661053869

>  <r_i_glide_gscore>  (1) 
-4.6770537821710558

>  <r_i_glide_gscore_strain>  (1) 
0

>  <r_i_glide_hbond>  (1) 
0

>  <r_i_glide_ligand_efficiency>  (1) 
-0.35977336785931197

>  <r_i_glide_ligand_efficiency_ln>  (1) 
-1.3119551817424431

>  <r_i_glide_ligand_efficiency_sa>  (1) 
-0.84594759956572074

>  <r_i_glide_lipo>  (1) 
-0.74097433074661023

>  <r_i_glide_metal>  (1) 
-0

>  <r_i_glide_rewards>  (1) 
-3.0028253538636354

>  <r_lp_Energy>  (1) 
15.481259999999999

>  <r_lp_tautomer_probability>  (1) 
1

>  <s_epik_cmdline>  (1) 
J2VwaWtfcHl0aG9uJywgJy1waHQnLCAnMS4wJywgJy1waCcsICc3LjQnLCAnLXRuJywgJzgnLCAnLW1hJywgJzUwMCcsICctaW1hZScsICc8aW5maWxlLm1hZT4nLCAnLW9tYWUnLCAnPG91dGZpbGUubWFlPic=

>  <s_epik_input>  (1) 
TzFbQ0gyXVtDSDJdT1tDSDJdYyhjMTIpW2NIXWMoRilbY0hdYzJbQ0gzXQ==

>  <s_glide_docking_method>  (1) 
confgen

>  <s_i_glide_gridfile>  (1) 
gpcr_drd2_6luq_protein_autoprepared_prepared

>  <s_lp_Force_Field>  (1) 
S-OPLS

>  <s_lp_Variant>  (1) 
Pocket2Mol_97-1

>  <s_m_source_file>  (1) 
generated_generic_title2_ligand_Pocket2Mol_2026-06-23_prepared.sdf

>  <GenAI_Model>  (1) 
Pocket2Mol

>  <Protein>  (1) 
generic_title2

$$$$
Pocket2Mol_87
     RDKit          3D

  0  0  0  0  0  0  0  0  0  0999 V3000
M  V30 BEGIN CTAB
M  V30 COUNTS 21 22 0 0 1
M  V30 BEGIN ATOM
M  V30 1 C 6.554746 6.599634 -12.180115 0
M  V30 2 O 5.775411 6.791483 -13.347690 0
M  V30 3 C 5.974021 5.433012 -11.395803 0
M  V30 4 O 5.375410 4.512297 -12.287724 0
M  V30 5 C 6.180767 6.255735 -14.512790 0
M  V30 6 C 6.183307 3.993408 -13.268733 0
M  V30 7 C 6.575411 2.643045 -13.185025 0
M  V30 8 O 6.218331 6.898723 -15.561328 0
M  V30 9 C 6.597025 4.788996 -14.388248 0
M  V30 10 C 7.395412 4.185584 -15.407222 0
M  V30 11 C 7.369512 2.068078 -14.191014 0
M  V30 12 O 7.807826 4.907702 -16.493113 0
M  V30 13 C 7.775083 2.833267 -15.297285 0
M  V30 14 H 7.597467 6.408182 -12.440154 0
M  V30 15 H 6.543573 7.511412 -11.585025 0
M  V30 16 H 6.731781 4.953037 -10.775269 0
M  V30 17 H 5.193151 5.794641 -10.726087 0
M  V30 18 H 6.257375 2.043482 -12.345520 0
M  V30 19 H 7.664043 1.031218 -14.116732 0
M  V30 20 H 8.327284 4.409940 -17.105085 0
M  V30 21 H 8.382004 2.380140 -16.067418 0
M  V30 END ATOM
M  V30 BEGIN BOND
M  V30 1 1 2 1
M  V30 2 1 3 1
M  V30 3 1 4 3
M  V30 4 1 5 2
M  V30 5 1 6 4
M  V30 6 2 7 6
M  V30 7 2 8 5
M  V30 8 1 9 5
M  V30 9 1 9 6
M  V30 10 2 10 9
M  V30 11 1 11 7
M  V30 12 1 12 10
M  V30 13 1 13 10
M  V30 14 2 13 11
M  V30 15 1 14 1
M  V30 16 1 15 1
M  V30 17 1 16 3
M  V30 18 1 17 3
M  V30 19 1 18 7
M  V30 20 1 19 11
M  V30 21 1 20 12
M  V30 22 1 21 13
M  V30 END BOND
M  V30 END CTAB
M  END
>  <i_epik_Tot_Q>  (1) 
0

>  <i_epik_Tot_abs_Q>  (1) 
0

>  <i_i_glide_confnum>  (1) 
4

>  <i_i_glide_lignum>  (1) 
94

>  <i_i_glide_posenum>  (1) 
252

>  <i_i_glide_rotatable_bonds>  (1) 
1

>  <i_lp_mmshare_version>  (1) 
72125

>  <i_m_source_file_index>  (1) 
88

>  <i_f3d_flags>  (1) 
0

>  <num_sample>  (1) 
100

>  <b_lp_Chiralities_Consistent>  (1) 
1

>  <r_epik_Charging_Adjusted_Penalty>  (1) 
0.011568550508496497

>  <r_epik_Ionization_Penalty>  (1) 
0.011568550508503217

>  <r_epik_Ionization_Penalty_Charging>  (1) 
0

>  <r_epik_Ionization_Penalty_Neutral>  (1) 
0.011568550508503217

>  <r_epik_State_Penalty>  (1) 
0.011568550508496497

>  <r_glide_ring_energy>  (1) 
1.8863748849943527

>  <r_i_docking_score>  (1) 
-4.671294823976309

>  <r_i_glide_ecoul>  (1) 
-1.9072439031729878

>  <r_i_glide_eff_state_penalty>  (1) 
0.011568550508496497

>  <r_i_glide_einternal>  (1) 
0.016694389456787473

>  <r_i_glide_emodel>  (1) 
-26.641710817455831

>  <r_i_glide_emodel_strain>  (1) 
3.101042977959878e-09

>  <r_i_glide_energy>  (1) 
-20.876918650771977

>  <r_i_glide_erotb>  (1) 
0

>  <r_i_glide_esite>  (1) 
0

>  <r_i_glide_evdw>  (1) 
-18.96967474759899

>  <r_i_glide_gscore>  (1) 
-4.6828633744848052

>  <r_i_glide_gscore_strain>  (1) 
0

>  <r_i_glide_hbond>  (1) 
0

>  <r_i_glide_ligand_efficiency>  (1) 
-0.35933037107510069

>  <r_i_glide_ligand_efficiency_ln>  (1) 
-1.3103397427509484

>  <r_i_glide_ligand_efficiency_sa>  (1) 
-0.84490596586045597

>  <r_i_glide_lipo>  (1) 
-0.85121256730634165

>  <r_i_glide_metal>  (1) 
-0

>  <r_i_glide_rewards>  (1) 
-2.5970804843225652

>  <r_lp_Energy>  (1) 
16.036355

>  <s_epik_Chemistry_Notes>  (1) 
This compound has an ester and may undergo hydrolysis at high or low pH.

>  <s_epik_cmdline>  (1) 
J2VwaWtfcHl0aG9uJywgJy1waHQnLCAnMS4wJywgJy1waCcsICc3LjQnLCAnLXRuJywgJzgnLCAnLW1hJywgJzUwMCcsICctaW1hZScsICc8aW5maWxlLm1hZT4nLCAnLW9tYWUnLCAnPG91dGZpbGUubWFlPic=

>  <s_epik_input>  (1) 
TzFbQ0gyXVtDSDJdT0MoPU8pYyhjMTIpYyhbT0hdKVtjSF1bY0hdW2NIXTI=

>  <s_glide_docking_method>  (1) 
confgen

>  <s_i_glide_gridfile>  (1) 
gpcr_drd2_6luq_protein_autoprepared_prepared

>  <s_lp_Force_Field>  (1) 
S-OPLS

>  <s_lp_Variant>  (1) 
Pocket2Mol_87-1

>  <s_m_source_file>  (1) 
generated_generic_title2_ligand_Pocket2Mol_2026-06-23_prepared.sdf

>  <GenAI_Model>  (1) 
Pocket2Mol

>  <Protein>  (1) 
generic_title2

$$$$
Pocket2Mol_12
     RDKit          3D

  0  0  0  0  0  0  0  0  0  0999 V3000
M  V30 BEGIN CTAB
M  V30 COUNTS 14 14 0 0 1
M  V30 BEGIN ATOM
M  V30 1 O 12.354023 7.907923 -2.257106 0
M  V30 2 C 12.266000 8.790226 -3.266714 0
M  V30 3 C 11.785338 6.690188 -2.874679 0
M  V30 4 C 11.775410 8.353487 -4.385025 0
M  V30 5 C 11.585171 9.190232 -5.634201 0
M  V30 6 C 11.376206 6.936467 -4.406916 0
M  V30 7 H 12.615679 9.784353 -3.030515 0
M  V30 8 H 10.911986 6.382760 -2.298300 0
M  V30 9 H 12.511542 5.881230 -2.790893 0
M  V30 10 H 10.536026 9.190260 -5.931498 0
M  V30 11 H 11.891264 10.223556 -5.466651 0
M  V30 12 H 12.175406 8.789953 -6.458442 0
M  V30 13 H 10.313028 6.790265 -4.600709 0
M  V30 14 H 11.972201 6.351741 -5.107185 0
M  V30 END ATOM
M  V30 BEGIN BOND
M  V30 1 1 2 1
M  V30 2 1 3 1
M  V30 3 2 4 2
M  V30 4 1 5 4
M  V30 5 1 6 3
M  V30 6 1 6 4
M  V30 7 1 7 2
M  V30 8 1 8 3
M  V30 9 1 9 3
M  V30 10 1 10 5
M  V30 11 1 11 5
M  V30 12 1 12 5
M  V30 13 1 13 6
M  V30 14 1 14 6
M  V30 END BOND
M  V30 END CTAB
M  END
>  <i_epik_Tot_Q>  (1) 
0

>  <i_epik_Tot_abs_Q>  (1) 
0

>  <i_i_glide_confnum>  (1) 
1

>  <i_i_glide_lignum>  (1) 
15

>  <i_i_glide_posenum>  (1) 
94

>  <i_i_glide_rotatable_bonds>  (1) 
0

>  <i_lp_mmshare_version>  (1) 
72125

>  <i_m_source_file_index>  (1) 
13

>  <i_f3d_flags>  (1) 
0

>  <num_sample>  (1) 
100

>  <b_lp_Chiralities_Consistent>  (1) 
1

>  <r_epik_Charging_Adjusted_Penalty>  (1) 
0

>  <r_epik_Ionization_Penalty>  (1) 
0

>  <r_epik_Ionization_Penalty_Charging>  (1) 
0

>  <r_epik_Ionization_Penalty_Neutral>  (1) 
0

>  <r_epik_State_Penalty>  (1) 
-0

>  <r_glide_ring_energy>  (1) 
0

>  <r_i_docking_score>  (1) 
-4.6687020018130827

>  <r_i_glide_ecoul>  (1) 
-0.51300156597357294

>  <r_i_glide_eff_state_penalty>  (1) 
-0

>  <r_i_glide_einternal>  (1) 
0

>  <r_i_glide_emodel>  (1) 
-19.727161382835252

>  <r_i_glide_emodel_strain>  (1) 
0

>  <r_i_glide_energy>  (1) 
-15.162079259598766

>  <r_i_glide_erotb>  (1) 
0

>  <r_i_glide_esite>  (1) 
0

>  <r_i_glide_evdw>  (1) 
-14.649077693625193

>  <r_i_glide_gscore>  (1) 
-4.6687020018130827

>  <r_i_glide_gscore_strain>  (1) 
0

>  <r_i_glide_hbond>  (1) 
0

>  <r_i_glide_ligand_efficiency>  (1) 
-0.77811700030218045

>  <r_i_glide_ligand_efficiency_ln>  (1) 
-1.6723152740318341

>  <r_i_glide_ligand_efficiency_sa>  (1) 
-1.4139324248818645

>  <r_i_glide_lipo>  (1) 
-1.3850751043526781

>  <r_i_glide_metal>  (1) 
-0

>  <r_i_glide_rewards>  (1) 
-2.4742227778831083

>  <r_lp_Energy>  (1) 
-7.9393969999999996

>  <r_lp_tautomer_probability>  (1) 
1

>  <s_epik_cmdline>  (1) 
J2VwaWtfcHl0aG9uJywgJy1waHQnLCAnMS4wJywgJy1waCcsICc3LjQnLCAnLXRuJywgJzgnLCAnLW1hJywgJzUwMCcsICctaW1hZScsICc8aW5maWxlLm1hZT4nLCAnLW9tYWUnLCAnPG91dGZpbGUubWFlPic=

>  <s_epik_input>  (1) 
W0NIMl0xW0NIMl1PW0NIXT1DMVtDSDNd

>  <s_glide_docking_method>  (1) 
confgen

>  <s_i_glide_gridfile>  (1) 
gpcr_drd2_6luq_protein_autoprepared_prepared

>  <s_lp_Force_Field>  (1) 
S-OPLS

>  <s_lp_Variant>  (1) 
Pocket2Mol_12-1

>  <s_m_source_file>  (1) 
generated_generic_title2_ligand_Pocket2Mol_2026-06-23_prepared.sdf

>  <GenAI_Model>  (1) 
Pocket2Mol

>  <Protein>  (1) 
generic_title2

$$$$
Pocket2Mol_34
     RDKit          3D

  0  0  0  0  0  0  0  0  0  0999 V3000
M  V30 BEGIN CTAB
M  V30 COUNTS 21 22 0 0 1
M  V30 BEGIN ATOM
M  V30 1 C 10.808578 7.834093 -10.067227 0
M  V30 2 O 9.775410 7.897445 -9.103524 0
M  V30 3 C 10.311548 7.533495 -7.840017 0 CFG=2
M  V30 4 C 10.118178 6.028666 -7.600158 0
M  V30 5 C 9.695317 8.379102 -6.740014 0
M  V30 6 C 12.007205 8.420566 -9.331539 0
M  V30 7 C 10.908249 8.913694 -5.985025 0
M  V30 8 C 11.775417 7.988936 -7.891251 0 CFG=1
M  V30 9 O 11.880622 9.092543 -6.999239 0
M  V30 10 H 10.546896 8.390226 -10.966367 0
M  V30 11 H 10.975409 6.794189 -10.346169 0
M  V30 12 H 10.558758 5.725731 -6.650957 0
M  V30 13 H 9.057598 5.775294 -7.572680 0
M  V30 14 H 10.575410 5.429090 -8.385036 0
M  V30 15 H 9.012175 7.824679 -6.095999 0
M  V30 16 H 9.124178 9.190227 -7.185027 0
M  V30 17 H 11.982082 9.508480 -9.407556 0
M  V30 18 H 12.960931 8.077648 -9.732388 0
M  V30 19 H 11.267560 8.179656 -5.261957 0
M  V30 20 H 10.699474 9.844351 -5.456949 0
M  V30 21 H 12.451251 7.190230 -7.585025 0
M  V30 END ATOM
M  V30 BEGIN BOND
M  V30 1 1 2 1
M  V30 2 1 3 2
M  V30 3 1 3 4 CFG=1
M  V30 4 1 5 3
M  V30 5 1 6 1
M  V30 6 1 7 5
M  V30 7 1 8 3
M  V30 8 1 8 6
M  V30 9 1 9 7
M  V30 10 1 9 8
M  V30 11 1 10 1
M  V30 12 1 11 1
M  V30 13 1 12 4
M  V30 14 1 13 4
M  V30 15 1 14 4
M  V30 16 1 15 5
M  V30 17 1 16 5
M  V30 18 1 17 6
M  V30 19 1 18 6
M  V30 20 1 19 7
M  V30 21 1 20 7
M  V30 22 1 8 21 CFG=1
M  V30 END BOND
M  V30 END CTAB
M  END
>  <i_epik_Tot_Q>  (1) 
0

>  <i_epik_Tot_abs_Q>  (1) 
0

>  <i_i_glide_confnum>  (1) 
4

>  <i_i_glide_lignum>  (1) 
38

>  <i_i_glide_posenum>  (1) 
282

>  <i_i_glide_rotatable_bonds>  (1) 
0

>  <i_lp_mmshare_version>  (1) 
72125

>  <i_m_source_file_index>  (1) 
35

>  <i_f3d_flags>  (1) 
0

>  <num_sample>  (1) 
100

>  <b_lp_Chiralities_Consistent>  (1) 
1

>  <r_epik_Charging_Adjusted_Penalty>  (1) 
0

>  <r_epik_Ionization_Penalty>  (1) 
2.529470820146915e-12

>  <r_epik_Ionization_Penalty_Charging>  (1) 
0

>  <r_epik_Ionization_Penalty_Neutral>  (1) 
2.529470820146915e-12

>  <r_epik_State_Penalty>  (1) 
-0

>  <r_glide_ring_energy>  (1) 
0.71124509259843272

>  <r_i_docking_score>  (1) 
-4.6511807549860738

>  <r_i_glide_ecoul>  (1) 
0.73239223241036178

>  <r_i_glide_eff_state_penalty>  (1) 
-0

>  <r_i_glide_einternal>  (1) 
0

>  <r_i_glide_emodel>  (1) 
-24.256356729407575

>  <r_i_glide_emodel_strain>  (1) 
0

>  <r_i_glide_energy>  (1) 
-19.015867978529513

>  <r_i_glide_erotb>  (1) 
0

>  <r_i_glide_esite>  (1) 
0

>  <r_i_glide_evdw>  (1) 
-19.748260210939875

>  <r_i_glide_gscore>  (1) 
-4.6511807549860738

>  <r_i_glide_gscore_strain>  (1) 
0

>  <r_i_glide_hbond>  (1) 
0

>  <r_i_glide_ligand_efficiency>  (1) 
-0.51679786166511932

>  <r_i_glide_ligand_efficiency_ln>  (1) 
-1.4547557240602798

>  <r_i_glide_ligand_efficiency_sa>  (1) 
-1.0749828718374306

>  <r_i_glide_lipo>  (1) 
-0.90362554032032105

>  <r_i_glide_metal>  (1) 
-0

>  <r_i_glide_rewards>  (1) 
-2.8700010389803121

>  <r_lp_Energy>  (1) 
-0.369228

>  <r_lp_tautomer_probability>  (1) 
1

>  <s_epik_cmdline>  (1) 
J2VwaWtfcHl0aG9uJywgJy1waHQnLCAnMS4wJywgJy1waCcsICc3LjQnLCAnLXRuJywgJzgnLCAnLW1hJywgJzUwMCcsICctaW1hZScsICc8aW5maWxlLm1hZT4nLCAnLW9tYWUnLCAnPG91dGZpbGUubWFlPic=

>  <s_epik_input>  (1) 
TzFbQ0gyXVtDSDJdW0NASF0oW0NAXTEyW0NIM10pT1tDSDJdW0NIMl0y

>  <s_glide_docking_method>  (1) 
confgen

>  <s_i_glide_gridfile>  (1) 
gpcr_drd2_6luq_protein_autoprepared_prepared

>  <s_lp_Force_Field>  (1) 
S-OPLS

>  <s_lp_Variant>  (1) 
Pocket2Mol_34-1

>  <s_m_source_file>  (1) 
generated_generic_title2_ligand_Pocket2Mol_2026-06-23_prepared.sdf

>  <GenAI_Model>  (1) 
Pocket2Mol

>  <Protein>  (1) 
generic_title2

$$$$
Pocket2Mol_5
     RDKit          3D

  0  0  0  0  0  0  0  0  0  0999 V3000
M  V30 BEGIN CTAB
M  V30 COUNTS 16 16 0 0 1
M  V30 BEGIN ATOM
M  V30 1 C 11.625740 9.237681 -4.805265 0
M  V30 2 O 11.775409 7.836857 -4.593956 0
M  V30 3 C 10.914111 7.041076 -5.409324 0
M  V30 4 C 11.184558 7.284524 -6.901924 0
M  V30 5 C 11.078165 8.777087 -7.224948 0
M  V30 6 C 11.950966 9.590748 -6.262427 0
M  V30 7 H 10.613922 9.557471 -4.554479 0
M  V30 8 H 12.300480 9.766877 -4.132654 0
M  V30 9 H 11.070488 5.990449 -5.165625 0
M  V30 10 H 9.870752 7.263501 -5.185016 0
M  V30 11 H 12.175413 6.917695 -7.163940 0
M  V30 12 H 10.476929 6.718285 -7.508877 0
M  V30 13 H 11.368764 8.966655 -8.259161 0
M  V30 14 H 10.037434 9.090192 -7.128716 0
M  V30 15 H 11.794600 10.657513 -6.427083 0
M  V30 16 H 13.005422 9.395265 -6.459701 0
M  V30 END ATOM
M  V30 BEGIN BOND
M  V30 1 1 2 1
M  V30 2 1 3 2
M  V30 3 1 4 3
M  V30 4 1 5 4
M  V30 5 1 6 1
M  V30 6 1 6 5
M  V30 7 1 7 1
M  V30 8 1 8 1
M  V30 9 1 9 3
M  V30 10 1 10 3
M  V30 11 1 11 4
M  V30 12 1 12 4
M  V30 13 1 13 5
M  V30 14 1 14 5
M  V30 15 1 15 6
M  V30 16 1 16 6
M  V30 END BOND
M  V30 END CTAB
M  END
>  <i_epik_Tot_Q>  (1) 
0

>  <i_epik_Tot_abs_Q>  (1) 
0

>  <i_i_glide_confnum>  (1) 
1

>  <i_i_glide_lignum>  (1) 
6

>  <i_i_glide_posenum>  (1) 
278

>  <i_i_glide_rotatable_bonds>  (1) 
0

>  <i_lp_mmshare_version>  (1) 
72125

>  <i_m_source_file_index>  (1) 
6

>  <i_f3d_flags>  (1) 
0

>  <num_sample>  (1) 
100

>  <b_lp_Chiralities_Consistent>  (1) 
1

>  <r_epik_Charging_Adjusted_Penalty>  (1) 
0

>  <r_epik_Ionization_Penalty>  (1) 
1.5229185111393156e-11

>  <r_epik_Ionization_Penalty_Charging>  (1) 
0

>  <r_epik_Ionization_Penalty_Neutral>  (1) 
1.5229185111393156e-11

>  <r_epik_State_Penalty>  (1) 
-0

>  <r_glide_ring_energy>  (1) 
0

>  <r_i_docking_score>  (1) 
-4.6494703021561889

>  <r_i_glide_ecoul>  (1) 
-0.45294994935371136

>  <r_i_glide_eff_state_penalty>  (1) 
-0

>  <r_i_glide_einternal>  (1) 
0

>  <r_i_glide_emodel>  (1) 
-18.306100818151247

>  <r_i_glide_emodel_strain>  (1) 
1.3511325391846185e-10

>  <r_i_glide_energy>  (1) 
-13.878883726809839

>  <r_i_glide_erotb>  (1) 
0

>  <r_i_glide_esite>  (1) 
0

>  <r_i_glide_evdw>  (1) 
-13.425933777456128

>  <r_i_glide_gscore>  (1) 
-4.6494703021561889

>  <r_i_glide_gscore_strain>  (1) 
0

>  <r_i_glide_hbond>  (1) 
0

>  <r_i_glide_ligand_efficiency>  (1) 
-0.77491171702603145

>  <r_i_glide_ligand_efficiency_ln>  (1) 
-1.6654265359908698

>  <r_i_glide_ligand_efficiency_sa>  (1) 
-1.4081080386349139

>  <r_i_glide_lipo>  (1) 
-1.3721762678238334

>  <r_i_glide_metal>  (1) 
-0

>  <r_i_glide_rewards>  (1) 
-2.5380548530564924

>  <r_lp_Energy>  (1) 
2.9645999999999999

>  <r_lp_tautomer_probability>  (1) 
1

>  <s_epik_cmdline>  (1) 
J2VwaWtfcHl0aG9uJywgJy1waHQnLCAnMS4wJywgJy1waCcsICc3LjQnLCAnLXRuJywgJzgnLCAnLW1hJywgJzUwMCcsICctaW1hZScsICc8aW5maWxlLm1hZT4nLCAnLW9tYWUnLCAnPG91dGZpbGUubWFlPic=

>  <s_epik_input>  (1) 
W0NIMl0xT1tDSDJdW0NIMl1bQ0gyXVtDSDJdMQ==

>  <s_glide_docking_method>  (1) 
confgen

>  <s_i_glide_gridfile>  (1) 
gpcr_drd2_6luq_protein_autoprepared_prepared

>  <s_lp_Force_Field>  (1) 
S-OPLS

>  <s_lp_Variant>  (1) 
Pocket2Mol_5-1

>  <s_m_source_file>  (1) 
generated_generic_title2_ligand_Pocket2Mol_2026-06-23_prepared.sdf

>  <GenAI_Model>  (1) 
Pocket2Mol

>  <Protein>  (1) 
generic_title2

$$$$
Pocket2Mol_7
     RDKit          3D

  0  0  0  0  0  0  0  0  0  0999 V3000
M  V30 BEGIN CTAB
M  V30 COUNTS 11 11 0 0 1
M  V30 BEGIN ATOM
M  V30 1 N 11.775409 6.739176 -3.755657 0
M  V30 2 C 12.294584 7.851242 -3.185443 0
M  V30 3 C 12.193666 9.134440 -3.756660 0
M  V30 4 C 11.521804 9.277832 -4.980910 0
M  V30 5 C 10.976785 8.133786 -5.584683 0
M  V30 6 C 11.128408 6.890140 -4.938071 0
M  V30 7 H 12.808058 7.711916 -2.244980 0
M  V30 8 H 12.626064 9.990227 -3.261391 0
M  V30 9 H 11.425587 10.247251 -5.446754 0
M  V30 10 H 10.451486 8.204546 -6.526462 0
M  V30 11 H 10.719278 5.992302 -5.378511 0
M  V30 END ATOM
M  V30 BEGIN BOND
M  V30 1 2 2 1
M  V30 2 1 3 2
M  V30 3 2 4 3
M  V30 4 1 5 4
M  V30 5 1 6 1
M  V30 6 2 6 5
M  V30 7 1 7 2
M  V30 8 1 8 3
M  V30 9 1 9 4
M  V30 10 1 10 5
M  V30 11 1 11 6
M  V30 END BOND
M  V30 END CTAB
M  END
>  <i_epik_Tot_Q>  (1) 
0

>  <i_epik_Tot_abs_Q>  (1) 
0

>  <i_i_glide_confnum>  (1) 
1

>  <i_i_glide_lignum>  (1) 
8

>  <i_i_glide_posenum>  (1) 
341

>  <i_i_glide_rotatable_bonds>  (1) 
0

>  <i_lp_mmshare_version>  (1) 
72125

>  <i_m_source_file_index>  (1) 
8

>  <i_f3d_flags>  (1) 
0

>  <num_sample>  (1) 
100

>  <b_lp_Chiralities_Consistent>  (1) 
1

>  <r_epik_Charging_Adjusted_Penalty>  (1) 
0

>  <r_epik_Ionization_Penalty>  (1) 
0.0028947865417402485

>  <r_epik_Ionization_Penalty_Charging>  (1) 
0

>  <r_epik_Ionization_Penalty_Neutral>  (1) 
0.0028947865417402485

>  <r_epik_State_Penalty>  (1) 
-0

>  <r_glide_ring_energy>  (1) 
0

>  <r_i_docking_score>  (1) 
-4.6488913584469298

>  <r_i_glide_ecoul>  (1) 
-0.13055931046898839

>  <r_i_glide_eff_state_penalty>  (1) 
-0

>  <r_i_glide_einternal>  (1) 
0

>  <r_i_glide_emodel>  (1) 
-18.812336325158384

>  <r_i_glide_emodel_strain>  (1) 
0

>  <r_i_glide_energy>  (1) 
-14.399964887913002

>  <r_i_glide_erotb>  (1) 
0

>  <r_i_glide_esite>  (1) 
0

>  <r_i_glide_evdw>  (1) 
-14.269405577444013

>  <r_i_glide_gscore>  (1) 
-4.6488913584469298

>  <r_i_glide_gscore_strain>  (1) 
0

>  <r_i_glide_hbond>  (1) 
0

>  <r_i_glide_ligand_efficiency>  (1) 
-0.77481522640782163

>  <r_i_glide_ligand_efficiency_ln>  (1) 
-1.6652191600633801

>  <r_i_glide_ligand_efficiency_sa>  (1) 
-1.4079327035455496

>  <r_i_glide_lipo>  (1) 
-1.5564890203122432

>  <r_i_glide_metal>  (1) 
-0

>  <r_i_glide_rewards>  (1) 
-2.3593481626921382

>  <r_lp_Energy>  (1) 
11.088944

>  <r_lp_tautomer_probability>  (1) 
1

>  <s_epik_cmdline>  (1) 
J2VwaWtfcHl0aG9uJywgJy1waHQnLCAnMS4wJywgJy1waCcsICc3LjQnLCAnLXRuJywgJzgnLCAnLW1hJywgJzUwMCcsICctaW1hZScsICc8aW5maWxlLm1hZT4nLCAnLW9tYWUnLCAnPG91dGZpbGUubWFlPic=

>  <s_epik_input>  (1) 
bjFbY0hdW2NIXVtjSF1bY0hdW2NIXTE=

>  <s_glide_docking_method>  (1) 
confgen

>  <s_i_glide_gridfile>  (1) 
gpcr_drd2_6luq_protein_autoprepared_prepared

>  <s_lp_Force_Field>  (1) 
S-OPLS

>  <s_lp_Variant>  (1) 
Pocket2Mol_7-1

>  <s_m_source_file>  (1) 
generated_generic_title2_ligand_Pocket2Mol_2026-06-23_prepared.sdf

>  <GenAI_Model>  (1) 
Pocket2Mol

>  <Protein>  (1) 
generic_title2

$$$$
Pocket2Mol_31
     RDKit          3D

  0  0  0  0  0  0  0  0  0  0999 V3000
M  V30 BEGIN CTAB
M  V30 COUNTS 20 21 0 0 1
M  V30 BEGIN ATOM
M  V30 1 C 10.836036 6.385040 -5.316404 0
M  V30 2 O 10.975410 7.795785 -5.185057 0
M  V30 3 C 10.849681 8.427948 -6.456649 0 CFG=2
M  V30 4 C 11.630943 9.731025 -6.420398 0
M  V30 5 C 9.405920 8.390140 -6.997866 0
M  V30 6 C 11.399568 6.053928 -6.698730 0
M  V30 7 C 9.915412 7.614609 -8.210275 0
M  V30 8 C 11.225190 7.335849 -7.458437 0 CFG=1
M  V30 9 H 11.356373 5.864533 -4.512733 0
M  V30 10 H 9.780447 6.120077 -5.257694 0
M  V30 11 H 11.775410 10.117699 -7.425390 0
M  V30 12 H 12.621009 9.589541 -5.986221 0
M  V30 13 H 11.114816 10.488925 -5.831176 0
M  V30 14 H 8.708425 7.816203 -6.386316 0
M  V30 15 H 8.975482 9.348063 -7.272432 0
M  V30 16 H 12.453416 5.795056 -6.615322 0
M  V30 17 H 10.891992 5.220748 -7.185023 0
M  V30 18 H 9.322435 6.731567 -8.452368 0
M  V30 19 H 10.053061 8.252659 -9.084367 0
M  V30 20 H 12.091588 7.597160 -8.067287 0
M  V30 END ATOM
M  V30 BEGIN BOND
M  V30 1 1 2 1
M  V30 2 1 3 2
M  V30 3 1 3 4 CFG=1
M  V30 4 1 5 3
M  V30 5 1 6 1
M  V30 6 1 7 5
M  V30 7 1 8 3
M  V30 8 1 8 6
M  V30 9 1 8 7
M  V30 10 1 9 1
M  V30 11 1 10 1
M  V30 12 1 11 4
M  V30 13 1 12 4
M  V30 14 1 13 4
M  V30 15 1 14 5
M  V30 16 1 15 5
M  V30 17 1 16 6
M  V30 18 1 17 6
M  V30 19 1 18 7
M  V30 20 1 19 7
M  V30 21 1 8 20 CFG=3
M  V30 END BOND
M  V30 END CTAB
M  END
>  <i_epik_Tot_Q>  (1) 
0

>  <i_epik_Tot_abs_Q>  (1) 
0

>  <i_i_glide_confnum>  (1) 
1

>  <i_i_glide_lignum>  (1) 
35

>  <i_i_glide_posenum>  (1) 
186

>  <i_i_glide_rotatable_bonds>  (1) 
0

>  <i_lp_mmshare_version>  (1) 
72125

>  <i_m_source_file_index>  (1) 
32

>  <i_f3d_flags>  (1) 
0

>  <num_sample>  (1) 
100

>  <b_lp_Chiralities_Consistent>  (1) 
1

>  <r_epik_Charging_Adjusted_Penalty>  (1) 
0

>  <r_epik_Ionization_Penalty>  (1) 
2.3587344998035955e-11

>  <r_epik_Ionization_Penalty_Charging>  (1) 
0

>  <r_epik_Ionization_Penalty_Neutral>  (1) 
2.3587344998035955e-11

>  <r_epik_State_Penalty>  (1) 
-0

>  <r_glide_ring_energy>  (1) 
0

>  <r_i_docking_score>  (1) 
-4.6436315764285201

>  <r_i_glide_ecoul>  (1) 
-0.81290363308608116

>  <r_i_glide_eff_state_penalty>  (1) 
-0

>  <r_i_glide_einternal>  (1) 
0

>  <r_i_glide_emodel>  (1) 
-18.35509299078165

>  <r_i_glide_emodel_strain>  (1) 
0

>  <r_i_glide_energy>  (1) 
-14.081482201605843

>  <r_i_glide_erotb>  (1) 
0

>  <r_i_glide_esite>  (1) 
0

>  <r_i_glide_evdw>  (1) 
-13.268578568519761

>  <r_i_glide_gscore>  (1) 
-4.6436315764285201

>  <r_i_glide_gscore_strain>  (1) 
0

>  <r_i_glide_hbond>  (1) 
0

>  <r_i_glide_ligand_efficiency>  (1) 
-0.58045394705356501

>  <r_i_glide_ligand_efficiency_ln>  (1) 
-1.507946006955345

>  <r_i_glide_ligand_efficiency_sa>  (1) 
-1.1609078941071302

>  <r_i_glide_lipo>  (1) 
-1.1738604564311672

>  <r_i_glide_metal>  (1) 
-0

>  <r_i_glide_rewards>  (1) 
-2.6844066466084531

>  <r_lp_Energy>  (1) 
15.613807

>  <r_lp_tautomer_probability>  (1) 
1

>  <s_epik_cmdline>  (1) 
J2VwaWtfcHl0aG9uJywgJy1waHQnLCAnMS4wJywgJy1waCcsICc3LjQnLCAnLXRuJywgJzgnLCAnLW1hJywgJzUwMCcsICctaW1hZScsICc8aW5maWxlLm1hZT4nLCAnLW9tYWUnLCAnPG91dGZpbGUubWFlPic=

>  <s_epik_input>  (1) 
TzFbQ0gyXVtDSDJdW0NASF0oW0NAXTEyW0NIM10pW0NIMl1bQ0gyXTI=

>  <s_glide_docking_method>  (1) 
confgen

>  <s_i_glide_gridfile>  (1) 
gpcr_drd2_6luq_protein_autoprepared_prepared

>  <s_lp_Force_Field>  (1) 
S-OPLS

>  <s_lp_Variant>  (1) 
Pocket2Mol_31-1

>  <s_m_source_file>  (1) 
generated_generic_title2_ligand_Pocket2Mol_2026-06-23_prepared.sdf

>  <GenAI_Model>  (1) 
Pocket2Mol

>  <Protein>  (1) 
generic_title2

$$$$
Pocket2Mol_20
     RDKit          3D

  0  0  0  0  0  0  0  0  0  0999 V3000
M  V30 BEGIN CTAB
M  V30 COUNTS 12 12 0 0 1
M  V30 BEGIN ATOM
M  V30 1 N 12.160029 8.790623 -7.977211 0
M  V30 2 C 11.401325 8.474786 -9.055546 0
M  V30 3 C 10.101663 7.934232 -8.957562 0
M  V30 4 C 11.611142 8.587940 -6.756505 0
M  V30 5 O 9.375666 7.645902 -10.084313 0
M  V30 6 C 9.563048 7.700693 -7.684589 0
M  V30 7 C 10.329880 8.037689 -6.559986 0
M  V30 8 H 11.844036 8.664625 -10.025118 0
M  V30 9 H 12.218832 8.869603 -5.910704 0
M  V30 10 H 8.412573 7.590260 -9.943094 0
M  V30 11 H 8.581976 7.277679 -7.573715 0
M  V30 12 H 9.942443 7.880179 -5.564104 0
M  V30 END ATOM
M  V30 BEGIN BOND
M  V30 1 2 2 1
M  V30 2 1 3 2
M  V30 3 1 4 1
M  V30 4 1 5 3
M  V30 5 2 6 3
M  V30 6 2 7 4
M  V30 7 1 7 6
M  V30 8 1 8 2
M  V30 9 1 9 4
M  V30 10 1 10 5
M  V30 11 1 11 6
M  V30 12 1 12 7
M  V30 END BOND
M  V30 END CTAB
M  END
>  <i_epik_Tot_Q>  (1) 
0

>  <i_epik_Tot_abs_Q>  (1) 
0

>  <i_i_glide_confnum>  (1) 
1

>  <i_i_glide_lignum>  (1) 
24

>  <i_i_glide_posenum>  (1) 
365

>  <i_i_glide_rotatable_bonds>  (1) 
1

>  <i_lp_mmshare_version>  (1) 
72125

>  <i_m_source_file_index>  (1) 
21

>  <i_f3d_flags>  (1) 
0

>  <num_sample>  (1) 
100

>  <b_lp_Chiralities_Consistent>  (1) 
1

>  <r_epik_Charging_Adjusted_Penalty>  (1) 
0.49104251329211085

>  <r_epik_Ionization_Penalty>  (1) 
0.049438115990627488

>  <r_epik_Ionization_Penalty_Charging>  (1) 
0

>  <r_epik_Ionization_Penalty_Neutral>  (1) 
0.049438115990627488

>  <r_epik_State_Penalty>  (1) 
0.49104251329211085

>  <r_glide_ring_energy>  (1) 
0

>  <r_i_docking_score>  (1) 
-4.6408380007593717

>  <r_i_glide_ecoul>  (1) 
-8.2270321227895113

>  <r_i_glide_eff_state_penalty>  (1) 
0.49104251329211085

>  <r_i_glide_einternal>  (1) 
0.15550763285968422

>  <r_i_glide_emodel>  (1) 
-26.208061653634218

>  <r_i_glide_emodel_strain>  (1) 
0.037827099343436643

>  <r_i_glide_energy>  (1) 
-19.614186852973464

>  <r_i_glide_erotb>  (1) 
0

>  <r_i_glide_esite>  (1) 
0

>  <r_i_glide_evdw>  (1) 
-11.387154730183953

>  <r_i_glide_gscore>  (1) 
-5.1318805140514829

>  <r_i_glide_gscore_strain>  (1) 
0

>  <r_i_glide_hbond>  (1) 
-0.16

>  <r_i_glide_ligand_efficiency>  (1) 
-0.66297685725133881

>  <r_i_glide_ligand_efficiency_ln>  (1) 
-1.5753494729795419

>  <r_i_glide_ligand_efficiency_sa>  (1) 
-1.2682291036925251

>  <r_i_glide_lipo>  (1) 
-0.67680129245719156

>  <r_i_glide_metal>  (1) 
-0

>  <r_i_glide_rewards>  (1) 
-2.4916666666666667

>  <r_lp_Energy>  (1) 
10.560834

>  <r_lp_tautomer_probability>  (1) 
0.43658000000000002

>  <s_epik_cmdline>  (1) 
J2VwaWtfcHl0aG9uJywgJy1waHQnLCAnMS4wJywgJy1waCcsICc3LjQnLCAnLXRuJywgJzgnLCAnLW1hJywgJzUwMCcsICctaW1hZScsICc8aW5maWxlLm1hZT4nLCAnLW9tYWUnLCAnPG91dGZpbGUubWFlPic=

>  <s_epik_input>  (1) 
W2NIXTFbY0hdW2NIXW5bY0hdYzFbT0hd

>  <s_glide_docking_method>  (1) 
confgen

>  <s_i_glide_gridfile>  (1) 
gpcr_drd2_6luq_protein_autoprepared_prepared

>  <s_lp_Force_Field>  (1) 
S-OPLS

>  <s_lp_Variant>  (1) 
Pocket2Mol_20-2

>  <s_m_source_file>  (1) 
generated_generic_title2_ligand_Pocket2Mol_2026-06-23_prepared.sdf

>  <GenAI_Model>  (1) 
Pocket2Mol

>  <Protein>  (1) 
generic_title2

$$$$
Pocket2Mol_91
     RDKit          3D

  0  0  0  0  0  0  0  0  0  0999 V3000
M  V30 BEGIN CTAB
M  V30 COUNTS 22 23 0 0 1
M  V30 BEGIN ATOM
M  V30 1 C 6.395846 7.190226 -12.385030 0
M  V30 2 O 7.764742 7.494049 -12.603991 0
M  V30 3 C 5.826762 6.595538 -13.664714 0
M  V30 4 O 6.822553 5.885440 -14.375930 0
M  V30 5 C 8.690079 6.606845 -12.193985 0
M  V30 6 C 7.477015 4.892843 -13.689198 0
M  V30 7 C 7.263582 3.541798 -14.046047 0
M  V30 8 O 9.666530 6.919490 -11.513959 0
M  V30 9 C 8.399221 5.193275 -12.637935 0
M  V30 10 C 7.962061 2.527652 -13.359798 0
M  V30 11 C 9.068566 4.128558 -12.007163 0
M  V30 12 N 7.787827 1.176724 -13.659109 0
M  V30 13 N 8.830256 2.856133 -12.385029 0 CHG=1
M  V30 14 H 6.291081 6.480164 -11.561580 0
M  V30 15 H 5.846627 8.081041 -12.082433 0
M  V30 16 H 4.975430 5.949897 -13.451206 0
M  V30 17 H 5.470426 7.396391 -14.312438 0
M  V30 18 H 6.575985 3.291894 -14.838321 0
M  V30 19 H 9.775428 4.257257 -11.205004 0
M  V30 20 H 7.139654 0.870940 -14.370782 0
M  V30 21 H 8.279515 0.455928 -13.149871 0
M  V30 22 H 9.328288 2.101266 -11.894414 0
M  V30 END ATOM
M  V30 BEGIN BOND
M  V30 1 1 2 1
M  V30 2 1 3 1
M  V30 3 1 4 3
M  V30 4 1 5 2
M  V30 5 1 6 4
M  V30 6 1 7 6
M  V30 7 2 8 5
M  V30 8 1 9 5
M  V30 9 2 9 6
M  V30 10 2 10 7
M  V30 11 1 11 9
M  V30 12 1 12 10
M  V30 13 1 13 10
M  V30 14 2 13 11
M  V30 15 1 14 1
M  V30 16 1 15 1
M  V30 17 1 16 3
M  V30 18 1 17 3
M  V30 19 1 18 7
M  V30 20 1 19 11
M  V30 21 1 20 12
M  V30 22 1 21 12
M  V30 23 1 22 13
M  V30 END BOND
M  V30 END CTAB
M  END
>  <i_epik_Tot_Q>  (1) 
1

>  <i_epik_Tot_abs_Q>  (1) 
1

>  <i_i_glide_confnum>  (1) 
1

>  <i_i_glide_lignum>  (1) 
98

>  <i_i_glide_posenum>  (1) 
214

>  <i_i_glide_rotatable_bonds>  (1) 
0

>  <i_lp_mmshare_version>  (1) 
72125

>  <i_m_source_file_index>  (1) 
92

>  <i_f3d_flags>  (1) 
0

>  <num_sample>  (1) 
100

>  <b_lp_Chiralities_Consistent>  (1) 
1

>  <r_epik_Charging_Adjusted_Penalty>  (1) 
0.71045643263358682

>  <r_epik_Ionization_Penalty>  (1) 
0.3552545589029974

>  <r_epik_Ionization_Penalty_Charging>  (1) 
0.35522821631679397

>  <r_epik_Ionization_Penalty_Neutral>  (1) 
2.6342586203446271e-05

>  <r_epik_State_Penalty>  (1) 
0.35522821631679286

>  <r_glide_ring_energy>  (1) 
0

>  <r_i_docking_score>  (1) 
-4.6189699052684547

>  <r_i_glide_ecoul>  (1) 
-4.537793402315712

>  <r_i_glide_eff_state_penalty>  (1) 
0.35522821631679286

>  <r_i_glide_einternal>  (1) 
0

>  <r_i_glide_emodel>  (1) 
-30.851351897837851

>  <r_i_glide_emodel_strain>  (1) 
0

>  <r_i_glide_energy>  (1) 
-21.002715197649948

>  <r_i_glide_erotb>  (1) 
0

>  <r_i_glide_esite>  (1) 
-0.027099387738770676

>  <r_i_glide_evdw>  (1) 
-16.464921795334238

>  <r_i_glide_gscore>  (1) 
-4.974198121585248

>  <r_i_glide_gscore_strain>  (1) 
0

>  <r_i_glide_hbond>  (1) 
0

>  <r_i_glide_ligand_efficiency>  (1) 
-0.35530537732834266

>  <r_i_glide_ligand_efficiency_ln>  (1) 
-1.2956621376965214

>  <r_i_glide_ligand_efficiency_sa>  (1) 
-0.83544185844584462

>  <r_i_glide_lipo>  (1) 
-0.82201110108220932

>  <r_i_glide_metal>  (1) 
-0

>  <r_i_glide_rewards>  (1) 
-2.6211725326502

>  <r_lp_Energy>  (1) 
16.247630000000001

>  <s_epik_Chemistry_Notes>  (1) 
This compound has an ester and may undergo hydrolysis at high or low pH.

>  <s_epik_cmdline>  (1) 
J2VwaWtfcHl0aG9uJywgJy1waHQnLCAnMS4wJywgJy1waCcsICc3LjQnLCAnLXRuJywgJzgnLCAnLW1hJywgJzUwMCcsICctaW1hZScsICc8aW5maWxlLm1hZT4nLCAnLW9tYWUnLCAnPG91dGZpbGUubWFlPic=

>  <s_epik_input>  (1) 
TzFbQ0gyXVtDSDJdT0MoPU8pYyhjMTIpW2NIXW5jKFtjSF0yKVtOSDJd

>  <s_glide_docking_method>  (1) 
confgen

>  <s_i_glide_gridfile>  (1) 
gpcr_drd2_6luq_protein_autoprepared_prepared

>  <s_lp_Force_Field>  (1) 
S-OPLS

>  <s_lp_Variant>  (1) 
Pocket2Mol_91-1

>  <s_m_source_file>  (1) 
generated_generic_title2_ligand_Pocket2Mol_2026-06-23_prepared.sdf

>  <GenAI_Model>  (1) 
Pocket2Mol

>  <Protein>  (1) 
generic_title2

$$$$
Pocket2Mol_95
     RDKit          3D

  0  0  0  0  0  0  0  0  0  0999 V3000
M  V30 BEGIN CTAB
M  V30 COUNTS 23 24 0 0 1
M  V30 BEGIN ATOM
M  V30 1 C 9.107504 5.063351 -9.641907 0
M  V30 2 O 8.828928 5.538765 -8.337004 0
M  V30 3 C 9.654077 6.539465 -7.876756 0
M  V30 4 C 9.318427 6.233880 -10.604631 0
M  V30 5 O 10.351288 7.094780 -10.141120 0
M  V30 6 C 10.420732 7.320998 -8.781171 0
M  V30 7 C 11.267048 8.339828 -8.281846 0
M  V30 8 O 12.016193 9.099123 -9.144145 0
M  V30 9 C 11.337782 8.580295 -6.892586 0
M  V30 10 O 12.150414 9.564019 -6.409508 0
M  V30 11 C 9.734992 6.790169 -6.494061 0
M  V30 12 C 10.574260 7.806307 -6.004314 0
M  V30 13 C 13.077214 8.389595 -9.767488 0
M  V30 14 H 8.272142 4.450360 -9.980184 0
M  V30 15 H 9.978828 4.414015 -9.605026 0
M  V30 16 H 8.394987 6.785167 -10.762869 0
M  V30 17 H 9.610265 5.852934 -11.583689 0
M  V30 18 H 12.601941 9.991283 -7.120748 0
M  V30 19 H 9.150011 6.197913 -5.806579 0
M  V30 20 H 10.631726 7.991346 -4.942669 0
M  V30 21 H 13.347691 8.866714 -10.709461 0
M  V30 22 H 13.957149 8.390221 -9.123743 0
M  V30 23 H 12.823633 7.354045 -9.985024 0
M  V30 END ATOM
M  V30 BEGIN BOND
M  V30 1 1 2 1
M  V30 2 1 3 2
M  V30 3 1 4 1
M  V30 4 1 5 4
M  V30 5 2 6 3
M  V30 6 1 6 5
M  V30 7 1 7 6
M  V30 8 1 8 7
M  V30 9 2 9 7
M  V30 10 1 10 9
M  V30 11 1 11 3
M  V30 12 1 12 9
M  V30 13 2 12 11
M  V30 14 1 13 8
M  V30 15 1 14 1
M  V30 16 1 15 1
M  V30 17 1 16 4
M  V30 18 1 17 4
M  V30 19 1 18 10
M  V30 20 1 19 11
M  V30 21 1 20 12
M  V30 22 1 21 13
M  V30 23 1 22 13
M  V30 24 1 23 13
M  V30 END BOND
M  V30 END CTAB
M  END
>  <i_epik_Tot_Q>  (1) 
0

>  <i_epik_Tot_abs_Q>  (1) 
0

>  <i_i_glide_confnum>  (1) 
1

>  <i_i_glide_lignum>  (1) 
104

>  <i_i_glide_posenum>  (1) 
222

>  <i_i_glide_rotatable_bonds>  (1) 
2

>  <i_lp_mmshare_version>  (1) 
72125

>  <i_m_source_file_index>  (1) 
96

>  <i_f3d_flags>  (1) 
0

>  <num_sample>  (1) 
100

>  <b_lp_Chiralities_Consistent>  (1) 
1

>  <r_epik_Charging_Adjusted_Penalty>  (1) 
0

>  <r_epik_Ionization_Penalty>  (1) 
0.0014130578134093086

>  <r_epik_Ionization_Penalty_Charging>  (1) 
0

>  <r_epik_Ionization_Penalty_Neutral>  (1) 
0.0014130578134093086

>  <r_epik_State_Penalty>  (1) 
-0

>  <r_glide_ring_energy>  (1) 
0

>  <r_i_docking_score>  (1) 
-4.6152524849979262

>  <r_i_glide_ecoul>  (1) 
-0.10397190703078626

>  <r_i_glide_eff_state_penalty>  (1) 
-0

>  <r_i_glide_einternal>  (1) 
0.90923889019649806

>  <r_i_glide_emodel>  (1) 
-28.462506189453173

>  <r_i_glide_emodel_strain>  (1) 
0.095472595774083402

>  <r_i_glide_energy>  (1) 
-22.947107091094178

>  <r_i_glide_erotb>  (1) 
0

>  <r_i_glide_esite>  (1) 
0

>  <r_i_glide_evdw>  (1) 
-22.843135184063392

>  <r_i_glide_gscore>  (1) 
-4.6152524849979262

>  <r_i_glide_gscore_strain>  (1) 
0

>  <r_i_glide_hbond>  (1) 
0

>  <r_i_glide_ligand_efficiency>  (1) 
-0.35501942192291741

>  <r_i_glide_ligand_efficiency_ln>  (1) 
-1.2946193682493907

>  <r_i_glide_ligand_efficiency_sa>  (1) 
-0.83476948158192699

>  <r_i_glide_lipo>  (1) 
-0.67163398800043528

>  <r_i_glide_metal>  (1) 
-0

>  <r_i_glide_rewards>  (1) 
-2.7858659517397037

>  <r_lp_Energy>  (1) 
25.525124999999999

>  <r_lp_tautomer_probability>  (1) 
1

>  <s_epik_cmdline>  (1) 
J2VwaWtfcHl0aG9uJywgJy1waHQnLCAnMS4wJywgJy1waCcsICc3LjQnLCAnLXRuJywgJzgnLCAnLW1hJywgJzUwMCcsICctaW1hZScsICc8aW5maWxlLm1hZT4nLCAnLW9tYWUnLCAnPG91dGZpbGUubWFlPic=

>  <s_epik_input>  (1) 
TzFbQ0gyXVtDSDJdT2MoYzEyKWMoT1tDSDNdKWMoW09IXSlbY0hdW2NIXTI=

>  <s_glide_docking_method>  (1) 
confgen

>  <s_i_glide_gridfile>  (1) 
gpcr_drd2_6luq_protein_autoprepared_prepared

>  <s_lp_Force_Field>  (1) 
S-OPLS

>  <s_lp_Variant>  (1) 
Pocket2Mol_95-1

>  <s_m_source_file>  (1) 
generated_generic_title2_ligand_Pocket2Mol_2026-06-23_prepared.sdf

>  <GenAI_Model>  (1) 
Pocket2Mol

>  <Protein>  (1) 
generic_title2

$$$$
Pocket2Mol_92
     RDKit          3D

  0  0  0  0  0  0  0  0  0  0999 V3000
M  V30 BEGIN CTAB
M  V30 COUNTS 26 27 0 0 1
M  V30 BEGIN ATOM
M  V30 1 C 10.934203 7.953248 -6.352165 0
M  V30 2 O 11.375404 8.933325 -7.285498 0
M  V30 3 C 9.734047 7.145469 -6.862443 0
M  V30 4 O 10.034874 6.465406 -8.073853 0
M  V30 5 C 12.156912 8.390227 -8.342023 0
M  V30 6 C 9.949765 7.300855 -9.228960 0 CFG=2
M  V30 7 C 9.401949 6.549227 -10.441727 0
M  V30 8 C 11.327988 7.914514 -9.546157 0
M  V30 9 C 8.975535 7.256093 -11.585002 0
M  V30 10 N 9.375419 5.195713 -10.349940 0
M  V30 11 C 8.922144 4.511192 -11.425108 0
M  V30 12 C 8.471283 5.130468 -12.606267 0
M  V30 13 C 8.495878 6.530301 -12.684752 0
M  V30 14 H 10.635305 8.477179 -5.444150 0
M  V30 15 H 11.748568 7.289360 -6.059780 0
M  V30 16 H 8.843343 7.769272 -6.954679 0
M  V30 17 H 9.485116 6.390229 -6.116858 0
M  V30 18 H 12.836774 9.168570 -8.687376 0
M  V30 19 H 12.802037 7.590215 -7.979659 0
M  V30 20 H 11.931761 7.190249 -10.093194 0
M  V30 21 H 11.180227 8.750070 -10.230530 0
M  V30 22 H 9.014766 8.334670 -11.612340 0
M  V30 23 H 8.921039 3.435467 -11.340055 0
M  V30 24 H 8.115847 4.538668 -13.436127 0
M  V30 25 H 8.159611 7.038555 -13.576004 0
M  V30 26 H 9.255270 8.121730 -9.046901 0
M  V30 END ATOM
M  V30 BEGIN BOND
M  V30 1 1 2 1
M  V30 2 1 3 1
M  V30 3 1 4 3
M  V30 4 1 5 2
M  V30 5 1 6 4
M  V30 6 1 7 6
M  V30 7 1 8 5
M  V30 8 1 8 6
M  V30 9 1 9 7
M  V30 10 2 10 7
M  V30 11 1 11 10
M  V30 12 2 12 11
M  V30 13 2 13 9
M  V30 14 1 13 12
M  V30 15 1 14 1
M  V30 16 1 15 1
M  V30 17 1 16 3
M  V30 18 1 17 3
M  V30 19 1 18 5
M  V30 20 1 19 5
M  V30 21 1 20 8
M  V30 22 1 21 8
M  V30 23 1 22 9
M  V30 24 1 23 11
M  V30 25 1 24 12
M  V30 26 1 25 13
M  V30 27 1 6 26 CFG=1
M  V30 END BOND
M  V30 END CTAB
M  END
>  <i_epik_Tot_Q>  (1) 
0

>  <i_epik_Tot_abs_Q>  (1) 
0

>  <i_i_glide_confnum>  (1) 
11

>  <i_i_glide_lignum>  (1) 
101

>  <i_i_glide_posenum>  (1) 
122

>  <i_i_glide_rotatable_bonds>  (1) 
1

>  <i_lp_mmshare_version>  (1) 
72125

>  <i_m_source_file_index>  (1) 
93

>  <i_f3d_flags>  (1) 
0

>  <num_sample>  (1) 
100

>  <b_lp_Chiralities_Consistent>  (1) 
1

>  <r_epik_Charging_Adjusted_Penalty>  (1) 
0.0037896276157117258

>  <r_epik_Ionization_Penalty>  (1) 
0.0037896276174286705

>  <r_epik_Ionization_Penalty_Charging>  (1) 
0

>  <r_epik_Ionization_Penalty_Neutral>  (1) 
0.0037896276174286705

>  <r_epik_State_Penalty>  (1) 
0.0037896276157117258

>  <r_glide_ring_energy>  (1) 
0.42046542179081409

>  <r_i_docking_score>  (1) 
-4.6141807064963665

>  <r_i_glide_ecoul>  (1) 
0.039098363206790221

>  <r_i_glide_eff_state_penalty>  (1) 
0.0037896276157117258

>  <r_i_glide_einternal>  (1) 
0.77855127012318137

>  <r_i_glide_emodel>  (1) 
-29.881937662888063

>  <r_i_glide_emodel_strain>  (1) 
0.097591011870079569

>  <r_i_glide_energy>  (1) 
-23.047355568861406

>  <r_i_glide_erotb>  (1) 
0.4895878840251785

>  <r_i_glide_esite>  (1) 
0

>  <r_i_glide_evdw>  (1) 
-23.086453932068196

>  <r_i_glide_gscore>  (1) 
-4.6179703341120781

>  <r_i_glide_gscore_strain>  (1) 
0

>  <r_i_glide_hbond>  (1) 
0

>  <r_i_glide_ligand_efficiency>  (1) 
-0.3549369774227974

>  <r_i_glide_ligand_efficiency_ln>  (1) 
-1.2943187248477344

>  <r_i_glide_ligand_efficiency_sa>  (1) 
-0.83457562696898302

>  <r_i_glide_lipo>  (1) 
-1.0906500736517986

>  <r_i_glide_metal>  (1) 
-0

>  <r_i_glide_rewards>  (1) 
-2.868450202363066

>  <r_lp_Energy>  (1) 
20.663057999999999

>  <s_epik_cmdline>  (1) 
J2VwaWtfcHl0aG9uJywgJy1waHQnLCAnMS4wJywgJy1waCcsICc3LjQnLCAnLXRuJywgJzgnLCAnLW1hJywgJzUwMCcsICctaW1hZScsICc8aW5maWxlLm1hZT4nLCAnLW9tYWUnLCAnPG91dGZpbGUubWFlPic=

>  <s_epik_input>  (1) 
W0NIMl0xW0NIMl1PW0NIMl1bQ0gyXU8vQzE9QzJcW0NIXT1bQ0hdW0NIXT1bQ0hdW05IXTI=

>  <s_glide_docking_method>  (1) 
confgen

>  <s_i_glide_gridfile>  (1) 
gpcr_drd2_6luq_protein_autoprepared_prepared

>  <s_lp_Force_Field>  (1) 
S-OPLS

>  <s_lp_Variant>  (1) 
Pocket2Mol_92-2

>  <s_m_source_file>  (1) 
generated_generic_title2_ligand_Pocket2Mol_2026-06-23_prepared.sdf

>  <GenAI_Model>  (1) 
Pocket2Mol

>  <Protein>  (1) 
generic_title2

$$$$
Pocket2Mol_31
     RDKit          3D

  0  0  0  0  0  0  0  0  0  0999 V3000
M  V30 BEGIN CTAB
M  V30 COUNTS 20 21 0 0 1
M  V30 BEGIN ATOM
M  V30 1 C 12.094140 7.590641 -7.984151 0
M  V30 2 O 11.775196 6.647066 -6.965490 0
M  V30 3 C 10.637885 7.055033 -6.207738 0 CFG=2
M  V30 4 C 10.818595 6.545072 -4.784974 0
M  V30 5 C 9.322660 6.822915 -6.965222 0
M  V30 6 C 11.663736 8.925543 -7.410762 0
M  V30 7 C 9.122037 8.336624 -7.049370 0
M  V30 8 C 10.534596 8.556045 -6.490086 0 CFG=1
M  V30 9 H 13.153650 7.590239 -8.239757 0
M  V30 10 H 11.523872 7.354534 -8.883531 0
M  V30 11 H 9.863229 6.390176 -4.288865 0
M  V30 12 H 11.407407 7.237802 -4.184474 0
M  V30 13 H 11.340186 5.590232 -4.772501 0
M  V30 14 H 9.451657 6.351634 -7.940161 0
M  V30 15 H 8.548279 6.320769 -6.385076 0
M  V30 16 H 12.480276 9.382409 -6.850785 0
M  V30 17 H 11.375534 9.590250 -8.218390 0
M  V30 18 H 8.975905 8.703945 -8.065911 0
M  V30 19 H 8.333247 8.689808 -6.385023 0
M  V30 20 H 10.500361 9.157882 -5.581664 0
M  V30 END ATOM
M  V30 BEGIN BOND
M  V30 1 1 2 1
M  V30 2 1 3 2
M  V30 3 1 3 4 CFG=1
M  V30 4 1 5 3
M  V30 5 1 6 1
M  V30 6 1 7 5
M  V30 7 1 8 3
M  V30 8 1 8 6
M  V30 9 1 8 7
M  V30 10 1 9 1
M  V30 11 1 10 1
M  V30 12 1 11 4
M  V30 13 1 12 4
M  V30 14 1 13 4
M  V30 15 1 14 5
M  V30 16 1 15 5
M  V30 17 1 16 6
M  V30 18 1 17 6
M  V30 19 1 18 7
M  V30 20 1 19 7
M  V30 21 1 8 20 CFG=1
M  V30 END BOND
M  V30 END CTAB
M  END
>  <i_epik_Tot_Q>  (1) 
0

>  <i_epik_Tot_abs_Q>  (1) 
0

>  <i_i_glide_confnum>  (1) 
1

>  <i_i_glide_lignum>  (1) 
35

>  <i_i_glide_posenum>  (1) 
80

>  <i_i_glide_rotatable_bonds>  (1) 
0

>  <i_lp_mmshare_version>  (1) 
72125

>  <i_m_source_file_index>  (1) 
32

>  <i_f3d_flags>  (1) 
0

>  <num_sample>  (1) 
100

>  <b_lp_Chiralities_Consistent>  (1) 
1

>  <r_epik_Charging_Adjusted_Penalty>  (1) 
0

>  <r_epik_Ionization_Penalty>  (1) 
2.3587344998035955e-11

>  <r_epik_Ionization_Penalty_Charging>  (1) 
0

>  <r_epik_Ionization_Penalty_Neutral>  (1) 
2.3587344998035955e-11

>  <r_epik_State_Penalty>  (1) 
-0

>  <r_glide_ring_energy>  (1) 
0

>  <r_i_docking_score>  (1) 
-4.6121890616854087

>  <r_i_glide_ecoul>  (1) 
-0.065906392072436398

>  <r_i_glide_eff_state_penalty>  (1) 
-0

>  <r_i_glide_einternal>  (1) 
0

>  <r_i_glide_emodel>  (1) 
-17.422010995640825

>  <r_i_glide_emodel_strain>  (1) 
0.21966472247655133

>  <r_i_glide_energy>  (1) 
-13.397001994260679

>  <r_i_glide_erotb>  (1) 
0

>  <r_i_glide_esite>  (1) 
0

>  <r_i_glide_evdw>  (1) 
-13.331095602188242

>  <r_i_glide_gscore>  (1) 
-4.6121890616854087

>  <r_i_glide_gscore_strain>  (1) 
0

>  <r_i_glide_hbond>  (1) 
0

>  <r_i_glide_ligand_efficiency>  (1) 
-0.57652363271067608

>  <r_i_glide_ligand_efficiency_ln>  (1) 
-1.4977355469360392

>  <r_i_glide_ligand_efficiency_sa>  (1) 
-1.1530472654213524

>  <r_i_glide_lipo>  (1) 
-1.1293685963832463

>  <r_i_glide_metal>  (1) 
-0

>  <r_i_glide_rewards>  (1) 
-2.8063797263818855

>  <r_lp_Energy>  (1) 
15.613807

>  <r_lp_tautomer_probability>  (1) 
1

>  <s_epik_cmdline>  (1) 
J2VwaWtfcHl0aG9uJywgJy1waHQnLCAnMS4wJywgJy1waCcsICc3LjQnLCAnLXRuJywgJzgnLCAnLW1hJywgJzUwMCcsICctaW1hZScsICc8aW5maWxlLm1hZT4nLCAnLW9tYWUnLCAnPG91dGZpbGUubWFlPic=

>  <s_epik_input>  (1) 
TzFbQ0gyXVtDSDJdW0NASF0oW0NAXTEyW0NIM10pW0NIMl1bQ0gyXTI=

>  <s_glide_docking_method>  (1) 
confgen

>  <s_i_glide_gridfile>  (1) 
gpcr_drd2_6luq_protein_autoprepared_prepared

>  <s_lp_Force_Field>  (1) 
S-OPLS

>  <s_lp_Variant>  (1) 
Pocket2Mol_31-1

>  <s_m_source_file>  (1) 
generated_generic_title2_ligand_Pocket2Mol_2026-06-23_prepared.sdf

>  <GenAI_Model>  (1) 
Pocket2Mol

>  <Protein>  (1) 
generic_title2

$$$$
Pocket2Mol_30
     RDKit          3D

  0  0  0  0  0  0  0  0  0  0999 V3000
M  V30 BEGIN CTAB
M  V30 COUNTS 14 14 0 0 1
M  V30 BEGIN ATOM
M  V30 1 N 11.070255 8.737460 -5.972533 0
M  V30 2 C 11.768560 9.588302 -5.193585 0
M  V30 3 C 12.346584 9.190235 -3.985462 0
M  V30 4 C 12.175306 7.861921 -3.608295 0
M  V30 5 O 12.703250 7.393621 -2.424508 0
M  V30 6 C 10.975409 7.481983 -5.501901 0
M  V30 7 N 11.484776 6.973400 -4.366447 0
M  V30 8 C 12.422388 6.059118 -2.028353 0
M  V30 9 H 11.861402 10.605406 -5.544190 0
M  V30 10 H 12.899775 9.882484 -3.368693 0
M  V30 11 H 10.419125 6.790813 -6.117050 0
M  V30 12 H 12.980525 5.819256 -1.127721 0
M  V30 13 H 11.359708 5.929419 -1.819810 0
M  V30 14 H 12.735568 5.345633 -2.785022 0
M  V30 END ATOM
M  V30 BEGIN BOND
M  V30 1 1 2 1
M  V30 2 2 3 2
M  V30 3 1 4 3
M  V30 4 1 5 4
M  V30 5 2 6 1
M  V30 6 2 7 4
M  V30 7 1 7 6
M  V30 8 1 8 5
M  V30 9 1 9 2
M  V30 10 1 10 3
M  V30 11 1 11 6
M  V30 12 1 12 8
M  V30 13 1 13 8
M  V30 14 1 14 8
M  V30 END BOND
M  V30 END CTAB
M  END
>  <i_epik_Tot_Q>  (1) 
0

>  <i_epik_Tot_abs_Q>  (1) 
0

>  <i_i_glide_confnum>  (1) 
1

>  <i_i_glide_lignum>  (1) 
34

>  <i_i_glide_posenum>  (1) 
332

>  <i_i_glide_rotatable_bonds>  (1) 
1

>  <i_lp_mmshare_version>  (1) 
72125

>  <i_m_source_file_index>  (1) 
31

>  <i_f3d_flags>  (1) 
0

>  <num_sample>  (1) 
100

>  <b_lp_Chiralities_Consistent>  (1) 
1

>  <r_epik_Charging_Adjusted_Penalty>  (1) 
0

>  <r_epik_Ionization_Penalty>  (1) 
8.6638422661064201e-06

>  <r_epik_Ionization_Penalty_Charging>  (1) 
0

>  <r_epik_Ionization_Penalty_Neutral>  (1) 
8.6638422661064201e-06

>  <r_epik_State_Penalty>  (1) 
-0

>  <r_glide_ring_energy>  (1) 
0

>  <r_i_docking_score>  (1) 
-4.6055229034706269

>  <r_i_glide_ecoul>  (1) 
-0.1389955483183456

>  <r_i_glide_eff_state_penalty>  (1) 
-0

>  <r_i_glide_einternal>  (1) 
0.0164721031962628

>  <r_i_glide_emodel>  (1) 
-24.067742312189278

>  <r_i_glide_emodel_strain>  (1) 
0

>  <r_i_glide_energy>  (1) 
-18.355254923660773

>  <r_i_glide_erotb>  (1) 
0

>  <r_i_glide_esite>  (1) 
0

>  <r_i_glide_evdw>  (1) 
-18.216259375342428

>  <r_i_glide_gscore>  (1) 
-4.6055229034706269

>  <r_i_glide_gscore_strain>  (1) 
0

>  <r_i_glide_hbond>  (1) 
0

>  <r_i_glide_ligand_efficiency>  (1) 
-0.57569036293382836

>  <r_i_glide_ligand_efficiency_ln>  (1) 
-1.4955708173496658

>  <r_i_glide_ligand_efficiency_sa>  (1) 
-1.1513807258676569

>  <r_i_glide_lipo>  (1) 
-1.0992656211953822

>  <r_i_glide_metal>  (1) 
-0

>  <r_i_glide_rewards>  (1) 
-2.5745949812603723

>  <r_lp_Energy>  (1) 
14.393509

>  <r_lp_tautomer_probability>  (1) 
1

>  <s_epik_cmdline>  (1) 
J2VwaWtfcHl0aG9uJywgJy1waHQnLCAnMS4wJywgJy1waCcsICc3LjQnLCAnLXRuJywgJzgnLCAnLW1hJywgJzUwMCcsICctaW1hZScsICc8aW5maWxlLm1hZT4nLCAnLW9tYWUnLCAnPG91dGZpbGUubWFlPic=

>  <s_epik_input>  (1) 
bjFbY0hdbltjSF1bY0hdYzFPW0NIM10=

>  <s_glide_docking_method>  (1) 
confgen

>  <s_i_glide_gridfile>  (1) 
gpcr_drd2_6luq_protein_autoprepared_prepared

>  <s_lp_Force_Field>  (1) 
S-OPLS

>  <s_lp_Variant>  (1) 
Pocket2Mol_30-1

>  <s_m_source_file>  (1) 
generated_generic_title2_ligand_Pocket2Mol_2026-06-23_prepared.sdf

>  <GenAI_Model>  (1) 
Pocket2Mol

>  <Protein>  (1) 
generic_title2

$$$$
Pocket2Mol_25
     RDKit          3D

  0  0  0  0  0  0  0  0  0  0999 V3000
M  V30 BEGIN CTAB
M  V30 COUNTS 15 15 0 0 1
M  V30 BEGIN ATOM
M  V30 1 N 11.492475 7.827661 -9.451168 0 CHG=1
M  V30 2 C 11.345713 7.901561 -8.090495 0
M  V30 3 C 9.998812 7.809437 -7.823059 0
M  V30 4 C 10.292727 7.694908 -10.016727 0
M  V30 5 C 9.241992 7.829195 -6.538417 0
M  V30 6 N 10.048363 7.592804 -11.322125 0
M  V30 7 N 9.380570 7.682496 -9.042819 0
M  V30 8 H 12.190409 8.011855 -7.425030 0
M  V30 9 H 9.925679 7.937621 -5.695827 0
M  V30 10 H 8.540941 8.664261 -6.523769 0
M  V30 11 H 8.683590 6.901077 -6.412618 0
M  V30 12 H 10.781427 7.608297 -12.017924 0
M  V30 13 H 9.114700 7.493717 -11.696662 0
M  V30 14 H 8.381648 7.592704 -9.185039 0
M  V30 15 H 12.372493 7.867403 -9.950311 0
M  V30 END ATOM
M  V30 BEGIN BOND
M  V30 1 1 2 1
M  V30 2 2 3 2
M  V30 3 2 4 1
M  V30 4 1 5 3
M  V30 5 1 6 4
M  V30 6 1 7 3
M  V30 7 1 7 4
M  V30 8 1 8 2
M  V30 9 1 9 5
M  V30 10 1 10 5
M  V30 11 1 11 5
M  V30 12 1 12 6
M  V30 13 1 13 6
M  V30 14 1 14 7
M  V30 15 1 15 1
M  V30 END BOND
M  V30 END CTAB
M  END
>  <i_epik_Tot_Q>  (1) 
1

>  <i_epik_Tot_abs_Q>  (1) 
1

>  <i_i_glide_confnum>  (1) 
1

>  <i_i_glide_lignum>  (1) 
29

>  <i_i_glide_posenum>  (1) 
137

>  <i_i_glide_rotatable_bonds>  (1) 
0

>  <i_lp_mmshare_version>  (1) 
72125

>  <i_m_source_file_index>  (1) 
26

>  <i_f3d_flags>  (1) 
0

>  <num_sample>  (1) 
100

>  <b_lp_Chiralities_Consistent>  (1) 
1

>  <r_epik_Charging_Adjusted_Penalty>  (1) 
0.028937443406262361

>  <r_epik_Ionization_Penalty>  (1) 
0.025358402846536118

>  <r_epik_Ionization_Penalty_Charging>  (1) 
0

>  <r_epik_Ionization_Penalty_Neutral>  (1) 
0.025358402846536118

>  <r_epik_State_Penalty>  (1) 
0.028937443406262361

>  <r_glide_ring_energy>  (1) 
0

>  <r_i_docking_score>  (1) 
-4.60217402209482

>  <r_i_glide_ecoul>  (1) 
-9.2543437076080615

>  <r_i_glide_eff_state_penalty>  (1) 
0.028937443406262361

>  <r_i_glide_einternal>  (1) 
0

>  <r_i_glide_emodel>  (1) 
-27.207377344874065

>  <r_i_glide_emodel_strain>  (1) 
0

>  <r_i_glide_energy>  (1) 
-18.051874145673409

>  <r_i_glide_erotb>  (1) 
0

>  <r_i_glide_esite>  (1) 
-0.19715908027097206

>  <r_i_glide_evdw>  (1) 
-8.7975304380653458

>  <r_i_glide_gscore>  (1) 
-4.6311114655010819

>  <r_i_glide_gscore_strain>  (1) 
0

>  <r_i_glide_hbond>  (1) 
-0.17124509861053644

>  <r_i_glide_ligand_efficiency>  (1) 
-0.65745343172783144

>  <r_i_glide_ligand_efficiency_ln>  (1) 
-1.5622248436771342

>  <r_i_glide_ligand_efficiency_sa>  (1) 
-1.2576631707728867

>  <r_i_glide_lipo>  (1) 
-0.18467920857509695

>  <r_i_glide_metal>  (1) 
-0

>  <r_i_glide_rewards>  (1) 
-2.25

>  <r_lp_Energy>  (1) 
-0.73901799999999995

>  <r_lp_tautomer_probability>  (1) 
0.99999998112300037

>  <s_epik_cmdline>  (1) 
J2VwaWtfcHl0aG9uJywgJy1waHQnLCAnMS4wJywgJy1waCcsICc3LjQnLCAnLXRuJywgJzgnLCAnLW1hJywgJzUwMCcsICctaW1hZScsICc8aW5maWxlLm1hZT4nLCAnLW9tYWUnLCAnPG91dGZpbGUubWFlPic=

>  <s_epik_input>  (1) 
W05IMl1jKFtuSF0xKW5bY0hdYzFbQ0gzXQ==

>  <s_glide_docking_method>  (1) 
confgen

>  <s_i_glide_gridfile>  (1) 
gpcr_drd2_6luq_protein_autoprepared_prepared

>  <s_lp_Force_Field>  (1) 
S-OPLS

>  <s_lp_Variant>  (1) 
Pocket2Mol_25-1

>  <s_m_source_file>  (1) 
generated_generic_title2_ligand_Pocket2Mol_2026-06-23_prepared.sdf

>  <GenAI_Model>  (1) 
Pocket2Mol

>  <Protein>  (1) 
generic_title2

$$$$
Pocket2Mol_10
     RDKit          3D

  0  0  0  0  0  0  0  0  0  0999 V3000
M  V30 BEGIN CTAB
M  V30 COUNTS 12 12 0 0 1
M  V30 BEGIN ATOM
M  V30 1 O 11.375261 8.140264 -5.178492 0
M  V30 2 C 11.536922 7.039799 -4.384921 0
M  V30 3 C 11.924960 9.176745 -4.492615 0
M  V30 4 C 12.175409 7.357257 -3.210974 0
M  V30 5 C 12.522309 6.429748 -2.076638 0
M  V30 6 C 12.425028 8.757787 -3.294348 0
M  V30 7 H 11.141747 6.120649 -4.794772 0
M  V30 8 H 11.876904 10.133971 -4.991212 0
M  V30 9 H 12.975210 6.987424 -1.257668 0
M  V30 10 H 11.615142 5.954001 -1.702581 0
M  V30 11 H 13.217609 5.649626 -2.385138 0
M  V30 12 H 12.909975 9.384357 -2.559983 0
M  V30 END ATOM
M  V30 BEGIN BOND
M  V30 1 1 2 1
M  V30 2 1 3 1
M  V30 3 2 4 2
M  V30 4 1 5 4
M  V30 5 2 6 3
M  V30 6 1 6 4
M  V30 7 1 7 2
M  V30 8 1 8 3
M  V30 9 1 9 5
M  V30 10 1 10 5
M  V30 11 1 11 5
M  V30 12 1 12 6
M  V30 END BOND
M  V30 END CTAB
M  END
>  <i_epik_Tot_Q>  (1) 
0

>  <i_epik_Tot_abs_Q>  (1) 
0

>  <i_i_glide_confnum>  (1) 
1

>  <i_i_glide_lignum>  (1) 
13

>  <i_i_glide_posenum>  (1) 
6

>  <i_i_glide_rotatable_bonds>  (1) 
0

>  <i_lp_mmshare_version>  (1) 
72125

>  <i_m_source_file_index>  (1) 
11

>  <i_f3d_flags>  (1) 
0

>  <num_sample>  (1) 
100

>  <b_lp_Chiralities_Consistent>  (1) 
1

>  <r_epik_Charging_Adjusted_Penalty>  (1) 
0

>  <r_epik_Ionization_Penalty>  (1) 
0

>  <r_epik_Ionization_Penalty_Charging>  (1) 
0

>  <r_epik_Ionization_Penalty_Neutral>  (1) 
0

>  <r_epik_State_Penalty>  (1) 
-0

>  <r_glide_ring_energy>  (1) 
0

>  <r_i_docking_score>  (1) 
-4.5860983921741774

>  <r_i_glide_ecoul>  (1) 
-0.92118857361483431

>  <r_i_glide_eff_state_penalty>  (1) 
-0

>  <r_i_glide_einternal>  (1) 
0

>  <r_i_glide_emodel>  (1) 
-18.782539971484912

>  <r_i_glide_emodel_strain>  (1) 
0

>  <r_i_glide_energy>  (1) 
-14.515781908553551

>  <r_i_glide_erotb>  (1) 
0

>  <r_i_glide_esite>  (1) 
0

>  <r_i_glide_evdw>  (1) 
-13.594593334938716

>  <r_i_glide_gscore>  (1) 
-4.5860983921741774

>  <r_i_glide_gscore_strain>  (1) 
0

>  <r_i_glide_hbond>  (1) 
0

>  <r_i_glide_ligand_efficiency>  (1) 
-0.76434973202902956

>  <r_i_glide_ligand_efficiency_ln>  (1) 
-1.6427269049228916

>  <r_i_glide_ligand_efficiency_sa>  (1) 
-1.3889156381956775

>  <r_i_glide_lipo>  (1) 
-1.3372938852091332

>  <r_i_glide_metal>  (1) 
-0

>  <r_i_glide_rewards>  (1) 
-2.4308965541758831

>  <r_lp_Energy>  (1) 
-1.206345

>  <r_lp_tautomer_probability>  (1) 
1

>  <s_epik_cmdline>  (1) 
J2VwaWtfcHl0aG9uJywgJy1waHQnLCAnMS4wJywgJy1waCcsICc3LjQnLCAnLXRuJywgJzgnLCAnLW1hJywgJzUwMCcsICctaW1hZScsICc8aW5maWxlLm1hZT4nLCAnLW9tYWUnLCAnPG91dGZpbGUubWFlPic=

>  <s_epik_input>  (1) 
W2NIXTFbY0hdb1tjSF1jMVtDSDNd

>  <s_glide_docking_method>  (1) 
confgen

>  <s_i_glide_gridfile>  (1) 
gpcr_drd2_6luq_protein_autoprepared_prepared

>  <s_lp_Force_Field>  (1) 
S-OPLS

>  <s_lp_Variant>  (1) 
Pocket2Mol_10-1

>  <s_m_source_file>  (1) 
generated_generic_title2_ligand_Pocket2Mol_2026-06-23_prepared.sdf

>  <GenAI_Model>  (1) 
Pocket2Mol

>  <Protein>  (1) 
generic_title2

$$$$
Pocket2Mol_10
     RDKit          3D

  0  0  0  0  0  0  0  0  0  0999 V3000
M  V30 BEGIN CTAB
M  V30 COUNTS 12 12 0 0 1
M  V30 BEGIN ATOM
M  V30 1 O 11.775003 6.702590 -3.763290 0
M  V30 2 C 11.375408 7.514915 -4.785025 0
M  V30 3 C 12.435324 7.502647 -2.887936 0
M  V30 4 C 11.775406 8.811168 -4.579242 0
M  V30 5 C 11.531318 9.996760 -5.472294 0
M  V30 6 C 12.467951 8.790136 -3.334515 0
M  V30 7 H 10.823631 7.019756 -5.571460 0
M  V30 8 H 12.816908 7.004642 -2.008963 0
M  V30 9 H 11.015306 10.786311 -4.924753 0
M  V30 10 H 12.475711 10.390227 -5.848283 0
M  V30 11 H 10.915483 9.712854 -6.325967 0
M  V30 12 H 12.933597 9.620531 -2.825690 0
M  V30 END ATOM
M  V30 BEGIN BOND
M  V30 1 1 2 1
M  V30 2 1 3 1
M  V30 3 2 4 2
M  V30 4 1 5 4
M  V30 5 2 6 3
M  V30 6 1 6 4
M  V30 7 1 7 2
M  V30 8 1 8 3
M  V30 9 1 9 5
M  V30 10 1 10 5
M  V30 11 1 11 5
M  V30 12 1 12 6
M  V30 END BOND
M  V30 END CTAB
M  END
>  <i_epik_Tot_Q>  (1) 
0

>  <i_epik_Tot_abs_Q>  (1) 
0

>  <i_i_glide_confnum>  (1) 
1

>  <i_i_glide_lignum>  (1) 
13

>  <i_i_glide_posenum>  (1) 
60

>  <i_i_glide_rotatable_bonds>  (1) 
0

>  <i_lp_mmshare_version>  (1) 
72125

>  <i_m_source_file_index>  (1) 
11

>  <i_f3d_flags>  (1) 
0

>  <num_sample>  (1) 
100

>  <b_lp_Chiralities_Consistent>  (1) 
1

>  <r_epik_Charging_Adjusted_Penalty>  (1) 
0

>  <r_epik_Ionization_Penalty>  (1) 
0

>  <r_epik_Ionization_Penalty_Charging>  (1) 
0

>  <r_epik_Ionization_Penalty_Neutral>  (1) 
0

>  <r_epik_State_Penalty>  (1) 
-0

>  <r_glide_ring_energy>  (1) 
0

>  <r_i_docking_score>  (1) 
-4.5849444641636774

>  <r_i_glide_ecoul>  (1) 
-0.34369148164998609

>  <r_i_glide_eff_state_penalty>  (1) 
-0

>  <r_i_glide_einternal>  (1) 
0

>  <r_i_glide_emodel>  (1) 
-18.726546643571499

>  <r_i_glide_emodel_strain>  (1) 
0.002021614475825384

>  <r_i_glide_energy>  (1) 
-14.46288377252792

>  <r_i_glide_erotb>  (1) 
0

>  <r_i_glide_esite>  (1) 
0

>  <r_i_glide_evdw>  (1) 
-14.119192290877935

>  <r_i_glide_gscore>  (1) 
-4.5849444641636774

>  <r_i_glide_gscore_strain>  (1) 
0

>  <r_i_glide_hbond>  (1) 
0

>  <r_i_glide_ligand_efficiency>  (1) 
-0.76415741069394627

>  <r_i_glide_ligand_efficiency_ln>  (1) 
-1.6423135713161754

>  <r_i_glide_ligand_efficiency_sa>  (1) 
-1.3885661671372567

>  <r_i_glide_lipo>  (1) 
-1.3759469777016051

>  <r_i_glide_metal>  (1) 
-0

>  <r_i_glide_rewards>  (1) 
-2.451484149670677

>  <r_lp_Energy>  (1) 
-1.206345

>  <r_lp_tautomer_probability>  (1) 
1

>  <s_epik_cmdline>  (1) 
J2VwaWtfcHl0aG9uJywgJy1waHQnLCAnMS4wJywgJy1waCcsICc3LjQnLCAnLXRuJywgJzgnLCAnLW1hJywgJzUwMCcsICctaW1hZScsICc8aW5maWxlLm1hZT4nLCAnLW9tYWUnLCAnPG91dGZpbGUubWFlPic=

>  <s_epik_input>  (1) 
W2NIXTFbY0hdb1tjSF1jMVtDSDNd

>  <s_glide_docking_method>  (1) 
confgen

>  <s_i_glide_gridfile>  (1) 
gpcr_drd2_6luq_protein_autoprepared_prepared

>  <s_lp_Force_Field>  (1) 
S-OPLS

>  <s_lp_Variant>  (1) 
Pocket2Mol_10-1

>  <s_m_source_file>  (1) 
generated_generic_title2_ligand_Pocket2Mol_2026-06-23_prepared.sdf

>  <GenAI_Model>  (1) 
Pocket2Mol

>  <Protein>  (1) 
generic_title2

$$$$
Pocket2Mol_25
     RDKit          3D

  0  0  0  0  0  0  0  0  0  0999 V3000
M  V30 BEGIN CTAB
M  V30 COUNTS 15 15 0 0 1
M  V30 BEGIN ATOM
M  V30 1 N 11.399476 7.945623 -8.474882 0 CHG=1
M  V30 2 C 11.463176 7.963279 -9.845744 0
M  V30 3 C 10.165796 7.813895 -10.308106 0
M  V30 4 C 10.139980 7.794886 -8.094297 0
M  V30 5 C 9.610035 7.758929 -11.686107 0
M  V30 6 N 9.705959 7.735314 -6.827268 0
M  V30 7 N 9.385109 7.713486 -9.177946 0
M  V30 8 H 12.388729 8.075534 -10.384619 0
M  V30 9 H 10.407307 7.857251 -12.422951 0
M  V30 10 H 9.102627 6.808371 -11.852422 0
M  V30 11 H 8.896187 8.568689 -11.839639 0
M  V30 12 H 10.327746 7.801907 -6.036816 0
M  V30 13 H 8.728814 7.618362 -6.594802 0
M  V30 14 H 8.363261 7.594634 -9.185044 0
M  V30 15 H 12.198175 8.034641 -7.856384 0
M  V30 END ATOM
M  V30 BEGIN BOND
M  V30 1 1 2 1
M  V30 2 2 3 2
M  V30 3 2 4 1
M  V30 4 1 5 3
M  V30 5 1 6 4
M  V30 6 1 7 3
M  V30 7 1 7 4
M  V30 8 1 8 2
M  V30 9 1 9 5
M  V30 10 1 10 5
M  V30 11 1 11 5
M  V30 12 1 12 6
M  V30 13 1 13 6
M  V30 14 1 14 7
M  V30 15 1 15 1
M  V30 END BOND
M  V30 END CTAB
M  END
>  <i_epik_Tot_Q>  (1) 
1

>  <i_epik_Tot_abs_Q>  (1) 
1

>  <i_i_glide_confnum>  (1) 
1

>  <i_i_glide_lignum>  (1) 
29

>  <i_i_glide_posenum>  (1) 
163

>  <i_i_glide_rotatable_bonds>  (1) 
0

>  <i_lp_mmshare_version>  (1) 
72125

>  <i_m_source_file_index>  (1) 
26

>  <i_f3d_flags>  (1) 
0

>  <num_sample>  (1) 
100

>  <b_lp_Chiralities_Consistent>  (1) 
1

>  <r_epik_Charging_Adjusted_Penalty>  (1) 
0.028937443406262361

>  <r_epik_Ionization_Penalty>  (1) 
0.025358402846536118

>  <r_epik_Ionization_Penalty_Charging>  (1) 
0

>  <r_epik_Ionization_Penalty_Neutral>  (1) 
0.025358402846536118

>  <r_epik_State_Penalty>  (1) 
0.028937443406262361

>  <r_glide_ring_energy>  (1) 
0

>  <r_i_docking_score>  (1) 
-4.5845264059386821

>  <r_i_glide_ecoul>  (1) 
-9.8668351077335217

>  <r_i_glide_eff_state_penalty>  (1) 
0.028937443406262361

>  <r_i_glide_einternal>  (1) 
0

>  <r_i_glide_emodel>  (1) 
-26.253843982696274

>  <r_i_glide_emodel_strain>  (1) 
0

>  <r_i_glide_energy>  (1) 
-17.133229342620012

>  <r_i_glide_erotb>  (1) 
0

>  <r_i_glide_esite>  (1) 
-0.17887826452011737

>  <r_i_glide_evdw>  (1) 
-7.2663942348864907

>  <r_i_glide_gscore>  (1) 
-4.613463849344944

>  <r_i_glide_gscore_strain>  (1) 
0

>  <r_i_glide_hbond>  (1) 
-0.16211400241137236

>  <r_i_glide_ligand_efficiency>  (1) 
-0.654932343705526

>  <r_i_glide_ligand_efficiency_ln>  (1) 
-1.5562342956755948

>  <r_i_glide_ligand_efficiency_sa>  (1) 
-1.2528405028805047

>  <r_i_glide_lipo>  (1) 
-0.17912660450910153

>  <r_i_glide_metal>  (1) 
-0

>  <r_i_glide_rewards>  (1) 
-2.25

>  <r_lp_Energy>  (1) 
-0.73901799999999995

>  <r_lp_tautomer_probability>  (1) 
0.99999998112300037

>  <s_epik_cmdline>  (1) 
J2VwaWtfcHl0aG9uJywgJy1waHQnLCAnMS4wJywgJy1waCcsICc3LjQnLCAnLXRuJywgJzgnLCAnLW1hJywgJzUwMCcsICctaW1hZScsICc8aW5maWxlLm1hZT4nLCAnLW9tYWUnLCAnPG91dGZpbGUubWFlPic=

>  <s_epik_input>  (1) 
W05IMl1jKFtuSF0xKW5bY0hdYzFbQ0gzXQ==

>  <s_glide_docking_method>  (1) 
confgen

>  <s_i_glide_gridfile>  (1) 
gpcr_drd2_6luq_protein_autoprepared_prepared

>  <s_lp_Force_Field>  (1) 
S-OPLS

>  <s_lp_Variant>  (1) 
Pocket2Mol_25-1

>  <s_m_source_file>  (1) 
generated_generic_title2_ligand_Pocket2Mol_2026-06-23_prepared.sdf

>  <GenAI_Model>  (1) 
Pocket2Mol

>  <Protein>  (1) 
generic_title2

$$$$
Pocket2Mol_17
     RDKit          3D

  0  0  0  0  0  0  0  0  0  0999 V3000
M  V30 BEGIN CTAB
M  V30 COUNTS 12 12 0 0 1
M  V30 BEGIN ATOM
M  V30 1 N 12.175412 7.748099 -3.210761 0
M  V30 2 C 11.574526 6.790227 -4.007345 0
M  V30 3 C 10.984520 7.067985 -5.189872 0
M  V30 4 C 10.975411 8.474880 -5.677869 0
M  V30 5 O 10.457604 8.790202 -6.745614 0
M  V30 6 C 12.181366 9.065248 -3.632370 0
M  V30 7 C 11.630224 9.477876 -4.793558 0
M  V30 8 H 11.614083 5.790708 -3.599899 0
M  V30 9 H 10.520818 6.298021 -5.789074 0
M  V30 10 H 12.599455 7.489748 -2.330200 0
M  V30 11 H 12.669177 9.744350 -2.947877 0
M  V30 12 H 11.649968 10.514072 -5.096571 0
M  V30 END ATOM
M  V30 BEGIN BOND
M  V30 1 1 2 1
M  V30 2 2 3 2
M  V30 3 1 4 3
M  V30 4 2 5 4
M  V30 5 1 6 1
M  V30 6 1 7 4
M  V30 7 2 7 6
M  V30 8 1 8 2
M  V30 9 1 9 3
M  V30 10 1 10 1
M  V30 11 1 11 6
M  V30 12 1 12 7
M  V30 END BOND
M  V30 END CTAB
M  END
>  <i_epik_Tot_Q>  (1) 
0

>  <i_epik_Tot_abs_Q>  (1) 
0

>  <i_i_glide_confnum>  (1) 
1

>  <i_i_glide_lignum>  (1) 
20

>  <i_i_glide_posenum>  (1) 
363

>  <i_i_glide_rotatable_bonds>  (1) 
0

>  <i_lp_mmshare_version>  (1) 
72125

>  <i_m_source_file_index>  (1) 
18

>  <i_f3d_flags>  (1) 
0

>  <num_sample>  (1) 
100

>  <b_lp_Chiralities_Consistent>  (1) 
1

>  <r_epik_Charging_Adjusted_Penalty>  (1) 
0.00011828912318149299

>  <r_epik_Ionization_Penalty>  (1) 
0.00011828912318149299

>  <r_epik_Ionization_Penalty_Charging>  (1) 
0.00011828912318149299

>  <r_epik_Ionization_Penalty_Neutral>  (1) 
0

>  <r_epik_State_Penalty>  (1) 
-0

>  <r_glide_ring_energy>  (1) 
0

>  <r_i_docking_score>  (1) 
-4.5817560735359066

>  <r_i_glide_ecoul>  (1) 
-0.40613161451623558

>  <r_i_glide_eff_state_penalty>  (1) 
-0

>  <r_i_glide_einternal>  (1) 
0

>  <r_i_glide_emodel>  (1) 
-23.022840830415973

>  <r_i_glide_emodel_strain>  (1) 
0

>  <r_i_glide_energy>  (1) 
-17.333294788606523

>  <r_i_glide_erotb>  (1) 
0

>  <r_i_glide_esite>  (1) 
0

>  <r_i_glide_evdw>  (1) 
-16.927163174090285

>  <r_i_glide_gscore>  (1) 
-4.5817560735359066

>  <r_i_glide_gscore_strain>  (1) 
0

>  <r_i_glide_hbond>  (1) 
0

>  <r_i_glide_ligand_efficiency>  (1) 
-0.6545365819337009

>  <r_i_glide_ligand_efficiency_ln>  (1) 
-1.5552938961852492

>  <r_i_glide_ligand_efficiency_sa>  (1) 
-1.2520834378462313

>  <r_i_glide_lipo>  (1) 
-1.4244781726539568

>  <r_i_glide_metal>  (1) 
-0

>  <r_i_glide_rewards>  (1) 
-2.25

>  <r_lp_Energy>  (1) 
8.1847359999999991

>  <r_lp_tautomer_probability>  (1) 
1

>  <s_epik_cmdline>  (1) 
J2VwaWtfcHl0aG9uJywgJy1waHQnLCAnMS4wJywgJy1waCcsICc3LjQnLCAnLXRuJywgJzgnLCAnLW1hJywgJzUwMCcsICctaW1hZScsICc8aW5maWxlLm1hZT4nLCAnLW9tYWUnLCAnPG91dGZpbGUubWFlPic=

>  <s_epik_input>  (1) 
W2NIXTFbY0hdbltjSF1bY0hdYzFbT0hd

>  <s_glide_docking_method>  (1) 
confgen

>  <s_i_glide_gridfile>  (1) 
gpcr_drd2_6luq_protein_autoprepared_prepared

>  <s_lp_Force_Field>  (1) 
S-OPLS

>  <s_lp_Variant>  (1) 
Pocket2Mol_17-1

>  <s_m_source_file>  (1) 
generated_generic_title2_ligand_Pocket2Mol_2026-06-23_prepared.sdf

>  <GenAI_Model>  (1) 
Pocket2Mol

>  <Protein>  (1) 
generic_title2

$$$$
Pocket2Mol_44
     RDKit          3D

  0  0  0  0  0  0  0  0  0  0999 V3000
M  V30 BEGIN CTAB
M  V30 COUNTS 8 8 0 0 1
M  V30 BEGIN ATOM
M  V30 1 N 11.686539 7.978499 -4.625639 0
M  V30 2 C 12.175866 8.981266 -3.780842 0
M  V30 3 C 12.493980 8.506382 -2.523896 0
M  V30 4 C 11.636328 6.790234 -4.035779 0
M  V30 5 S 12.175412 6.790227 -2.385026 0
M  V30 6 H 12.265379 9.990228 -4.149390 0
M  V30 7 H 12.889741 9.057434 -1.681878 0
M  V30 8 H 11.274467 5.923357 -4.570427 0
M  V30 END ATOM
M  V30 BEGIN BOND
M  V30 1 1 2 1
M  V30 2 2 3 2
M  V30 3 2 4 1
M  V30 4 1 5 3
M  V30 5 1 5 4
M  V30 6 1 6 2
M  V30 7 1 7 3
M  V30 8 1 8 4
M  V30 END BOND
M  V30 END CTAB
M  END
>  <i_epik_Tot_Q>  (1) 
0

>  <i_epik_Tot_abs_Q>  (1) 
0

>  <i_i_glide_confnum>  (1) 
1

>  <i_i_glide_lignum>  (1) 
49

>  <i_i_glide_posenum>  (1) 
65

>  <i_i_glide_rotatable_bonds>  (1) 
0

>  <i_lp_mmshare_version>  (1) 
72125

>  <i_m_source_file_index>  (1) 
45

>  <i_f3d_flags>  (1) 
0

>  <num_sample>  (1) 
100

>  <b_lp_Chiralities_Consistent>  (1) 
1

>  <r_epik_Charging_Adjusted_Penalty>  (1) 
0

>  <r_epik_Ionization_Penalty>  (1) 
1.4882382677604034e-05

>  <r_epik_Ionization_Penalty_Charging>  (1) 
0

>  <r_epik_Ionization_Penalty_Neutral>  (1) 
1.4882382677604034e-05

>  <r_epik_State_Penalty>  (1) 
-0

>  <r_glide_ring_energy>  (1) 
0

>  <r_i_docking_score>  (1) 
-4.5801769704643407

>  <r_i_glide_ecoul>  (1) 
-1.6958140145673191

>  <r_i_glide_eff_state_penalty>  (1) 
-0

>  <r_i_glide_einternal>  (1) 
0

>  <r_i_glide_emodel>  (1) 
-20.160620079568591

>  <r_i_glide_emodel_strain>  (1) 
0

>  <r_i_glide_energy>  (1) 
-15.472029092276594

>  <r_i_glide_erotb>  (1) 
0

>  <r_i_glide_esite>  (1) 
0

>  <r_i_glide_evdw>  (1) 
-13.776215077709276

>  <r_i_glide_gscore>  (1) 
-4.5801769704643407

>  <r_i_glide_gscore_strain>  (1) 
0

>  <r_i_glide_hbond>  (1) 
0

>  <r_i_glide_ligand_efficiency>  (1) 
-0.91603539409286816

>  <r_i_glide_ligand_efficiency_ln>  (1) 
-1.7552350828657663

>  <r_i_glide_ligand_efficiency_sa>  (1) 
-1.5663984902033135

>  <r_i_glide_lipo>  (1) 
-1.2067806147306539

>  <r_i_glide_metal>  (1) 
-0

>  <r_i_glide_rewards>  (1) 
-2.4302134996631248

>  <r_lp_Energy>  (1) 
1.6688799999999999

>  <r_lp_tautomer_probability>  (1) 
1

>  <s_epik_cmdline>  (1) 
J2VwaWtfcHl0aG9uJywgJy1waHQnLCAnMS4wJywgJy1waCcsICc3LjQnLCAnLXRuJywgJzgnLCAnLW1hJywgJzUwMCcsICctaW1hZScsICc8aW5maWxlLm1hZT4nLCAnLW9tYWUnLCAnPG91dGZpbGUubWFlPic=

>  <s_epik_input>  (1) 
bjFbY0hdW2NIXXNbY0hdMQ==

>  <s_glide_docking_method>  (1) 
confgen

>  <s_i_glide_gridfile>  (1) 
gpcr_drd2_6luq_protein_autoprepared_prepared

>  <s_lp_Force_Field>  (1) 
S-OPLS

>  <s_lp_Variant>  (1) 
Pocket2Mol_44-1

>  <s_m_source_file>  (1) 
generated_generic_title2_ligand_Pocket2Mol_2026-06-23_prepared.sdf

>  <GenAI_Model>  (1) 
Pocket2Mol

>  <Protein>  (1) 
generic_title2

$$$$
Pocket2Mol_5
     RDKit          3D

  0  0  0  0  0  0  0  0  0  0999 V3000
M  V30 BEGIN CTAB
M  V30 COUNTS 16 16 0 0 1
M  V30 BEGIN ATOM
M  V30 1 C 10.548821 7.076528 -5.585812 0
M  V30 2 O 11.375410 8.197522 -5.293322 0
M  V30 3 C 11.315291 9.212431 -6.289707 0
M  V30 4 C 11.791797 8.666015 -7.646313 0
M  V30 5 C 10.963053 7.442048 -8.045474 0
M  V30 6 C 10.975409 6.418837 -6.904795 0
M  V30 7 H 10.620014 6.359672 -4.767352 0
M  V30 8 H 9.506412 7.392911 -5.639953 0
M  V30 9 H 10.295296 9.590225 -6.366061 0
M  V30 10 H 11.941788 10.049507 -5.980499 0
M  V30 11 H 11.718296 9.436408 -8.414363 0
M  V30 12 H 12.845505 8.391652 -7.585014 0
M  V30 13 H 9.935515 7.744587 -8.255475 0
M  V30 14 H 11.352376 6.997685 -8.961674 0
M  V30 15 H 11.973837 5.996655 -6.785024 0
M  V30 16 H 10.309607 5.590231 -7.144901 0
M  V30 END ATOM
M  V30 BEGIN BOND
M  V30 1 1 2 1
M  V30 2 1 3 2
M  V30 3 1 4 3
M  V30 4 1 5 4
M  V30 5 1 6 1
M  V30 6 1 6 5
M  V30 7 1 7 1
M  V30 8 1 8 1
M  V30 9 1 9 3
M  V30 10 1 10 3
M  V30 11 1 11 4
M  V30 12 1 12 4
M  V30 13 1 13 5
M  V30 14 1 14 5
M  V30 15 1 15 6
M  V30 16 1 16 6
M  V30 END BOND
M  V30 END CTAB
M  END
>  <i_epik_Tot_Q>  (1) 
0

>  <i_epik_Tot_abs_Q>  (1) 
0

>  <i_i_glide_confnum>  (1) 
2

>  <i_i_glide_lignum>  (1) 
6

>  <i_i_glide_posenum>  (1) 
337

>  <i_i_glide_rotatable_bonds>  (1) 
0

>  <i_lp_mmshare_version>  (1) 
72125

>  <i_m_source_file_index>  (1) 
6

>  <i_f3d_flags>  (1) 
0

>  <num_sample>  (1) 
100

>  <b_lp_Chiralities_Consistent>  (1) 
1

>  <r_epik_Charging_Adjusted_Penalty>  (1) 
0

>  <r_epik_Ionization_Penalty>  (1) 
1.5229185111393156e-11

>  <r_epik_Ionization_Penalty_Charging>  (1) 
0

>  <r_epik_Ionization_Penalty_Neutral>  (1) 
1.5229185111393156e-11

>  <r_epik_State_Penalty>  (1) 
-0

>  <r_glide_ring_energy>  (1) 
0.00023819064548269558

>  <r_i_docking_score>  (1) 
-4.5577862548477919

>  <r_i_glide_ecoul>  (1) 
-0.71985406874925995

>  <r_i_glide_eff_state_penalty>  (1) 
-0

>  <r_i_glide_einternal>  (1) 
0

>  <r_i_glide_emodel>  (1) 
-19.041637618287496

>  <r_i_glide_emodel_strain>  (1) 
0

>  <r_i_glide_energy>  (1) 
-14.701721908448201

>  <r_i_glide_erotb>  (1) 
0

>  <r_i_glide_esite>  (1) 
0

>  <r_i_glide_evdw>  (1) 
-13.981867839698941

>  <r_i_glide_gscore>  (1) 
-4.5577862548477919

>  <r_i_glide_gscore_strain>  (1) 
0

>  <r_i_glide_hbond>  (1) 
0

>  <r_i_glide_ligand_efficiency>  (1) 
-0.75963104247463198

>  <r_i_glide_ligand_efficiency_ln>  (1) 
-1.6325855809161303

>  <r_i_glide_ligand_efficiency_sa>  (1) 
-1.3803412102351997

>  <r_i_glide_lipo>  (1) 
-1.1179570093325304

>  <r_i_glide_metal>  (1) 
-0

>  <r_i_glide_rewards>  (1) 
-2.6327577432179252

>  <r_lp_Energy>  (1) 
2.9645999999999999

>  <r_lp_tautomer_probability>  (1) 
1

>  <s_epik_cmdline>  (1) 
J2VwaWtfcHl0aG9uJywgJy1waHQnLCAnMS4wJywgJy1waCcsICc3LjQnLCAnLXRuJywgJzgnLCAnLW1hJywgJzUwMCcsICctaW1hZScsICc8aW5maWxlLm1hZT4nLCAnLW9tYWUnLCAnPG91dGZpbGUubWFlPic=

>  <s_epik_input>  (1) 
W0NIMl0xT1tDSDJdW0NIMl1bQ0gyXVtDSDJdMQ==

>  <s_glide_docking_method>  (1) 
confgen

>  <s_i_glide_gridfile>  (1) 
gpcr_drd2_6luq_protein_autoprepared_prepared

>  <s_lp_Force_Field>  (1) 
S-OPLS

>  <s_lp_Variant>  (1) 
Pocket2Mol_5-1

>  <s_m_source_file>  (1) 
generated_generic_title2_ligand_Pocket2Mol_2026-06-23_prepared.sdf

>  <GenAI_Model>  (1) 
Pocket2Mol

>  <Protein>  (1) 
generic_title2

$$$$
Pocket2Mol_8
     RDKit          3D

  0  0  0  0  0  0  0  0  0  0999 V3000
M  V30 BEGIN CTAB
M  V30 COUNTS 13 13 0 0 1
M  V30 BEGIN ATOM
M  V30 1 N 11.195369 8.295982 -5.683864 0
M  V30 2 C 11.375408 8.789742 -6.942964 0
M  V30 3 C 10.901098 8.047926 -7.900318 0
M  V30 4 C 10.574822 7.190236 -5.985023 0
M  V30 5 C 10.974989 8.376434 -9.376008 0
M  V30 6 C 10.247490 6.800925 -7.478085 0
M  V30 7 H 11.882404 9.734349 -7.072020 0
M  V30 8 H 10.247219 6.475341 -5.225257 0
M  V30 9 H 11.515048 7.595556 -9.911489 0
M  V30 10 H 9.969770 8.447542 -9.793500 0
M  V30 11 H 11.485520 9.324996 -9.545984 0
M  V30 12 H 10.766646 5.898713 -7.801568 0
M  V30 13 H 9.175491 6.778984 -7.681271 0
M  V30 END ATOM
M  V30 BEGIN BOND
M  V30 1 1 2 1
M  V30 2 2 3 2
M  V30 3 2 4 1
M  V30 4 1 5 3
M  V30 5 1 6 3
M  V30 6 1 6 4
M  V30 7 1 7 2
M  V30 8 1 8 4
M  V30 9 1 9 5
M  V30 10 1 10 5
M  V30 11 1 11 5
M  V30 12 1 12 6
M  V30 13 1 13 6
M  V30 END BOND
M  V30 END CTAB
M  END
>  <i_epik_Tot_Q>  (1) 
0

>  <i_epik_Tot_abs_Q>  (1) 
0

>  <i_i_glide_confnum>  (1) 
1

>  <i_i_glide_lignum>  (1) 
9

>  <i_i_glide_posenum>  (1) 
107

>  <i_i_glide_rotatable_bonds>  (1) 
0

>  <i_lp_mmshare_version>  (1) 
72125

>  <i_m_source_file_index>  (1) 
9

>  <i_f3d_flags>  (1) 
0

>  <num_sample>  (1) 
100

>  <b_lp_Chiralities_Consistent>  (1) 
1

>  <r_epik_Charging_Adjusted_Penalty>  (1) 
0

>  <r_epik_Ionization_Penalty>  (1) 
0

>  <r_epik_Ionization_Penalty_Charging>  (1) 
0

>  <r_epik_Ionization_Penalty_Neutral>  (1) 
0

>  <r_epik_State_Penalty>  (1) 
-0

>  <r_glide_ring_energy>  (1) 
0

>  <r_i_docking_score>  (1) 
-4.5464713510798056

>  <r_i_glide_ecoul>  (1) 
-1.3535807223032688

>  <r_i_glide_eff_state_penalty>  (1) 
-0

>  <r_i_glide_einternal>  (1) 
0

>  <r_i_glide_emodel>  (1) 
-21.533849879877565

>  <r_i_glide_emodel_strain>  (1) 
0

>  <r_i_glide_energy>  (1) 
-16.506689689450042

>  <r_i_glide_erotb>  (1) 
0

>  <r_i_glide_esite>  (1) 
0

>  <r_i_glide_evdw>  (1) 
-15.153108967146775

>  <r_i_glide_gscore>  (1) 
-4.5464713510798056

>  <r_i_glide_gscore_strain>  (1) 
0

>  <r_i_glide_hbond>  (1) 
0

>  <r_i_glide_ligand_efficiency>  (1) 
-0.75774522517996756

>  <r_i_glide_ligand_efficiency_ln>  (1) 
-1.6285326157904798

>  <r_i_glide_ligand_efficiency_sa>  (1) 
-1.3769144527947461

>  <r_i_glide_lipo>  (1) 
-0.57061339249843446

>  <r_i_glide_metal>  (1) 
-0

>  <r_i_glide_rewards>  (1) 
-3.0151654018785421

>  <r_lp_Energy>  (1) 
-3.9959819999999997

>  <r_lp_tautomer_probability>  (1) 
1

>  <s_epik_Chemistry_Notes>  (1) 
This compound has an imine and may undergo hydrolysis.

>  <s_epik_cmdline>  (1) 
J2VwaWtfcHl0aG9uJywgJy1waHQnLCAnMS4wJywgJy1waCcsICc3LjQnLCAnLXRuJywgJzgnLCAnLW1hJywgJzUwMCcsICctaW1hZScsICc8aW5maWxlLm1hZT4nLCAnLW9tYWUnLCAnPG91dGZpbGUubWFlPic=

>  <s_epik_input>  (1) 
W0NIMl0xW0NIXT1OW0NIXT1DMVtDSDNd

>  <s_glide_docking_method>  (1) 
confgen

>  <s_i_glide_gridfile>  (1) 
gpcr_drd2_6luq_protein_autoprepared_prepared

>  <s_lp_Force_Field>  (1) 
S-OPLS

>  <s_lp_Variant>  (1) 
Pocket2Mol_8-1

>  <s_m_source_file>  (1) 
generated_generic_title2_ligand_Pocket2Mol_2026-06-23_prepared.sdf

>  <GenAI_Model>  (1) 
Pocket2Mol

>  <Protein>  (1) 
generic_title2

$$$$
Pocket2Mol_21
     RDKit          3D

  0  0  0  0  0  0  0  0  0  0999 V3000
M  V30 BEGIN CTAB
M  V30 COUNTS 12 12 0 0 1
M  V30 BEGIN ATOM
M  V30 1 N 12.225895 7.880652 -2.399010 0
M  V30 2 C 11.814960 6.778741 -3.059088 0
M  V30 3 C 11.375400 6.823416 -4.385025 0
M  V30 4 C 11.375410 8.070151 -5.014162 0
M  V30 5 N 10.948147 8.195323 -6.329451 0
M  V30 6 N 11.779310 9.190291 -4.385809 0
M  V30 7 C 12.175435 9.016347 -3.113724 0
M  V30 8 H 11.838363 5.846990 -2.514203 0
M  V30 9 H 11.046995 5.931893 -4.898127 0
M  V30 10 H 10.592572 7.404190 -6.846466 0
M  V30 11 H 10.908655 9.094397 -6.784980 0
M  V30 12 H 12.493625 9.908758 -2.597299 0
M  V30 END ATOM
M  V30 BEGIN BOND
M  V30 1 1 2 1
M  V30 2 2 3 2
M  V30 3 1 4 3
M  V30 4 1 5 4
M  V30 5 2 6 4
M  V30 6 2 7 1
M  V30 7 1 7 6
M  V30 8 1 8 2
M  V30 9 1 9 3
M  V30 10 1 10 5
M  V30 11 1 11 5
M  V30 12 1 12 7
M  V30 END BOND
M  V30 END CTAB
M  END
>  <i_epik_Tot_Q>  (1) 
0

>  <i_epik_Tot_abs_Q>  (1) 
0

>  <i_i_glide_confnum>  (1) 
1

>  <i_i_glide_lignum>  (1) 
25

>  <i_i_glide_posenum>  (1) 
117

>  <i_i_glide_rotatable_bonds>  (1) 
0

>  <i_lp_mmshare_version>  (1) 
72125

>  <i_m_source_file_index>  (1) 
22

>  <i_f3d_flags>  (1) 
0

>  <num_sample>  (1) 
100

>  <b_lp_Chiralities_Consistent>  (1) 
1

>  <r_epik_Charging_Adjusted_Penalty>  (1) 
0.011441366301234922

>  <r_epik_Ionization_Penalty>  (1) 
0.011523414685131987

>  <r_epik_Ionization_Penalty_Charging>  (1) 
0

>  <r_epik_Ionization_Penalty_Neutral>  (1) 
0.011523414685131987

>  <r_epik_State_Penalty>  (1) 
0.011441366301234922

>  <r_glide_ring_energy>  (1) 
0

>  <r_i_docking_score>  (1) 
-4.5459313062434905

>  <r_i_glide_ecoul>  (1) 
-1.6424521296021695

>  <r_i_glide_eff_state_penalty>  (1) 
0.011441366301234922

>  <r_i_glide_einternal>  (1) 
0

>  <r_i_glide_emodel>  (1) 
-24.425579378369175

>  <r_i_glide_emodel_strain>  (1) 
0

>  <r_i_glide_energy>  (1) 
-18.705983711171331

>  <r_i_glide_erotb>  (1) 
0

>  <r_i_glide_esite>  (1) 
0

>  <r_i_glide_evdw>  (1) 
-17.063531581569162

>  <r_i_glide_gscore>  (1) 
-4.5573726725447257

>  <r_i_glide_gscore_strain>  (1) 
0

>  <r_i_glide_hbond>  (1) 
0

>  <r_i_glide_ligand_efficiency>  (1) 
-0.64941875803478433

>  <r_i_glide_ligand_efficiency_ln>  (1) 
-1.5431330475918512

>  <r_i_glide_ligand_efficiency_sa>  (1) 
-1.2422933929220561

>  <r_i_glide_lipo>  (1) 
-0.75782827402594133

>  <r_i_glide_metal>  (1) 
-0

>  <r_i_glide_rewards>  (1) 
-2.7000000000000002

>  <r_lp_Energy>  (1) 
9.3523319999999988

>  <r_lp_tautomer_probability>  (1) 
0.9999995832001739

>  <s_epik_cmdline>  (1) 
J2VwaWtfcHl0aG9uJywgJy1waHQnLCAnMS4wJywgJy1waCcsICc3LjQnLCAnLXRuJywgJzgnLCAnLW1hJywgJzUwMCcsICctaW1hZScsICc8aW5maWxlLm1hZT4nLCAnLW9tYWUnLCAnPG91dGZpbGUubWFlPic=

>  <s_epik_input>  (1) 
bjFbY0hdbltjSF1bY0hdYzFbTkgyXQ==

>  <s_glide_docking_method>  (1) 
confgen

>  <s_i_glide_gridfile>  (1) 
gpcr_drd2_6luq_protein_autoprepared_prepared

>  <s_lp_Force_Field>  (1) 
S-OPLS

>  <s_lp_Variant>  (1) 
Pocket2Mol_21-1

>  <s_m_source_file>  (1) 
generated_generic_title2_ligand_Pocket2Mol_2026-06-23_prepared.sdf

>  <GenAI_Model>  (1) 
Pocket2Mol

>  <Protein>  (1) 
generic_title2

$$$$
Pocket2Mol_95
     RDKit          3D

  0  0  0  0  0  0  0  0  0  0999 V3000
M  V30 BEGIN CTAB
M  V30 COUNTS 23 24 0 0 1
M  V30 BEGIN ATOM
M  V30 1 C 8.443319 4.738308 -10.146640 0
M  V30 2 O 8.858498 5.987510 -10.672310 0
M  V30 3 C 9.775501 6.678556 -9.912299 0
M  V30 4 C 8.145793 4.900114 -8.654256 0
M  V30 5 O 9.335129 5.270050 -7.985027 0
M  V30 6 C 10.016943 6.317564 -8.558318 0
M  V30 7 C 10.973641 7.031905 -7.800392 0
M  V30 8 O 11.225408 6.682279 -6.497454 0
M  V30 9 C 11.681848 8.098605 -8.389967 0
M  V30 10 O 12.606401 8.790216 -7.663713 0
M  V30 11 C 10.485527 7.744534 -10.486683 0
M  V30 12 C 11.438006 8.451837 -9.728870 0
M  V30 13 C 10.175451 6.989629 -5.597536 0
M  V30 14 H 9.219331 3.990520 -10.321517 0
M  V30 15 H 7.549966 4.409947 -10.677802 0
M  V30 16 H 7.765143 3.990228 -8.205704 0
M  V30 17 H 7.375415 5.643049 -8.495444 0
M  V30 18 H 13.140109 9.352226 -8.205115 0
M  V30 19 H 10.302298 8.017554 -11.514820 0
M  V30 20 H 11.982877 9.268808 -10.178331 0
M  V30 21 H 10.324341 6.445641 -4.664806 0
M  V30 22 H 10.176126 8.056564 -5.374593 0
M  V30 23 H 9.190729 6.725626 -5.984982 0
M  V30 END ATOM
M  V30 BEGIN BOND
M  V30 1 1 2 1
M  V30 2 1 3 2
M  V30 3 1 4 1
M  V30 4 1 5 4
M  V30 5 2 6 3
M  V30 6 1 6 5
M  V30 7 1 7 6
M  V30 8 1 8 7
M  V30 9 2 9 7
M  V30 10 1 10 9
M  V30 11 1 11 3
M  V30 12 1 12 9
M  V30 13 2 12 11
M  V30 14 1 13 8
M  V30 15 1 14 1
M  V30 16 1 15 1
M  V30 17 1 16 4
M  V30 18 1 17 4
M  V30 19 1 18 10
M  V30 20 1 19 11
M  V30 21 1 20 12
M  V30 22 1 21 13
M  V30 23 1 22 13
M  V30 24 1 23 13
M  V30 END BOND
M  V30 END CTAB
M  END
>  <i_epik_Tot_Q>  (1) 
0

>  <i_epik_Tot_abs_Q>  (1) 
0

>  <i_i_glide_confnum>  (1) 
2

>  <i_i_glide_lignum>  (1) 
104

>  <i_i_glide_posenum>  (1) 
386

>  <i_i_glide_rotatable_bonds>  (1) 
2

>  <i_lp_mmshare_version>  (1) 
72125

>  <i_m_source_file_index>  (1) 
96

>  <i_f3d_flags>  (1) 
0

>  <num_sample>  (1) 
100

>  <b_lp_Chiralities_Consistent>  (1) 
1

>  <r_epik_Charging_Adjusted_Penalty>  (1) 
0

>  <r_epik_Ionization_Penalty>  (1) 
0.0014130578134093086

>  <r_epik_Ionization_Penalty_Charging>  (1) 
0

>  <r_epik_Ionization_Penalty_Neutral>  (1) 
0.0014130578134093086

>  <r_epik_State_Penalty>  (1) 
-0

>  <r_glide_ring_energy>  (1) 
0.003085301398031638

>  <r_i_docking_score>  (1) 
-4.5426783116864877

>  <r_i_glide_ecoul>  (1) 
-1.0079355347171068

>  <r_i_glide_eff_state_penalty>  (1) 
-0

>  <r_i_glide_einternal>  (1) 
0.91400355752573859

>  <r_i_glide_emodel>  (1) 
-27.475516413183236

>  <r_i_glide_emodel_strain>  (1) 
0.033104818895264287

>  <r_i_glide_energy>  (1) 
-21.995510836593748

>  <r_i_glide_erotb>  (1) 
0

>  <r_i_glide_esite>  (1) 
0

>  <r_i_glide_evdw>  (1) 
-20.987575301876642

>  <r_i_glide_gscore>  (1) 
-4.5426783116864877

>  <r_i_glide_gscore_strain>  (1) 
0

>  <r_i_glide_hbond>  (1) 
0

>  <r_i_glide_ligand_efficiency>  (1) 
-0.34943679320665288

>  <r_i_glide_ligand_efficiency_ln>  (1) 
-1.2742616671898963

>  <r_i_glide_ligand_efficiency_sa>  (1) 
-0.82164285303270823

>  <r_i_glide_lipo>  (1) 
-0.68735610610687981

>  <r_i_glide_metal>  (1) 
-0

>  <r_i_glide_rewards>  (1) 
-2.6547531102782096

>  <r_lp_Energy>  (1) 
25.525124999999999

>  <r_lp_tautomer_probability>  (1) 
1

>  <s_epik_cmdline>  (1) 
J2VwaWtfcHl0aG9uJywgJy1waHQnLCAnMS4wJywgJy1waCcsICc3LjQnLCAnLXRuJywgJzgnLCAnLW1hJywgJzUwMCcsICctaW1hZScsICc8aW5maWxlLm1hZT4nLCAnLW9tYWUnLCAnPG91dGZpbGUubWFlPic=

>  <s_epik_input>  (1) 
TzFbQ0gyXVtDSDJdT2MoYzEyKWMoT1tDSDNdKWMoW09IXSlbY0hdW2NIXTI=

>  <s_glide_docking_method>  (1) 
confgen

>  <s_i_glide_gridfile>  (1) 
gpcr_drd2_6luq_protein_autoprepared_prepared

>  <s_lp_Force_Field>  (1) 
S-OPLS

>  <s_lp_Variant>  (1) 
Pocket2Mol_95-1

>  <s_m_source_file>  (1) 
generated_generic_title2_ligand_Pocket2Mol_2026-06-23_prepared.sdf

>  <GenAI_Model>  (1) 
Pocket2Mol

>  <Protein>  (1) 
generic_title2

$$$$
Pocket2Mol_40
     RDKit          3D

  0  0  0  0  0  0  0  0  0  0999 V3000
M  V30 BEGIN CTAB
M  V30 COUNTS 14 14 0 0 1
M  V30 BEGIN ATOM
M  V30 1 C 10.280949 6.793048 -8.650544 0
M  V30 2 O 9.375411 7.333146 -7.704882 0
M  V30 3 C 9.907999 8.191559 -6.775431 0
M  V30 4 C 11.284776 7.864158 -9.073922 0
M  V30 5 O 11.971317 8.317995 -7.918350 0
M  V30 6 C 11.171649 8.673808 -6.853022 0
M  V30 7 C 11.775410 9.641360 -5.791429 0
M  V30 8 O 12.959582 9.990227 -5.985025 0 CHG=-1
M  V30 9 O 11.016723 9.974473 -4.852350 0
M  V30 10 H 9.721403 6.427272 -9.511666 0
M  V30 11 H 10.794600 5.939283 -8.207487 0
M  V30 12 H 9.210820 8.422872 -5.985024 0
M  V30 13 H 10.780767 8.702037 -9.558455 0
M  V30 14 H 12.004417 7.460219 -9.785900 0
M  V30 END ATOM
M  V30 BEGIN BOND
M  V30 1 1 2 1
M  V30 2 1 3 2
M  V30 3 1 4 1
M  V30 4 1 5 4
M  V30 5 2 6 3
M  V30 6 1 6 5
M  V30 7 1 7 6
M  V30 8 1 8 7
M  V30 9 2 9 7
M  V30 10 1 10 1
M  V30 11 1 11 1
M  V30 12 1 12 3
M  V30 13 1 13 4
M  V30 14 1 14 4
M  V30 END BOND
M  V30 END CTAB
M  END
>  <i_epik_Tot_Q>  (1) 
-1

>  <i_epik_Tot_abs_Q>  (1) 
1

>  <i_i_glide_confnum>  (1) 
1

>  <i_i_glide_lignum>  (1) 
45

>  <i_i_glide_posenum>  (1) 
188

>  <i_i_glide_rotatable_bonds>  (1) 
1

>  <i_lp_mmshare_version>  (1) 
72125

>  <i_m_source_file_index>  (1) 
41

>  <i_f3d_flags>  (1) 
0

>  <num_sample>  (1) 
100

>  <b_lp_Chiralities_Consistent>  (1) 
1

>  <r_epik_Charging_Adjusted_Penalty>  (1) 
1.9393830553820406e-05

>  <r_epik_Ionization_Penalty>  (1) 
1.9393830553820406e-05

>  <r_epik_Ionization_Penalty_Charging>  (1) 
1.9393830553820406e-05

>  <r_epik_Ionization_Penalty_Neutral>  (1) 
0

>  <r_epik_State_Penalty>  (1) 
-0

>  <r_glide_ring_energy>  (1) 
0

>  <r_i_docking_score>  (1) 
-4.5423965445238155

>  <r_i_glide_ecoul>  (1) 
-0.48576116491686083

>  <r_i_glide_eff_state_penalty>  (1) 
-0

>  <r_i_glide_einternal>  (1) 
0.0017189055391393371

>  <r_i_glide_emodel>  (1) 
-23.971013420955952

>  <r_i_glide_emodel_strain>  (1) 
0

>  <r_i_glide_energy>  (1) 
-17.297824681325078

>  <r_i_glide_erotb>  (1) 
0

>  <r_i_glide_esite>  (1) 
0

>  <r_i_glide_evdw>  (1) 
-16.812063516408216

>  <r_i_glide_gscore>  (1) 
-4.5423965445238155

>  <r_i_glide_gscore_strain>  (1) 
0

>  <r_i_glide_hbond>  (1) 
0

>  <r_i_glide_ligand_efficiency>  (1) 
-0.50471072716931287

>  <r_i_glide_ligand_efficiency_ln>  (1) 
-1.4207311481098182

>  <r_i_glide_ligand_efficiency_sa>  (1) 
-1.0498406189056508

>  <r_i_glide_lipo>  (1) 
-0.49559586063254157

>  <r_i_glide_metal>  (1) 
-0

>  <r_i_glide_rewards>  (1) 
-3.1333333333333333

>  <r_lp_Energy>  (1) 
18.695968999999998

>  <r_lp_tautomer_probability>  (1) 
1

>  <s_epik_cmdline>  (1) 
J2VwaWtfcHl0aG9uJywgJy1waHQnLCAnMS4wJywgJy1waCcsICc3LjQnLCAnLXRuJywgJzgnLCAnLW1hJywgJzUwMCcsICctaW1hZScsICc8aW5maWxlLm1hZT4nLCAnLW9tYWUnLCAnPG91dGZpbGUubWFlPic=

>  <s_epik_input>  (1) 
TzFbQ0gyXVtDSDJdT1tDSF09QzFDKD1PKVtPSF0=

>  <s_glide_docking_method>  (1) 
confgen

>  <s_i_glide_gridfile>  (1) 
gpcr_drd2_6luq_protein_autoprepared_prepared

>  <s_lp_Force_Field>  (1) 
S-OPLS

>  <s_lp_Variant>  (1) 
Pocket2Mol_40-1

>  <s_m_source_file>  (1) 
generated_generic_title2_ligand_Pocket2Mol_2026-06-23_prepared.sdf

>  <GenAI_Model>  (1) 
Pocket2Mol

>  <Protein>  (1) 
generic_title2

$$$$
Pocket2Mol_96
     RDKit          3D

  0  0  0  0  0  0  0  0  0  0999 V3000
M  V30 BEGIN CTAB
M  V30 COUNTS 20 21 0 0 1
M  V30 BEGIN ATOM
M  V30 1 C 10.015948 8.390229 -6.790827 0
M  V30 2 O 11.226839 8.369555 -7.532704 0
M  V30 3 C 9.634530 6.969133 -6.410153 0
M  V30 4 O 10.211719 6.058911 -7.316272 0
M  V30 5 C 11.166049 8.354553 -8.880423 0
M  V30 6 C 9.810332 6.186355 -8.619315 0
M  V30 7 C 8.968405 5.205981 -9.173917 0
M  V30 8 O 11.775353 9.155155 -9.585025 0
M  V30 9 C 10.261565 7.273985 -9.428926 0
M  V30 10 C 8.575324 5.286041 -10.522163 0
M  V30 11 C 9.024799 6.348261 -11.326717 0
M  V30 12 F 8.647099 6.419169 -12.625123 0
M  V30 13 C 9.866354 7.338192 -10.785026 0
M  V30 14 H 10.138836 9.003734 -5.898445 0
M  V30 15 H 9.218356 8.849112 -7.378964 0
M  V30 16 H 10.015180 6.732198 -5.416559 0
M  V30 17 H 8.551297 6.849297 -6.385025 0
M  V30 18 H 8.625972 4.390227 -8.561863 0
M  V30 19 H 7.928876 4.529357 -10.940723 0
M  V30 20 H 10.203690 8.151708 -11.408765 0
M  V30 END ATOM
M  V30 BEGIN BOND
M  V30 1 1 2 1
M  V30 2 1 3 1
M  V30 3 1 4 3
M  V30 4 1 5 2
M  V30 5 1 6 4
M  V30 6 1 7 6
M  V30 7 2 8 5
M  V30 8 1 9 5
M  V30 9 2 9 6
M  V30 10 2 10 7
M  V30 11 1 11 10
M  V30 12 1 12 11
M  V30 13 1 13 9
M  V30 14 2 13 11
M  V30 15 1 14 1
M  V30 16 1 15 1
M  V30 17 1 16 3
M  V30 18 1 17 3
M  V30 19 1 18 7
M  V30 20 1 19 10
M  V30 21 1 20 13
M  V30 END BOND
M  V30 END CTAB
M  END
>  <i_epik_Tot_Q>  (1) 
0

>  <i_epik_Tot_abs_Q>  (1) 
0

>  <i_i_glide_confnum>  (1) 
6

>  <i_i_glide_lignum>  (1) 
105

>  <i_i_glide_posenum>  (1) 
99

>  <i_i_glide_rotatable_bonds>  (1) 
0

>  <i_lp_mmshare_version>  (1) 
72125

>  <i_m_source_file_index>  (1) 
97

>  <i_f3d_flags>  (1) 
0

>  <num_sample>  (1) 
100

>  <b_lp_Chiralities_Consistent>  (1) 
1

>  <r_epik_Charging_Adjusted_Penalty>  (1) 
0

>  <r_epik_Ionization_Penalty>  (1) 
0

>  <r_epik_Ionization_Penalty_Charging>  (1) 
0

>  <r_epik_Ionization_Penalty_Neutral>  (1) 
0

>  <r_epik_State_Penalty>  (1) 
-0

>  <r_glide_ring_energy>  (1) 
1.0398180339394281

>  <r_i_docking_score>  (1) 
-4.5395495514056989

>  <r_i_glide_ecoul>  (1) 
0.21697932541955278

>  <r_i_glide_eff_state_penalty>  (1) 
-0

>  <r_i_glide_einternal>  (1) 
0

>  <r_i_glide_emodel>  (1) 
-30.904033157481567

>  <r_i_glide_emodel_strain>  (1) 
0

>  <r_i_glide_energy>  (1) 
-23.785272933854618

>  <r_i_glide_erotb>  (1) 
0

>  <r_i_glide_esite>  (1) 
-0.0003681284950342895

>  <r_i_glide_evdw>  (1) 
-24.002252259274169

>  <r_i_glide_gscore>  (1) 
-4.5395495514056989

>  <r_i_glide_gscore_strain>  (1) 
0

>  <r_i_glide_hbond>  (1) 
0

>  <r_i_glide_ligand_efficiency>  (1) 
-0.34919611933889994

>  <r_i_glide_ligand_efficiency_ln>  (1) 
-1.2733840221051942

>  <r_i_glide_ligand_efficiency_sa>  (1) 
-0.82107694821903277

>  <r_i_glide_lipo>  (1) 
-0.13897252014034389

>  <r_i_glide_metal>  (1) 
-0

>  <r_i_glide_rewards>  (1) 
-3.2326431886195452

>  <r_lp_Energy>  (1) 
17.467690999999999

>  <r_lp_tautomer_probability>  (1) 
1

>  <s_epik_Chemistry_Notes>  (1) 
This compound has an ester and may undergo hydrolysis at high or low pH.

>  <s_epik_cmdline>  (1) 
J2VwaWtfcHl0aG9uJywgJy1waHQnLCAnMS4wJywgJy1waCcsICc3LjQnLCAnLXRuJywgJzgnLCAnLW1hJywgJzUwMCcsICctaW1hZScsICc8aW5maWxlLm1hZT4nLCAnLW9tYWUnLCAnPG91dGZpbGUubWFlPic=

>  <s_epik_input>  (1) 
TzFbQ0gyXVtDSDJdT0MoPU8pYyhjMTIpW2NIXWMoRilbY0hdW2NIXTI=

>  <s_glide_docking_method>  (1) 
confgen

>  <s_i_glide_gridfile>  (1) 
gpcr_drd2_6luq_protein_autoprepared_prepared

>  <s_lp_Force_Field>  (1) 
S-OPLS

>  <s_lp_Variant>  (1) 
Pocket2Mol_96-1

>  <s_m_source_file>  (1) 
generated_generic_title2_ligand_Pocket2Mol_2026-06-23_prepared.sdf

>  <GenAI_Model>  (1) 
Pocket2Mol

>  <Protein>  (1) 
generic_title2

$$$$
Pocket2Mol_36
     RDKit          3D

  0  0  0  0  0  0  0  0  0  0999 V3000
M  V30 BEGIN CTAB
M  V30 COUNTS 15 16 0 0 1
M  V30 BEGIN ATOM
M  V30 1 C 11.863150 9.190246 -5.084082 0
M  V30 2 O 10.917768 8.084628 -5.185025 0
M  V30 3 C 10.879333 7.940173 -6.511256 0
M  V30 4 C 11.689186 8.766239 -7.172706 0
M  V30 5 C 11.775410 8.750766 -8.576127 0
M  V30 6 C 10.975427 7.832799 -9.295672 0
M  V30 7 C 10.112403 6.954743 -8.589778 0
M  V30 8 C 10.065416 7.010132 -7.177415 0
M  V30 9 O 12.390101 9.590456 -6.385026 0
M  V30 10 H 12.688117 8.897857 -4.433068 0
M  V30 11 H 11.355085 10.044555 -4.634295 0
M  V30 12 H 12.437203 9.426955 -9.096310 0
M  V30 13 H 11.019637 7.801051 -10.374311 0
M  V30 14 H 9.493479 6.250794 -9.127344 0
M  V30 15 H 9.413562 6.351506 -6.621958 0
M  V30 END ATOM
M  V30 BEGIN BOND
M  V30 1 1 2 1
M  V30 2 1 3 2
M  V30 3 1 4 3
M  V30 4 2 5 4
M  V30 5 1 6 5
M  V30 6 2 7 6
M  V30 7 2 8 3
M  V30 8 1 8 7
M  V30 9 1 9 1
M  V30 10 1 9 4
M  V30 11 1 10 1
M  V30 12 1 11 1
M  V30 13 1 12 5
M  V30 14 1 13 6
M  V30 15 1 14 7
M  V30 16 1 15 8
M  V30 END BOND
M  V30 END CTAB
M  END
>  <i_epik_Tot_Q>  (1) 
0

>  <i_epik_Tot_abs_Q>  (1) 
0

>  <i_i_glide_confnum>  (1) 
1

>  <i_i_glide_lignum>  (1) 
41

>  <i_i_glide_posenum>  (1) 
273

>  <i_i_glide_rotatable_bonds>  (1) 
0

>  <i_lp_mmshare_version>  (1) 
72125

>  <i_m_source_file_index>  (1) 
37

>  <i_f3d_flags>  (1) 
0

>  <num_sample>  (1) 
100

>  <b_lp_Chiralities_Consistent>  (1) 
1

>  <r_epik_Charging_Adjusted_Penalty>  (1) 
0

>  <r_epik_Ionization_Penalty>  (1) 
0

>  <r_epik_Ionization_Penalty_Charging>  (1) 
0

>  <r_epik_Ionization_Penalty_Neutral>  (1) 
0

>  <r_epik_State_Penalty>  (1) 
-0

>  <r_glide_ring_energy>  (1) 
0

>  <r_i_docking_score>  (1) 
-4.5387938313199498

>  <r_i_glide_ecoul>  (1) 
-0.49533404022170779

>  <r_i_glide_eff_state_penalty>  (1) 
-0

>  <r_i_glide_einternal>  (1) 
0

>  <r_i_glide_emodel>  (1) 
-24.606820328257438

>  <r_i_glide_emodel_strain>  (1) 
0

>  <r_i_glide_energy>  (1) 
-18.754106254937064

>  <r_i_glide_erotb>  (1) 
0

>  <r_i_glide_esite>  (1) 
0

>  <r_i_glide_evdw>  (1) 
-18.258772214715357

>  <r_i_glide_gscore>  (1) 
-4.5387938313199498

>  <r_i_glide_gscore_strain>  (1) 
0

>  <r_i_glide_hbond>  (1) 
0

>  <r_i_glide_ligand_efficiency>  (1) 
-0.50431042570221662

>  <r_i_glide_ligand_efficiency_ln>  (1) 
-1.4196043229160538

>  <r_i_glide_ligand_efficiency_sa>  (1) 
-1.0490079582996001

>  <r_i_glide_lipo>  (1) 
-0.85155511455092581

>  <r_i_glide_metal>  (1) 
-0

>  <r_i_glide_rewards>  (1) 
-2.7000000000000002

>  <r_lp_Energy>  (1) 
19.342482

>  <r_lp_tautomer_probability>  (1) 
1

>  <s_epik_Chemistry_Notes>  (1) 
This compound contains an acetal/aminal-like group ( X-CH(R)-Y where X, Y are N, S, or O) that may be acid/base labile, releasing an aldehyde.

>  <s_epik_cmdline>  (1) 
J2VwaWtfcHl0aG9uJywgJy1waHQnLCAnMS4wJywgJy1waCcsICc3LjQnLCAnLXRuJywgJzgnLCAnLW1hJywgJzUwMCcsICctaW1hZScsICc8aW5maWxlLm1hZT4nLCAnLW9tYWUnLCAnPG91dGZpbGUubWFlPic=

>  <s_epik_input>  (1) 
TzFbQ0gyXU9jKGMxMilbY0hdW2NIXVtjSF1bY0hdMg==

>  <s_glide_docking_method>  (1) 
confgen

>  <s_i_glide_gridfile>  (1) 
gpcr_drd2_6luq_protein_autoprepared_prepared

>  <s_lp_Force_Field>  (1) 
S-OPLS

>  <s_lp_Variant>  (1) 
Pocket2Mol_36-1

>  <s_m_source_file>  (1) 
generated_generic_title2_ligand_Pocket2Mol_2026-06-23_prepared.sdf

>  <GenAI_Model>  (1) 
Pocket2Mol

>  <Protein>  (1) 
generic_title2

$$$$
Pocket2Mol_25
     RDKit          3D

  0  0  0  0  0  0  0  0  0  0999 V3000
M  V30 BEGIN CTAB
M  V30 COUNTS 15 15 0 0 1
M  V30 BEGIN ATOM
M  V30 1 N 9.375730 7.670161 -9.675014 0 CHG=1
M  V30 2 C 10.236086 8.099683 -8.700717 0
M  V30 3 C 11.507582 8.059038 -9.248946 0
M  V30 4 C 10.050270 7.380683 -10.769913 0
M  V30 5 C 12.844423 8.411911 -8.687476 0
M  V30 6 N 9.528508 6.946291 -11.914471 0
M  V30 7 N 11.334868 7.598845 -10.538955 0
M  V30 8 H 9.893925 8.397717 -7.718724 0
M  V30 9 H 12.753891 8.742414 -7.653653 0
M  V30 10 H 13.536976 7.585932 -8.712033 0
M  V30 11 H 13.307570 9.188595 -9.276555 0
M  V30 12 H 8.535474 6.802348 -12.035551 0
M  V30 13 H 10.095941 6.735454 -12.723488 0
M  V30 14 H 12.074286 7.458669 -11.213588 0
M  V30 15 H 8.336540 7.590250 -9.570829 0
M  V30 END ATOM
M  V30 BEGIN BOND
M  V30 1 1 2 1
M  V30 2 2 3 2
M  V30 3 2 4 1
M  V30 4 1 5 3
M  V30 5 1 6 4
M  V30 6 1 7 3
M  V30 7 1 7 4
M  V30 8 1 8 2
M  V30 9 1 9 5
M  V30 10 1 10 5
M  V30 11 1 11 5
M  V30 12 1 12 6
M  V30 13 1 13 6
M  V30 14 1 14 7
M  V30 15 1 15 1
M  V30 END BOND
M  V30 END CTAB
M  END
>  <i_epik_Tot_Q>  (1) 
1

>  <i_epik_Tot_abs_Q>  (1) 
1

>  <i_i_glide_confnum>  (1) 
1

>  <i_i_glide_lignum>  (1) 
29

>  <i_i_glide_posenum>  (1) 
267

>  <i_i_glide_rotatable_bonds>  (1) 
0

>  <i_lp_mmshare_version>  (1) 
72125

>  <i_m_source_file_index>  (1) 
26

>  <i_f3d_flags>  (1) 
0

>  <num_sample>  (1) 
100

>  <b_lp_Chiralities_Consistent>  (1) 
1

>  <r_epik_Charging_Adjusted_Penalty>  (1) 
0.028937443406262361

>  <r_epik_Ionization_Penalty>  (1) 
0.025358402846536118

>  <r_epik_Ionization_Penalty_Charging>  (1) 
0

>  <r_epik_Ionization_Penalty_Neutral>  (1) 
0.025358402846536118

>  <r_epik_State_Penalty>  (1) 
0.028937443406262361

>  <r_glide_ring_energy>  (1) 
0

>  <r_i_docking_score>  (1) 
-4.5379894617369043

>  <r_i_glide_ecoul>  (1) 
-8.012863227330552

>  <r_i_glide_eff_state_penalty>  (1) 
0.028937443406262361

>  <r_i_glide_einternal>  (1) 
0

>  <r_i_glide_emodel>  (1) 
-24.081450099062348

>  <r_i_glide_emodel_strain>  (1) 
0

>  <r_i_glide_energy>  (1) 
-15.052836946036084

>  <r_i_glide_erotb>  (1) 
0

>  <r_i_glide_esite>  (1) 
-0.17559451153719907

>  <r_i_glide_evdw>  (1) 
-7.0399737187055322

>  <r_i_glide_gscore>  (1) 
-4.5669269051431662

>  <r_i_glide_gscore_strain>  (1) 
0

>  <r_i_glide_hbond>  (1) 
-0.14904606217447253

>  <r_i_glide_ligand_efficiency>  (1) 
-0.64828420881955773

>  <r_i_glide_ligand_efficiency_ln>  (1) 
-1.5404371593587587

>  <r_i_glide_ligand_efficiency_sa>  (1) 
-1.2401230783498591

>  <r_i_glide_lipo>  (1) 
-0.4383581613966353

>  <r_i_glide_metal>  (1) 
-0

>  <r_i_glide_rewards>  (1) 
-2.25

>  <r_lp_Energy>  (1) 
-0.73901799999999995

>  <r_lp_tautomer_probability>  (1) 
0.99999998112300037

>  <s_epik_cmdline>  (1) 
J2VwaWtfcHl0aG9uJywgJy1waHQnLCAnMS4wJywgJy1waCcsICc3LjQnLCAnLXRuJywgJzgnLCAnLW1hJywgJzUwMCcsICctaW1hZScsICc8aW5maWxlLm1hZT4nLCAnLW9tYWUnLCAnPG91dGZpbGUubWFlPic=

>  <s_epik_input>  (1) 
W05IMl1jKFtuSF0xKW5bY0hdYzFbQ0gzXQ==

>  <s_glide_docking_method>  (1) 
confgen

>  <s_i_glide_gridfile>  (1) 
gpcr_drd2_6luq_protein_autoprepared_prepared

>  <s_lp_Force_Field>  (1) 
S-OPLS

>  <s_lp_Variant>  (1) 
Pocket2Mol_25-1

>  <s_m_source_file>  (1) 
generated_generic_title2_ligand_Pocket2Mol_2026-06-23_prepared.sdf

>  <GenAI_Model>  (1) 
Pocket2Mol

>  <Protein>  (1) 
generic_title2

$$$$
Pocket2Mol_97
     RDKit          3D

  0  0  0  0  0  0  0  0  0  0999 V3000
M  V30 BEGIN CTAB
M  V30 COUNTS 24 25 0 0 1
M  V30 BEGIN ATOM
M  V30 1 C 11.658062 8.582140 -7.610988 0
M  V30 2 O 12.283404 8.059654 -8.773174 0
M  V30 3 C 10.184308 8.182195 -7.531339 0
M  V30 4 O 10.099433 6.810395 -7.864655 0
M  V30 5 C 11.543992 8.259245 -9.966376 0
M  V30 6 C 9.827608 6.512697 -9.182732 0
M  V30 7 C 8.880555 5.513554 -9.476693 0
M  V30 8 C 10.491178 7.190244 -10.248069 0
M  V30 9 C 8.182725 4.790387 -8.350944 0
M  V30 10 C 8.578487 5.192233 -10.815333 0
M  V30 11 C 9.221981 5.869050 -11.866030 0
M  V30 12 F 8.926148 5.560194 -13.150773 0
M  V30 13 C 10.175450 6.864246 -11.585023 0
M  V30 14 H 11.774506 9.664675 -7.577626 0
M  V30 15 H 12.175416 8.184210 -6.742221 0
M  V30 16 H 9.548993 8.790281 -8.178220 0
M  V30 17 H 9.811030 8.327894 -6.517432 0
M  V30 18 H 12.266497 8.240957 -10.782659 0
M  V30 19 H 11.088305 9.245054 -9.985019 0
M  V30 20 H 7.775415 5.503479 -7.634454 0
M  V30 21 H 7.375402 4.162832 -8.720998 0
M  V30 22 H 8.901460 4.156737 -7.836354 0
M  V30 23 H 7.848790 4.427396 -11.035881 0
M  V30 24 H 10.670248 7.375550 -12.396204 0
M  V30 END ATOM
M  V30 BEGIN BOND
M  V30 1 1 2 1
M  V30 2 1 3 1
M  V30 3 1 4 3
M  V30 4 1 5 2
M  V30 5 1 6 4
M  V30 6 2 7 6
M  V30 7 1 8 5
M  V30 8 1 8 6
M  V30 9 1 9 7
M  V30 10 1 10 7
M  V30 11 2 11 10
M  V30 12 1 12 11
M  V30 13 2 13 8
M  V30 14 1 13 11
M  V30 15 1 14 1
M  V30 16 1 15 1
M  V30 17 1 16 3
M  V30 18 1 17 3
M  V30 19 1 18 5
M  V30 20 1 19 5
M  V30 21 1 20 9
M  V30 22 1 21 9
M  V30 23 1 22 9
M  V30 24 1 23 10
M  V30 25 1 24 13
M  V30 END BOND
M  V30 END CTAB
M  END
>  <i_epik_Tot_Q>  (1) 
0

>  <i_epik_Tot_abs_Q>  (1) 
0

>  <i_i_glide_confnum>  (1) 
2

>  <i_i_glide_lignum>  (1) 
106

>  <i_i_glide_posenum>  (1) 
369

>  <i_i_glide_rotatable_bonds>  (1) 
0

>  <i_lp_mmshare_version>  (1) 
72125

>  <i_m_source_file_index>  (1) 
98

>  <i_f3d_flags>  (1) 
0

>  <num_sample>  (1) 
100

>  <b_lp_Chiralities_Consistent>  (1) 
1

>  <r_epik_Charging_Adjusted_Penalty>  (1) 
0

>  <r_epik_Ionization_Penalty>  (1) 
1.3261073421285308e-13

>  <r_epik_Ionization_Penalty_Charging>  (1) 
0

>  <r_epik_Ionization_Penalty_Neutral>  (1) 
1.3261073421285308e-13

>  <r_epik_State_Penalty>  (1) 
-0

>  <r_glide_ring_energy>  (1) 
1.7623001670689571

>  <r_i_docking_score>  (1) 
-4.5371903839114101

>  <r_i_glide_ecoul>  (1) 
0.82473680167672048

>  <r_i_glide_eff_state_penalty>  (1) 
-0

>  <r_i_glide_einternal>  (1) 
0

>  <r_i_glide_emodel>  (1) 
-24.956710390663417

>  <r_i_glide_emodel_strain>  (1) 
0

>  <r_i_glide_energy>  (1) 
-19.054055384752729

>  <r_i_glide_erotb>  (1) 
0

>  <r_i_glide_esite>  (1) 
0

>  <r_i_glide_evdw>  (1) 
-19.87879218642945

>  <r_i_glide_gscore>  (1) 
-4.5371903839114101

>  <r_i_glide_gscore_strain>  (1) 
0

>  <r_i_glide_hbond>  (1) 
0

>  <r_i_glide_ligand_efficiency>  (1) 
-0.34901464491626233

>  <r_i_glide_ligand_efficiency_ln>  (1) 
-1.2727222546415551

>  <r_i_glide_ligand_efficiency_sa>  (1) 
-0.82065024111415086

>  <r_i_glide_lipo>  (1) 
-0.52224601425387607

>  <r_i_glide_metal>  (1) 
-0

>  <r_i_glide_rewards>  (1) 
-3.1447152805875693

>  <r_lp_Energy>  (1) 
15.481259999999999

>  <r_lp_tautomer_probability>  (1) 
1

>  <s_epik_cmdline>  (1) 
J2VwaWtfcHl0aG9uJywgJy1waHQnLCAnMS4wJywgJy1waCcsICc3LjQnLCAnLXRuJywgJzgnLCAnLW1hJywgJzUwMCcsICctaW1hZScsICc8aW5maWxlLm1hZT4nLCAnLW9tYWUnLCAnPG91dGZpbGUubWFlPic=

>  <s_epik_input>  (1) 
TzFbQ0gyXVtDSDJdT1tDSDJdYyhjMTIpW2NIXWMoRilbY0hdYzJbQ0gzXQ==

>  <s_glide_docking_method>  (1) 
confgen

>  <s_i_glide_gridfile>  (1) 
gpcr_drd2_6luq_protein_autoprepared_prepared

>  <s_lp_Force_Field>  (1) 
S-OPLS

>  <s_lp_Variant>  (1) 
Pocket2Mol_97-1

>  <s_m_source_file>  (1) 
generated_generic_title2_ligand_Pocket2Mol_2026-06-23_prepared.sdf

>  <GenAI_Model>  (1) 
Pocket2Mol

>  <Protein>  (1) 
generic_title2

$$$$
Pocket2Mol_12
     RDKit          3D

  0  0  0  0  0  0  0  0  0  0999 V3000
M  V30 BEGIN CTAB
M  V30 COUNTS 14 14 0 0 1
M  V30 BEGIN ATOM
M  V30 1 O 12.106272 9.190184 -4.084709 0
M  V30 2 C 11.375417 9.043737 -5.204614 0
M  V30 3 C 12.174862 7.797893 -3.585025 0
M  V30 4 C 10.975445 7.843419 -5.489913 0
M  V30 5 C 10.144039 7.469057 -6.699150 0
M  V30 6 C 11.375494 6.790360 -4.548790 0
M  V30 7 H 11.197020 9.957491 -5.752596 0
M  V30 8 H 11.774121 7.759836 -2.571839 0
M  V30 9 H 13.222796 7.506247 -3.516669 0
M  V30 10 H 9.195017 7.030096 -6.387985 0
M  V30 11 H 9.925419 8.341604 -7.316779 0
M  V30 12 H 10.674038 6.740660 -7.314068 0
M  V30 13 H 10.513221 6.326721 -4.069672 0
M  V30 14 H 12.008751 6.039062 -5.020999 0
M  V30 END ATOM
M  V30 BEGIN BOND
M  V30 1 1 2 1
M  V30 2 1 3 1
M  V30 3 2 4 2
M  V30 4 1 5 4
M  V30 5 1 6 3
M  V30 6 1 6 4
M  V30 7 1 7 2
M  V30 8 1 8 3
M  V30 9 1 9 3
M  V30 10 1 10 5
M  V30 11 1 11 5
M  V30 12 1 12 5
M  V30 13 1 13 6
M  V30 14 1 14 6
M  V30 END BOND
M  V30 END CTAB
M  END
>  <i_epik_Tot_Q>  (1) 
0

>  <i_epik_Tot_abs_Q>  (1) 
0

>  <i_i_glide_confnum>  (1) 
1

>  <i_i_glide_lignum>  (1) 
15

>  <i_i_glide_posenum>  (1) 
65

>  <i_i_glide_rotatable_bonds>  (1) 
0

>  <i_lp_mmshare_version>  (1) 
72125

>  <i_m_source_file_index>  (1) 
13

>  <i_f3d_flags>  (1) 
0

>  <num_sample>  (1) 
100

>  <b_lp_Chiralities_Consistent>  (1) 
1

>  <r_epik_Charging_Adjusted_Penalty>  (1) 
0

>  <r_epik_Ionization_Penalty>  (1) 
0

>  <r_epik_Ionization_Penalty_Charging>  (1) 
0

>  <r_epik_Ionization_Penalty_Neutral>  (1) 
0

>  <r_epik_State_Penalty>  (1) 
-0

>  <r_glide_ring_energy>  (1) 
0

>  <r_i_docking_score>  (1) 
-4.5351239012909357

>  <r_i_glide_ecoul>  (1) 
-0.47692463424601572

>  <r_i_glide_eff_state_penalty>  (1) 
-0

>  <r_i_glide_einternal>  (1) 
0

>  <r_i_glide_emodel>  (1) 
-19.589632725659648

>  <r_i_glide_emodel_strain>  (1) 
0

>  <r_i_glide_energy>  (1) 
-15.155163993149902

>  <r_i_glide_erotb>  (1) 
0

>  <r_i_glide_esite>  (1) 
0

>  <r_i_glide_evdw>  (1) 
-14.678239358903886

>  <r_i_glide_gscore>  (1) 
-4.5351239012909357

>  <r_i_glide_gscore_strain>  (1) 
0

>  <r_i_glide_hbond>  (1) 
0

>  <r_i_glide_ligand_efficiency>  (1) 
-0.75585398354848932

>  <r_i_glide_ligand_efficiency_ln>  (1) 
-1.6244679927762313

>  <r_i_glide_ligand_efficiency_sa>  (1) 
-1.3734778386801654

>  <r_i_glide_lipo>  (1) 
-1.2840879475661264

>  <r_i_glide_metal>  (1) 
-0

>  <r_i_glide_rewards>  (1) 
-2.4455852906427125

>  <r_lp_Energy>  (1) 
-7.9393969999999996

>  <r_lp_tautomer_probability>  (1) 
1

>  <s_epik_cmdline>  (1) 
J2VwaWtfcHl0aG9uJywgJy1waHQnLCAnMS4wJywgJy1waCcsICc3LjQnLCAnLXRuJywgJzgnLCAnLW1hJywgJzUwMCcsICctaW1hZScsICc8aW5maWxlLm1hZT4nLCAnLW9tYWUnLCAnPG91dGZpbGUubWFlPic=

>  <s_epik_input>  (1) 
W0NIMl0xW0NIMl1PW0NIXT1DMVtDSDNd

>  <s_glide_docking_method>  (1) 
confgen

>  <s_i_glide_gridfile>  (1) 
gpcr_drd2_6luq_protein_autoprepared_prepared

>  <s_lp_Force_Field>  (1) 
S-OPLS

>  <s_lp_Variant>  (1) 
Pocket2Mol_12-1

>  <s_m_source_file>  (1) 
generated_generic_title2_ligand_Pocket2Mol_2026-06-23_prepared.sdf

>  <GenAI_Model>  (1) 
Pocket2Mol

>  <Protein>  (1) 
generic_title2

$$$$
Pocket2Mol_19
     RDKit          3D

  0  0  0  0  0  0  0  0  0  0999 V3000
M  V30 BEGIN CTAB
M  V30 COUNTS 14 14 0 0 1
M  V30 BEGIN ATOM
M  V30 1 N 7.100992 5.990227 -11.185025 0 CHG=1
M  V30 2 C 8.170825 5.177171 -11.066587 0
M  V30 3 C 8.365767 4.132497 -11.993866 0
M  V30 4 C 7.426688 3.956436 -13.034552 0
M  V30 5 N 7.586775 2.929549 -13.962098 0
M  V30 6 C 6.322071 4.833430 -13.122476 0
M  V30 7 C 6.185243 5.859444 -12.164786 0
M  V30 8 H 8.833451 5.384003 -10.237935 0
M  V30 9 H 9.219558 3.474766 -11.906441 0
M  V30 10 H 6.842706 2.703587 -14.606537 0
M  V30 11 H 8.272867 2.203685 -13.809326 0
M  V30 12 H 5.592230 4.720295 -13.910182 0
M  V30 13 H 5.375410 6.573950 -12.152803 0
M  V30 14 H 6.975475 6.752431 -10.484944 0
M  V30 END ATOM
M  V30 BEGIN BOND
M  V30 1 1 2 1
M  V30 2 2 3 2
M  V30 3 1 4 3
M  V30 4 1 5 4
M  V30 5 2 6 4
M  V30 6 2 7 1
M  V30 7 1 7 6
M  V30 8 1 8 2
M  V30 9 1 9 3
M  V30 10 1 10 5
M  V30 11 1 11 5
M  V30 12 1 12 6
M  V30 13 1 13 7
M  V30 14 1 14 1
M  V30 END BOND
M  V30 END CTAB
M  END
>  <i_epik_Tot_Q>  (1) 
1

>  <i_epik_Tot_abs_Q>  (1) 
1

>  <i_i_glide_confnum>  (1) 
1

>  <i_i_glide_lignum>  (1) 
22

>  <i_i_glide_posenum>  (1) 
189

>  <i_i_glide_rotatable_bonds>  (1) 
0

>  <i_lp_mmshare_version>  (1) 
72125

>  <i_m_source_file_index>  (1) 
20

>  <i_f3d_flags>  (1) 
0

>  <num_sample>  (1) 
100

>  <b_lp_Chiralities_Consistent>  (1) 
1

>  <r_epik_Charging_Adjusted_Penalty>  (1) 
0.023410508937706027

>  <r_epik_Ionization_Penalty>  (1) 
0.011711918016166721

>  <r_epik_Ionization_Penalty_Charging>  (1) 
0.011705254468853022

>  <r_epik_Ionization_Penalty_Neutral>  (1) 
6.6635473136990569e-06

>  <r_epik_State_Penalty>  (1) 
0.011705254468853005

>  <r_glide_ring_energy>  (1) 
0

>  <r_i_docking_score>  (1) 
-4.5343496603781306

>  <r_i_glide_ecoul>  (1) 
-7.4739501239472759

>  <r_i_glide_eff_state_penalty>  (1) 
0.011705254468853005

>  <r_i_glide_einternal>  (1) 
0

>  <r_i_glide_emodel>  (1) 
-25.790541334651493

>  <r_i_glide_emodel_strain>  (1) 
0

>  <r_i_glide_energy>  (1) 
-17.270208020038815

>  <r_i_glide_erotb>  (1) 
0

>  <r_i_glide_esite>  (1) 
-0.10000000000000001

>  <r_i_glide_evdw>  (1) 
-9.7962578960915376

>  <r_i_glide_gscore>  (1) 
-4.5460549148469838

>  <r_i_glide_gscore_strain>  (1) 
0

>  <r_i_glide_hbond>  (1) 
-0.19264111284921287

>  <r_i_glide_ligand_efficiency>  (1) 
-0.64776423719687581

>  <r_i_glide_ligand_efficiency_ln>  (1) 
-1.5392016154437682

>  <r_i_glide_ligand_efficiency_sa>  (1) 
-1.239128408418674

>  <r_i_glide_lipo>  (1) 
-0.39250838860110304

>  <r_i_glide_metal>  (1) 
-0

>  <r_i_glide_rewards>  (1) 
-2.25

>  <r_lp_Energy>  (1) 
13.062742999999999

>  <r_lp_tautomer_probability>  (1) 
0.99999999993680011

>  <s_epik_cmdline>  (1) 
J2VwaWtfcHl0aG9uJywgJy1waHQnLCAnMS4wJywgJy1waCcsICc3LjQnLCAnLXRuJywgJzgnLCAnLW1hJywgJzUwMCcsICctaW1hZScsICc8aW5maWxlLm1hZT4nLCAnLW9tYWUnLCAnPG91dGZpbGUubWFlPic=

>  <s_epik_input>  (1) 
W2NIXTFbY0hdbltjSF1bY0hdYzFbTkgyXQ==

>  <s_glide_docking_method>  (1) 
confgen

>  <s_i_glide_gridfile>  (1) 
gpcr_drd2_6luq_protein_autoprepared_prepared

>  <s_lp_Force_Field>  (1) 
S-OPLS

>  <s_lp_Variant>  (1) 
Pocket2Mol_19-1

>  <s_m_source_file>  (1) 
generated_generic_title2_ligand_Pocket2Mol_2026-06-23_prepared.sdf

>  <GenAI_Model>  (1) 
Pocket2Mol

>  <Protein>  (1) 
generic_title2

$$$$
Pocket2Mol_79
     RDKit          3D

  0  0  0  0  0  0  0  0  0  0999 V3000
M  V30 BEGIN CTAB
M  V30 COUNTS 24 25 0 0 1
M  V30 BEGIN ATOM
M  V30 1 C 11.775965 9.176249 -6.888817 0
M  V30 2 O 10.456344 8.790204 -6.545005 0
M  V30 3 C 12.295857 8.390256 -8.096392 0
M  V30 4 O 11.307617 8.390485 -9.111886 0
M  V30 5 C 10.235513 7.388653 -6.556042 0
M  V30 6 C 10.407294 7.342422 -9.129169 0
M  V30 7 C 10.014362 6.790227 -10.371656 0
M  V30 8 C 9.861124 6.810169 -7.921294 0
M  V30 9 C 10.575406 7.346283 -11.659950 0
M  V30 10 C 9.101294 5.718717 -10.414353 0
M  V30 11 C 8.575196 5.193052 -9.224918 0
M  V30 12 C 8.953309 5.734543 -7.985028 0
M  V30 13 H 11.775410 10.244000 -7.100960 0
M  V30 14 H 12.434375 9.035982 -6.032291 0
M  V30 15 H 13.204044 8.850224 -8.484427 0
M  V30 16 H 12.575415 7.374157 -7.819998 0
M  V30 17 H 9.389713 7.214515 -5.891077 0
M  V30 18 H 11.071160 6.839977 -6.118196 0
M  V30 19 H 11.631700 7.590111 -11.548394 0
M  V30 20 H 10.484137 6.624624 -12.472295 0
M  V30 21 H 10.024855 8.244878 -11.937121 0
M  V30 22 H 8.801966 5.301730 -11.364525 0
M  V30 23 H 7.868147 4.383343 -9.262947 0
M  V30 24 H 8.533222 5.333608 -7.079246 0
M  V30 END ATOM
M  V30 BEGIN BOND
M  V30 1 1 2 1
M  V30 2 1 3 1
M  V30 3 1 4 3
M  V30 4 1 5 2
M  V30 5 1 6 4
M  V30 6 2 7 6
M  V30 7 1 8 5
M  V30 8 1 8 6
M  V30 9 1 9 7
M  V30 10 1 10 7
M  V30 11 2 11 10
M  V30 12 2 12 8
M  V30 13 1 12 11
M  V30 14 1 13 1
M  V30 15 1 14 1
M  V30 16 1 15 3
M  V30 17 1 16 3
M  V30 18 1 17 5
M  V30 19 1 18 5
M  V30 20 1 19 9
M  V30 21 1 20 9
M  V30 22 1 21 9
M  V30 23 1 22 10
M  V30 24 1 23 11
M  V30 25 1 24 12
M  V30 END BOND
M  V30 END CTAB
M  END
>  <i_epik_Tot_Q>  (1) 
0

>  <i_epik_Tot_abs_Q>  (1) 
0

>  <i_i_glide_confnum>  (1) 
2

>  <i_i_glide_lignum>  (1) 
86

>  <i_i_glide_posenum>  (1) 
94

>  <i_i_glide_rotatable_bonds>  (1) 
0

>  <i_lp_mmshare_version>  (1) 
72125

>  <i_m_source_file_index>  (1) 
80

>  <i_f3d_flags>  (1) 
0

>  <num_sample>  (1) 
100

>  <b_lp_Chiralities_Consistent>  (1) 
1

>  <r_epik_Charging_Adjusted_Penalty>  (1) 
0

>  <r_epik_Ionization_Penalty>  (1) 
2.8363962595523293e-13

>  <r_epik_Ionization_Penalty_Charging>  (1) 
0

>  <r_epik_Ionization_Penalty_Neutral>  (1) 
2.8363962595523293e-13

>  <r_epik_State_Penalty>  (1) 
-0

>  <r_glide_ring_energy>  (1) 
1.7614129466602644

>  <r_i_docking_score>  (1) 
-4.5322631255907826

>  <r_i_glide_ecoul>  (1) 
0.48586587510237633

>  <r_i_glide_eff_state_penalty>  (1) 
-0

>  <r_i_glide_einternal>  (1) 
0

>  <r_i_glide_emodel>  (1) 
-24.259250108461206

>  <r_i_glide_emodel_strain>  (1) 
0.010612638046961109

>  <r_i_glide_energy>  (1) 
-18.832796338182046

>  <r_i_glide_erotb>  (1) 
0

>  <r_i_glide_esite>  (1) 
0

>  <r_i_glide_evdw>  (1) 
-19.318662213284423

>  <r_i_glide_gscore>  (1) 
-4.5322631255907826

>  <r_i_glide_gscore_strain>  (1) 
0

>  <r_i_glide_hbond>  (1) 
0

>  <r_i_glide_ligand_efficiency>  (1) 
-0.37768859379923186

>  <r_i_glide_ligand_efficiency_ln>  (1) 
-1.300540755049062

>  <r_i_glide_ligand_efficiency_sa>  (1) 
-0.86469102514384155

>  <r_i_glide_lipo>  (1) 
-0.67643637306438131

>  <r_i_glide_metal>  (1) 
-0

>  <r_i_glide_rewards>  (1) 
-2.9627735231275372

>  <r_lp_Energy>  (1) 
16.059718999999998

>  <r_lp_tautomer_probability>  (1) 
1

>  <s_epik_cmdline>  (1) 
J2VwaWtfcHl0aG9uJywgJy1waHQnLCAnMS4wJywgJy1waCcsICc3LjQnLCAnLXRuJywgJzgnLCAnLW1hJywgJzUwMCcsICctaW1hZScsICc8aW5maWxlLm1hZT4nLCAnLW9tYWUnLCAnPG91dGZpbGUubWFlPic=

>  <s_epik_input>  (1) 
TzFbQ0gyXVtDSDJdT1tDSDJdYyhjMTIpW2NIXVtjSF1bY0hdYzJbQ0gzXQ==

>  <s_glide_docking_method>  (1) 
confgen

>  <s_i_glide_gridfile>  (1) 
gpcr_drd2_6luq_protein_autoprepared_prepared

>  <s_lp_Force_Field>  (1) 
S-OPLS

>  <s_lp_Variant>  (1) 
Pocket2Mol_79-1

>  <s_m_source_file>  (1) 
generated_generic_title2_ligand_Pocket2Mol_2026-06-23_prepared.sdf

>  <GenAI_Model>  (1) 
Pocket2Mol

>  <Protein>  (1) 
generic_title2

$$$$
Pocket2Mol_2
     RDKit          3D

  0  0  0  0  0  0  0  0  0  0999 V3000
M  V30 BEGIN CTAB
M  V30 COUNTS 10 10 0 0 1
M  V30 BEGIN ATOM
M  V30 1 N 12.575407 9.097408 -2.789571 0
M  V30 2 C 12.093156 8.795611 -4.036992 0
M  V30 3 C 11.775411 7.462072 -4.030350 0
M  V30 4 C 12.085258 6.951374 -2.728509 0
M  V30 5 C 12.575410 7.990226 -1.985025 0
M  V30 6 H 12.892603 10.014491 -2.498909 0
M  V30 7 H 12.019267 9.548972 -4.807969 0
M  V30 8 H 11.367771 6.911990 -4.866443 0
M  V30 9 H 11.959696 5.936518 -2.379095 0
M  V30 10 H 12.926982 8.042053 -0.965509 0
M  V30 END ATOM
M  V30 BEGIN BOND
M  V30 1 1 2 1
M  V30 2 2 3 2
M  V30 3 1 4 3
M  V30 4 1 5 1
M  V30 5 2 5 4
M  V30 6 1 6 1
M  V30 7 1 7 2
M  V30 8 1 8 3
M  V30 9 1 9 4
M  V30 10 1 10 5
M  V30 END BOND
M  V30 END CTAB
M  END
>  <i_epik_Tot_Q>  (1) 
0

>  <i_epik_Tot_abs_Q>  (1) 
0

>  <i_i_glide_confnum>  (1) 
1

>  <i_i_glide_lignum>  (1) 
3

>  <i_i_glide_posenum>  (1) 
153

>  <i_i_glide_rotatable_bonds>  (1) 
0

>  <i_lp_mmshare_version>  (1) 
72125

>  <i_m_source_file_index>  (1) 
3

>  <i_f3d_flags>  (1) 
0

>  <num_sample>  (1) 
100

>  <b_lp_Chiralities_Consistent>  (1) 
1

>  <r_epik_Charging_Adjusted_Penalty>  (1) 
0

>  <r_epik_Ionization_Penalty>  (1) 
4.7655302421719939e-09

>  <r_epik_Ionization_Penalty_Charging>  (1) 
0

>  <r_epik_Ionization_Penalty_Neutral>  (1) 
4.7655302421719939e-09

>  <r_epik_State_Penalty>  (1) 
-0

>  <r_glide_ring_energy>  (1) 
0

>  <r_i_docking_score>  (1) 
-4.5270131515545096

>  <r_i_glide_ecoul>  (1) 
-1.7591275839063769

>  <r_i_glide_eff_state_penalty>  (1) 
-0

>  <r_i_glide_einternal>  (1) 
0

>  <r_i_glide_emodel>  (1) 
-18.375176276025567

>  <r_i_glide_emodel_strain>  (1) 
0

>  <r_i_glide_energy>  (1) 
-13.616573039405734

>  <r_i_glide_erotb>  (1) 
0

>  <r_i_glide_esite>  (1) 
0

>  <r_i_glide_evdw>  (1) 
-11.857445455499358

>  <r_i_glide_gscore>  (1) 
-4.5270131515545096

>  <r_i_glide_gscore_strain>  (1) 
0

>  <r_i_glide_hbond>  (1) 
-0.31529132648342839

>  <r_i_glide_ligand_efficiency>  (1) 
-0.90540263031090196

>  <r_i_glide_ligand_efficiency_ln>  (1) 
-1.7348614159329365

>  <r_i_glide_ligand_efficiency_sa>  (1) 
-1.5482167198894561

>  <r_i_glide_lipo>  (1) 
-1.1049804147101565

>  <r_i_glide_metal>  (1) 
-0

>  <r_i_glide_rewards>  (1) 
-2.25

>  <r_lp_Energy>  (1) 
2.9132020000000001

>  <r_lp_tautomer_probability>  (1) 
1

>  <s_epik_cmdline>  (1) 
J2VwaWtfcHl0aG9uJywgJy1waHQnLCAnMS4wJywgJy1waCcsICc3LjQnLCAnLXRuJywgJzgnLCAnLW1hJywgJzUwMCcsICctaW1hZScsICc8aW5maWxlLm1hZT4nLCAnLW9tYWUnLCAnPG91dGZpbGUubWFlPic=

>  <s_epik_input>  (1) 
W25IXTFbY0hdW2NIXVtjSF1bY0hdMQ==

>  <s_glide_docking_method>  (1) 
confgen

>  <s_i_glide_gridfile>  (1) 
gpcr_drd2_6luq_protein_autoprepared_prepared

>  <s_lp_Force_Field>  (1) 
S-OPLS

>  <s_lp_Variant>  (1) 
Pocket2Mol_2-1

>  <s_m_source_file>  (1) 
generated_generic_title2_ligand_Pocket2Mol_2026-06-23_prepared.sdf

>  <GenAI_Model>  (1) 
Pocket2Mol

>  <Protein>  (1) 
generic_title2

$$$$
Pocket2Mol_72
     RDKit          3D

  0  0  0  0  0  0  0  0  0  0999 V3000
M  V30 BEGIN CTAB
M  V30 COUNTS 18 19 0 0 1
M  V30 BEGIN ATOM
M  V30 1 C 10.914984 8.520454 -6.289178 0
M  V30 2 O 11.386967 8.577809 -7.626493 0
M  V30 3 C 10.727348 7.752172 -8.510535 0
M  V30 4 C 10.830805 7.989591 -9.894518 0
M  V30 5 C 10.813589 7.050733 -5.872911 0
M  V30 6 C 9.946496 6.661648 -8.036131 0
M  V30 7 O 9.843518 6.409707 -6.685522 0
M  V30 8 C 10.154903 7.156557 -10.807190 0
M  V30 9 C 9.273530 5.830838 -8.953801 0
M  V30 10 F 8.529399 4.790845 -8.505720 0
M  V30 11 C 9.375636 6.078657 -10.337375 0
M  V30 12 H 11.611353 9.055578 -5.644380 0
M  V30 13 H 9.948301 9.019960 -6.208349 0
M  V30 14 H 11.427318 8.813353 -10.256969 0
M  V30 15 H 11.775410 6.547180 -5.978130 0
M  V30 16 H 10.515596 6.963439 -4.827785 0
M  V30 17 H 10.233310 7.342540 -11.867614 0
M  V30 18 H 8.856576 5.441054 -11.038895 0
M  V30 END ATOM
M  V30 BEGIN BOND
M  V30 1 1 2 1
M  V30 2 1 3 2
M  V30 3 2 4 3
M  V30 4 1 5 1
M  V30 5 1 6 3
M  V30 6 1 7 5
M  V30 7 1 7 6
M  V30 8 1 8 4
M  V30 9 2 9 6
M  V30 10 1 10 9
M  V30 11 2 11 8
M  V30 12 1 11 9
M  V30 13 1 12 1
M  V30 14 1 13 1
M  V30 15 1 14 4
M  V30 16 1 15 5
M  V30 17 1 16 5
M  V30 18 1 17 8
M  V30 19 1 18 11
M  V30 END BOND
M  V30 END CTAB
M  END
>  <i_epik_Tot_Q>  (1) 
0

>  <i_epik_Tot_abs_Q>  (1) 
0

>  <i_i_glide_confnum>  (1) 
2

>  <i_i_glide_lignum>  (1) 
79

>  <i_i_glide_posenum>  (1) 
197

>  <i_i_glide_rotatable_bonds>  (1) 
0

>  <i_lp_mmshare_version>  (1) 
72125

>  <i_m_source_file_index>  (1) 
73

>  <i_f3d_flags>  (1) 
0

>  <num_sample>  (1) 
100

>  <b_lp_Chiralities_Consistent>  (1) 
1

>  <r_epik_Charging_Adjusted_Penalty>  (1) 
0

>  <r_epik_Ionization_Penalty>  (1) 
0

>  <r_epik_Ionization_Penalty_Charging>  (1) 
0

>  <r_epik_Ionization_Penalty_Neutral>  (1) 
0

>  <r_epik_State_Penalty>  (1) 
-0

>  <r_glide_ring_energy>  (1) 
0.0030882705297212471

>  <r_i_docking_score>  (1) 
-4.522791694055754

>  <r_i_glide_ecoul>  (1) 
0.59130474990758874

>  <r_i_glide_eff_state_penalty>  (1) 
-0

>  <r_i_glide_einternal>  (1) 
0

>  <r_i_glide_emodel>  (1) 
-25.682299421758373

>  <r_i_glide_emodel_strain>  (1) 
0

>  <r_i_glide_energy>  (1) 
-19.7617539551227

>  <r_i_glide_erotb>  (1) 
0

>  <r_i_glide_esite>  (1) 
-0.031185837175592236

>  <r_i_glide_evdw>  (1) 
-20.353058705030289

>  <r_i_glide_gscore>  (1) 
-4.522791694055754

>  <r_i_glide_gscore_strain>  (1) 
0

>  <r_i_glide_hbond>  (1) 
0

>  <r_i_glide_ligand_efficiency>  (1) 
-0.41116288127779582

>  <r_i_glide_ligand_efficiency_ln>  (1) 
-1.3310568251654689

>  <r_i_glide_ligand_efficiency_sa>  (1) 
-0.91441806194293318

>  <r_i_glide_lipo>  (1) 
-0.57098196744811902

>  <r_i_glide_metal>  (1) 
-0

>  <r_i_glide_rewards>  (1) 
-2.9916666666666667

>  <r_lp_Energy>  (1) 
17.335863

>  <r_lp_tautomer_probability>  (1) 
1

>  <s_epik_cmdline>  (1) 
J2VwaWtfcHl0aG9uJywgJy1waHQnLCAnMS4wJywgJy1waCcsICc3LjQnLCAnLXRuJywgJzgnLCAnLW1hJywgJzUwMCcsICctaW1hZScsICc8aW5maWxlLm1hZT4nLCAnLW9tYWUnLCAnPG91dGZpbGUubWFlPic=

>  <s_epik_input>  (1) 
TzFbQ0gyXVtDSDJdT2MoYzEyKWMoRilbY0hdW2NIXVtjSF0y

>  <s_glide_docking_method>  (1) 
confgen

>  <s_i_glide_gridfile>  (1) 
gpcr_drd2_6luq_protein_autoprepared_prepared

>  <s_lp_Force_Field>  (1) 
S-OPLS

>  <s_lp_Variant>  (1) 
Pocket2Mol_72-1

>  <s_m_source_file>  (1) 
generated_generic_title2_ligand_Pocket2Mol_2026-06-23_prepared.sdf

>  <GenAI_Model>  (1) 
Pocket2Mol

>  <Protein>  (1) 
generic_title2

$$$$
Pocket2Mol_92
     RDKit          3D

  0  0  0  0  0  0  0  0  0  0999 V3000
M  V30 BEGIN CTAB
M  V30 COUNTS 26 27 0 0 1
M  V30 BEGIN ATOM
M  V30 1 C 6.704388 5.808845 -13.021614 0
M  V30 2 O 7.669036 4.909627 -13.554099 0
M  V30 3 C 7.314195 7.190223 -12.722182 0
M  V30 4 O 8.611417 7.162452 -12.142760 0
M  V30 5 C 8.338131 4.143927 -12.557308 0
M  V30 6 C 8.819880 6.221708 -11.094697 0 CFG=2
M  V30 7 C 9.775519 6.775197 -10.041543 0
M  V30 8 C 9.375398 4.951456 -11.759719 0
M  V30 9 C 9.618142 6.429802 -8.682263 0
M  V30 10 N 10.763131 7.590153 -10.494721 0
M  V30 11 C 11.610674 8.104710 -9.572984 0
M  V30 12 C 11.525499 7.822935 -8.195199 0
M  V30 13 C 10.509953 6.966160 -7.742899 0
M  V30 14 H 6.215943 5.394955 -12.137789 0
M  V30 15 H 5.911299 5.932127 -13.759456 0
M  V30 16 H 6.645116 7.750664 -12.067712 0
M  V30 17 H 7.392679 7.761754 -13.647011 0
M  V30 18 H 7.616144 3.672090 -11.889768 0
M  V30 19 H 8.852189 3.325132 -13.060962 0
M  V30 20 H 10.217993 5.213586 -12.399971 0
M  V30 21 H 9.775058 4.293083 -10.987888 0
M  V30 22 H 8.818561 5.773559 -8.369803 0
M  V30 23 H 12.383207 8.760133 -9.947702 0
M  V30 24 H 12.228524 8.257449 -7.501130 0
M  V30 25 H 10.415164 6.727776 -6.693477 0
M  V30 26 H 7.885256 5.990271 -10.579818 0
M  V30 END ATOM
M  V30 BEGIN BOND
M  V30 1 1 2 1
M  V30 2 1 3 1
M  V30 3 1 4 3
M  V30 4 1 5 2
M  V30 5 1 6 4
M  V30 6 1 7 6
M  V30 7 1 8 5
M  V30 8 1 8 6
M  V30 9 1 9 7
M  V30 10 2 10 7
M  V30 11 1 11 10
M  V30 12 2 12 11
M  V30 13 2 13 9
M  V30 14 1 13 12
M  V30 15 1 14 1
M  V30 16 1 15 1
M  V30 17 1 16 3
M  V30 18 1 17 3
M  V30 19 1 18 5
M  V30 20 1 19 5
M  V30 21 1 20 8
M  V30 22 1 21 8
M  V30 23 1 22 9
M  V30 24 1 23 11
M  V30 25 1 24 12
M  V30 26 1 25 13
M  V30 27 1 6 26 CFG=1
M  V30 END BOND
M  V30 END CTAB
M  END
>  <i_epik_Tot_Q>  (1) 
0

>  <i_epik_Tot_abs_Q>  (1) 
0

>  <i_i_glide_confnum>  (1) 
5

>  <i_i_glide_lignum>  (1) 
101

>  <i_i_glide_posenum>  (1) 
298

>  <i_i_glide_rotatable_bonds>  (1) 
1

>  <i_lp_mmshare_version>  (1) 
72125

>  <i_m_source_file_index>  (1) 
93

>  <i_f3d_flags>  (1) 
0

>  <num_sample>  (1) 
100

>  <b_lp_Chiralities_Consistent>  (1) 
1

>  <r_epik_Charging_Adjusted_Penalty>  (1) 
0.0037896276157117258

>  <r_epik_Ionization_Penalty>  (1) 
0.0037896276174286705

>  <r_epik_Ionization_Penalty_Charging>  (1) 
0

>  <r_epik_Ionization_Penalty_Neutral>  (1) 
0.0037896276174286705

>  <r_epik_State_Penalty>  (1) 
0.0037896276157117258

>  <r_glide_ring_energy>  (1) 
0.28610580525735341

>  <r_i_docking_score>  (1) 
-4.5212511541496259

>  <r_i_glide_ecoul>  (1) 
-1.6503496789549743

>  <r_i_glide_eff_state_penalty>  (1) 
0.0037896276157117258

>  <r_i_glide_einternal>  (1) 
0.042541125962814785

>  <r_i_glide_emodel>  (1) 
-31.070198461508632

>  <r_i_glide_emodel_strain>  (1) 
0

>  <r_i_glide_energy>  (1) 
-23.917353181926714

>  <r_i_glide_erotb>  (1) 
0.4895878840251785

>  <r_i_glide_esite>  (1) 
0

>  <r_i_glide_evdw>  (1) 
-22.26700350297174

>  <r_i_glide_gscore>  (1) 
-4.5250407817653375

>  <r_i_glide_gscore_strain>  (1) 
0

>  <r_i_glide_hbond>  (1) 
0

>  <r_i_glide_ligand_efficiency>  (1) 
-0.34778855031920197

>  <r_i_glide_ligand_efficiency_ln>  (1) 
-1.2682511589362477

>  <r_i_glide_ligand_efficiency_sa>  (1) 
-0.81776728235765594

>  <r_i_glide_lipo>  (1) 
-0.8082651745931686

>  <r_i_glide_metal>  (1) 
-0

>  <r_i_glide_rewards>  (1) 
-2.8454608642055139

>  <r_lp_Energy>  (1) 
20.663057999999999

>  <s_epik_cmdline>  (1) 
J2VwaWtfcHl0aG9uJywgJy1waHQnLCAnMS4wJywgJy1waCcsICc3LjQnLCAnLXRuJywgJzgnLCAnLW1hJywgJzUwMCcsICctaW1hZScsICc8aW5maWxlLm1hZT4nLCAnLW9tYWUnLCAnPG91dGZpbGUubWFlPic=

>  <s_epik_input>  (1) 
W0NIMl0xW0NIMl1PW0NIMl1bQ0gyXU8vQzE9QzJcW0NIXT1bQ0hdW0NIXT1bQ0hdW05IXTI=

>  <s_glide_docking_method>  (1) 
confgen

>  <s_i_glide_gridfile>  (1) 
gpcr_drd2_6luq_protein_autoprepared_prepared

>  <s_lp_Force_Field>  (1) 
S-OPLS

>  <s_lp_Variant>  (1) 
Pocket2Mol_92-2

>  <s_m_source_file>  (1) 
generated_generic_title2_ligand_Pocket2Mol_2026-06-23_prepared.sdf

>  <GenAI_Model>  (1) 
Pocket2Mol

>  <Protein>  (1) 
generic_title2

$$$$
Pocket2Mol_77
     RDKit          3D

  0  0  0  0  0  0  0  0  0  0999 V3000
M  V30 BEGIN CTAB
M  V30 COUNTS 11 11 0 0 1
M  V30 BEGIN ATOM
M  V30 1 C 12.176877 9.015665 -3.413370 0
M  V30 2 O 11.766705 7.976551 -4.385341 0
M  V30 3 C 12.456343 8.390225 -1.965132 0
M  V30 4 C 12.122549 7.028053 -2.385025 0
M  V30 5 C 11.775421 6.872442 -3.620224 0
M  V30 6 H 11.389968 9.768852 -3.350423 0
M  V30 7 H 13.068224 9.521449 -3.786784 0
M  V30 8 H 11.775411 8.762250 -1.198755 0
M  V30 9 H 13.492981 8.485974 -1.646812 0
M  V30 10 H 12.167831 6.213230 -1.676630 0
M  V30 11 H 11.490058 5.963247 -4.129615 0
M  V30 END ATOM
M  V30 BEGIN BOND
M  V30 1 1 2 1
M  V30 2 1 3 1
M  V30 3 1 4 3
M  V30 4 1 5 2
M  V30 5 2 5 4
M  V30 6 1 6 1
M  V30 7 1 7 1
M  V30 8 1 8 3
M  V30 9 1 9 3
M  V30 10 1 10 4
M  V30 11 1 11 5
M  V30 END BOND
M  V30 END CTAB
M  END
>  <i_epik_Tot_Q>  (1) 
0

>  <i_epik_Tot_abs_Q>  (1) 
0

>  <i_i_glide_confnum>  (1) 
1

>  <i_i_glide_lignum>  (1) 
84

>  <i_i_glide_posenum>  (1) 
22

>  <i_i_glide_rotatable_bonds>  (1) 
0

>  <i_lp_mmshare_version>  (1) 
72125

>  <i_m_source_file_index>  (1) 
78

>  <i_f3d_flags>  (1) 
0

>  <num_sample>  (1) 
100

>  <b_lp_Chiralities_Consistent>  (1) 
1

>  <r_epik_Charging_Adjusted_Penalty>  (1) 
0

>  <r_epik_Ionization_Penalty>  (1) 
0

>  <r_epik_Ionization_Penalty_Charging>  (1) 
0

>  <r_epik_Ionization_Penalty_Neutral>  (1) 
0

>  <r_epik_State_Penalty>  (1) 
-0

>  <r_glide_ring_energy>  (1) 
0

>  <r_i_docking_score>  (1) 
-4.5192928512657105

>  <r_i_glide_ecoul>  (1) 
-0.7737300079478493

>  <r_i_glide_eff_state_penalty>  (1) 
-0

>  <r_i_glide_einternal>  (1) 
0

>  <r_i_glide_emodel>  (1) 
-18.488436095280122

>  <r_i_glide_emodel_strain>  (1) 
0

>  <r_i_glide_energy>  (1) 
-14.545008734026817

>  <r_i_glide_erotb>  (1) 
0

>  <r_i_glide_esite>  (1) 
0

>  <r_i_glide_evdw>  (1) 
-13.771278726078968

>  <r_i_glide_gscore>  (1) 
-4.5192928512657105

>  <r_i_glide_gscore_strain>  (1) 
0

>  <r_i_glide_hbond>  (1) 
0

>  <r_i_glide_ligand_efficiency>  (1) 
-0.90385857025314209

>  <r_i_glide_ligand_efficiency_ln>  (1) 
-1.7319028093104101

>  <r_i_glide_ligand_efficiency_sa>  (1) 
-1.5455764143304624

>  <r_i_glide_lipo>  (1) 
-1.2639920901648298

>  <r_i_glide_metal>  (1) 
-0

>  <r_i_glide_rewards>  (1) 
-2.4506773236047539

>  <r_lp_Energy>  (1) 
-3.1771669999999999

>  <r_lp_tautomer_probability>  (1) 
1

>  <s_epik_cmdline>  (1) 
J2VwaWtfcHl0aG9uJywgJy1waHQnLCAnMS4wJywgJy1waCcsICc3LjQnLCAnLXRuJywgJzgnLCAnLW1hJywgJzUwMCcsICctaW1hZScsICc8aW5maWxlLm1hZT4nLCAnLW9tYWUnLCAnPG91dGZpbGUubWFlPic=

>  <s_epik_input>  (1) 
W0NIMl0xT1tDSF09W0NIXVtDSDJdMQ==

>  <s_glide_docking_method>  (1) 
confgen

>  <s_i_glide_gridfile>  (1) 
gpcr_drd2_6luq_protein_autoprepared_prepared

>  <s_lp_Force_Field>  (1) 
S-OPLS

>  <s_lp_Variant>  (1) 
Pocket2Mol_77-1

>  <s_m_source_file>  (1) 
generated_generic_title2_ligand_Pocket2Mol_2026-06-23_prepared.sdf

>  <GenAI_Model>  (1) 
Pocket2Mol

>  <Protein>  (1) 
generic_title2

$$$$
Pocket2Mol_15
     RDKit          3D

  0  0  0  0  0  0  0  0  0  0999 V3000
M  V30 BEGIN CTAB
M  V30 COUNTS 17 17 0 0 1
M  V30 BEGIN ATOM
M  V30 1 C 12.527450 8.390227 -7.985025 0
M  V30 2 O 11.775410 9.190227 -7.084211 0
M  V30 3 C 11.934299 8.390227 -9.403293 0
M  V30 4 O 10.541221 8.119076 -9.497314 0
M  V30 5 C 10.775758 8.455390 -6.386636 0
M  V30 6 C 9.980322 7.242056 -8.530415 0
M  V30 7 C 9.594421 8.048663 -7.280199 0
M  V30 8 H 13.538068 8.793407 -8.035499 0
M  V30 9 H 12.641333 7.375458 -7.602421 0
M  V30 10 H 12.111672 9.356203 -9.876931 0
M  V30 11 H 12.465867 7.653070 -10.005206 0
M  V30 12 H 11.210104 7.582067 -5.897224 0
M  V30 13 H 10.401765 9.091884 -5.585025 0
M  V30 14 H 10.629676 6.394685 -8.305772 0
M  V30 15 H 9.072521 6.822590 -8.965398 0
M  V30 16 H 8.898503 7.457700 -6.683319 0
M  V30 17 H 9.037280 8.934788 -7.586709 0
M  V30 END ATOM
M  V30 BEGIN BOND
M  V30 1 1 2 1
M  V30 2 1 3 1
M  V30 3 1 4 3
M  V30 4 1 5 2
M  V30 5 1 6 4
M  V30 6 1 7 5
M  V30 7 1 7 6
M  V30 8 1 8 1
M  V30 9 1 9 1
M  V30 10 1 10 3
M  V30 11 1 11 3
M  V30 12 1 12 5
M  V30 13 1 13 5
M  V30 14 1 14 6
M  V30 15 1 15 6
M  V30 16 1 16 7
M  V30 17 1 17 7
M  V30 END BOND
M  V30 END CTAB
M  END
>  <i_epik_Tot_Q>  (1) 
0

>  <i_epik_Tot_abs_Q>  (1) 
0

>  <i_i_glide_confnum>  (1) 
2

>  <i_i_glide_lignum>  (1) 
18

>  <i_i_glide_posenum>  (1) 
183

>  <i_i_glide_rotatable_bonds>  (1) 
0

>  <i_lp_mmshare_version>  (1) 
72125

>  <i_m_source_file_index>  (1) 
16

>  <i_f3d_flags>  (1) 
0

>  <num_sample>  (1) 
100

>  <b_lp_Chiralities_Consistent>  (1) 
1

>  <r_epik_Charging_Adjusted_Penalty>  (1) 
0

>  <r_epik_Ionization_Penalty>  (1) 
3.933197540425548e-12

>  <r_epik_Ionization_Penalty_Charging>  (1) 
0

>  <r_epik_Ionization_Penalty_Neutral>  (1) 
3.933197540425548e-12

>  <r_epik_State_Penalty>  (1) 
-0

>  <r_glide_ring_energy>  (1) 
0.00017049435676393324

>  <r_i_docking_score>  (1) 
-4.5188915958612057

>  <r_i_glide_ecoul>  (1) 
-0.59999871614604472

>  <r_i_glide_eff_state_penalty>  (1) 
-0

>  <r_i_glide_einternal>  (1) 
0

>  <r_i_glide_emodel>  (1) 
-21.560692562840241

>  <r_i_glide_emodel_strain>  (1) 
0

>  <r_i_glide_energy>  (1) 
-16.612667418881465

>  <r_i_glide_erotb>  (1) 
0

>  <r_i_glide_esite>  (1) 
0

>  <r_i_glide_evdw>  (1) 
-16.012668702735422

>  <r_i_glide_gscore>  (1) 
-4.5188915958612057

>  <r_i_glide_gscore_strain>  (1) 
0

>  <r_i_glide_hbond>  (1) 
0

>  <r_i_glide_ligand_efficiency>  (1) 
-0.64555594226588653

>  <r_i_glide_ligand_efficiency_ln>  (1) 
-1.5339543187732021

>  <r_i_glide_ligand_efficiency_sa>  (1) 
-1.2349040921844265

>  <r_i_glide_lipo>  (1) 
-0.85325835330252808

>  <r_i_glide_metal>  (1) 
-0

>  <r_i_glide_rewards>  (1) 
-2.7749999999999999

>  <r_lp_Energy>  (1) 
9.641

>  <r_lp_tautomer_probability>  (1) 
1

>  <s_epik_cmdline>  (1) 
J2VwaWtfcHl0aG9uJywgJy1waHQnLCAnMS4wJywgJy1waCcsICc3LjQnLCAnLXRuJywgJzgnLCAnLW1hJywgJzUwMCcsICctaW1hZScsICc8aW5maWxlLm1hZT4nLCAnLW9tYWUnLCAnPG91dGZpbGUubWFlPic=

>  <s_epik_input>  (1) 
W0NIMl0xT1tDSDJdW0NIMl1bQ0gyXU9bQ0gyXTE=

>  <s_glide_docking_method>  (1) 
confgen

>  <s_i_glide_gridfile>  (1) 
gpcr_drd2_6luq_protein_autoprepared_prepared

>  <s_lp_Force_Field>  (1) 
S-OPLS

>  <s_lp_Variant>  (1) 
Pocket2Mol_15-1

>  <s_m_source_file>  (1) 
generated_generic_title2_ligand_Pocket2Mol_2026-06-23_prepared.sdf

>  <GenAI_Model>  (1) 
Pocket2Mol

>  <Protein>  (1) 
generic_title2

$$$$
Pocket2Mol_16
     RDKit          3D

  0  0  0  0  0  0  0  0  0  0999 V3000
M  V30 BEGIN CTAB
M  V30 COUNTS 19 19 0 0 1
M  V30 BEGIN ATOM
M  V30 1 C 11.715690 9.088336 -4.812066 0
M  V30 2 O 10.975376 7.928238 -5.185000 0
M  V30 3 C 10.825877 7.825884 -6.599491 0
M  V30 4 C 11.155096 6.390231 -7.015166 0
M  V30 5 C 9.375408 8.155413 -6.972645 0
M  V30 6 C 11.833135 9.916822 -6.079614 0
M  V30 7 C 11.801411 8.858998 -7.166376 0
M  V30 8 H 11.219665 9.634117 -4.008955 0
M  V30 9 H 12.700874 8.790228 -4.453565 0
M  V30 10 H 11.085566 6.270560 -8.096532 0
M  V30 11 H 10.458055 5.686331 -6.562174 0
M  V30 12 H 12.160515 6.102547 -6.707542 0
M  V30 13 H 9.196153 7.999788 -8.037125 0
M  V30 14 H 8.671725 7.522866 -6.429989 0
M  V30 15 H 9.121615 9.190213 -6.759069 0
M  V30 16 H 10.975403 10.583143 -6.164334 0
M  V30 17 H 12.738136 10.520835 -6.099364 0
M  V30 18 H 12.795628 8.428129 -7.283669 0
M  V30 19 H 11.498224 9.247474 -8.139017 0
M  V30 END ATOM
M  V30 BEGIN BOND
M  V30 1 1 2 1
M  V30 2 1 3 2
M  V30 3 1 4 3
M  V30 4 1 5 3
M  V30 5 1 6 1
M  V30 6 1 7 3
M  V30 7 1 7 6
M  V30 8 1 8 1
M  V30 9 1 9 1
M  V30 10 1 10 4
M  V30 11 1 11 4
M  V30 12 1 12 4
M  V30 13 1 13 5
M  V30 14 1 14 5
M  V30 15 1 15 5
M  V30 16 1 16 6
M  V30 17 1 17 6
M  V30 18 1 18 7
M  V30 19 1 19 7
M  V30 END BOND
M  V30 END CTAB
M  END
>  <i_epik_Tot_Q>  (1) 
0

>  <i_epik_Tot_abs_Q>  (1) 
0

>  <i_i_glide_confnum>  (1) 
4

>  <i_i_glide_lignum>  (1) 
19

>  <i_i_glide_posenum>  (1) 
197

>  <i_i_glide_rotatable_bonds>  (1) 
0

>  <i_lp_mmshare_version>  (1) 
72125

>  <i_m_source_file_index>  (1) 
17

>  <i_f3d_flags>  (1) 
0

>  <num_sample>  (1) 
100

>  <b_lp_Chiralities_Consistent>  (1) 
1

>  <r_epik_Charging_Adjusted_Penalty>  (1) 
0

>  <r_epik_Ionization_Penalty>  (1) 
1.3889264151150229e-11

>  <r_epik_Ionization_Penalty_Charging>  (1) 
0

>  <r_epik_Ionization_Penalty_Neutral>  (1) 
1.3889264151150229e-11

>  <r_epik_State_Penalty>  (1) 
-0

>  <r_glide_ring_energy>  (1) 
0.26153960478789529

>  <r_i_docking_score>  (1) 
-4.5154730540989183

>  <r_i_glide_ecoul>  (1) 
-0.039556457078450513

>  <r_i_glide_eff_state_penalty>  (1) 
-0

>  <r_i_glide_einternal>  (1) 
0

>  <r_i_glide_emodel>  (1) 
-20.613897495531958

>  <r_i_glide_emodel_strain>  (1) 
0.0063298601635768392

>  <r_i_glide_energy>  (1) 
-15.866499641333549

>  <r_i_glide_erotb>  (1) 
0

>  <r_i_glide_esite>  (1) 
0

>  <r_i_glide_evdw>  (1) 
-15.826943184255098

>  <r_i_glide_gscore>  (1) 
-4.5154730540989183

>  <r_i_glide_gscore_strain>  (1) 
0

>  <r_i_glide_hbond>  (1) 
0

>  <r_i_glide_ligand_efficiency>  (1) 
-0.64506757915698831

>  <r_i_glide_ligand_efficiency_ln>  (1) 
-1.5327938822393914

>  <r_i_glide_ligand_efficiency_sa>  (1) 
-1.2339698871648994

>  <r_i_glide_lipo>  (1) 
-1.3015257596577285

>  <r_i_glide_metal>  (1) 
-0

>  <r_i_glide_rewards>  (1) 
-2.4166666666666665

>  <r_lp_Energy>  (1) 
0.043719999999999995

>  <r_lp_tautomer_probability>  (1) 
1

>  <s_epik_cmdline>  (1) 
J2VwaWtfcHl0aG9uJywgJy1waHQnLCAnMS4wJywgJy1waCcsICc3LjQnLCAnLXRuJywgJzgnLCAnLW1hJywgJzUwMCcsICctaW1hZScsICc8aW5maWxlLm1hZT4nLCAnLW9tYWUnLCAnPG91dGZpbGUubWFlPic=

>  <s_epik_input>  (1) 
W0NIMl0xW0NIMl1bQ0gyXU9DMShbQ0gzXSlbQ0gzXQ==

>  <s_glide_docking_method>  (1) 
confgen

>  <s_i_glide_gridfile>  (1) 
gpcr_drd2_6luq_protein_autoprepared_prepared

>  <s_lp_Force_Field>  (1) 
S-OPLS

>  <s_lp_Variant>  (1) 
Pocket2Mol_16-1

>  <s_m_source_file>  (1) 
generated_generic_title2_ligand_Pocket2Mol_2026-06-23_prepared.sdf

>  <GenAI_Model>  (1) 
Pocket2Mol

>  <Protein>  (1) 
generic_title2

$$$$
Pocket2Mol_44
     RDKit          3D

  0  0  0  0  0  0  0  0  0  0999 V3000
M  V30 BEGIN CTAB
M  V30 COUNTS 8 8 0 0 1
M  V30 BEGIN ATOM
M  V30 1 N 11.375403 8.210437 -5.218671 0
M  V30 2 C 11.317308 6.895975 -4.733896 0
M  V30 3 C 11.775410 6.790226 -3.433832 0
M  V30 4 C 11.870697 9.062728 -4.330342 0
M  V30 5 S 12.313773 8.338781 -2.808983 0
M  V30 6 H 10.933049 6.109272 -5.366983 0
M  V30 7 H 11.834058 5.904957 -2.816843 0
M  V30 8 H 11.974380 10.109650 -4.571530 0
M  V30 END ATOM
M  V30 BEGIN BOND
M  V30 1 1 2 1
M  V30 2 2 3 2
M  V30 3 2 4 1
M  V30 4 1 5 3
M  V30 5 1 5 4
M  V30 6 1 6 2
M  V30 7 1 7 3
M  V30 8 1 8 4
M  V30 END BOND
M  V30 END CTAB
M  END
>  <i_epik_Tot_Q>  (1) 
0

>  <i_epik_Tot_abs_Q>  (1) 
0

>  <i_i_glide_confnum>  (1) 
1

>  <i_i_glide_lignum>  (1) 
49

>  <i_i_glide_posenum>  (1) 
29

>  <i_i_glide_rotatable_bonds>  (1) 
0

>  <i_lp_mmshare_version>  (1) 
72125

>  <i_m_source_file_index>  (1) 
45

>  <i_f3d_flags>  (1) 
0

>  <num_sample>  (1) 
100

>  <b_lp_Chiralities_Consistent>  (1) 
1

>  <r_epik_Charging_Adjusted_Penalty>  (1) 
0

>  <r_epik_Ionization_Penalty>  (1) 
1.4882382677604034e-05

>  <r_epik_Ionization_Penalty_Charging>  (1) 
0

>  <r_epik_Ionization_Penalty_Neutral>  (1) 
1.4882382677604034e-05

>  <r_epik_State_Penalty>  (1) 
-0

>  <r_glide_ring_energy>  (1) 
0

>  <r_i_docking_score>  (1) 
-4.5135898809317174

>  <r_i_glide_ecoul>  (1) 
-0.95980317921075775

>  <r_i_glide_eff_state_penalty>  (1) 
-0

>  <r_i_glide_einternal>  (1) 
0

>  <r_i_glide_emodel>  (1) 
-19.743369135104334

>  <r_i_glide_emodel_strain>  (1) 
0

>  <r_i_glide_energy>  (1) 
-15.122941371606071

>  <r_i_glide_erotb>  (1) 
0

>  <r_i_glide_esite>  (1) 
0

>  <r_i_glide_evdw>  (1) 
-14.163138192395314

>  <r_i_glide_gscore>  (1) 
-4.5135898809317174

>  <r_i_glide_gscore_strain>  (1) 
0

>  <r_i_glide_hbond>  (1) 
0

>  <r_i_glide_ligand_efficiency>  (1) 
-0.90271797618634353

>  <r_i_glide_ligand_efficiency_ln>  (1) 
-1.7297172925342423

>  <r_i_glide_ligand_efficiency_sa>  (1) 
-1.5436260259113148

>  <r_i_glide_lipo>  (1) 
-1.2450613762219209

>  <r_i_glide_metal>  (1) 
-0

>  <r_i_glide_rewards>  (1) 
-2.4164011182084173

>  <r_lp_Energy>  (1) 
1.6688799999999999

>  <r_lp_tautomer_probability>  (1) 
1

>  <s_epik_cmdline>  (1) 
J2VwaWtfcHl0aG9uJywgJy1waHQnLCAnMS4wJywgJy1waCcsICc3LjQnLCAnLXRuJywgJzgnLCAnLW1hJywgJzUwMCcsICctaW1hZScsICc8aW5maWxlLm1hZT4nLCAnLW9tYWUnLCAnPG91dGZpbGUubWFlPic=

>  <s_epik_input>  (1) 
bjFbY0hdW2NIXXNbY0hdMQ==

>  <s_glide_docking_method>  (1) 
confgen

>  <s_i_glide_gridfile>  (1) 
gpcr_drd2_6luq_protein_autoprepared_prepared

>  <s_lp_Force_Field>  (1) 
S-OPLS

>  <s_lp_Variant>  (1) 
Pocket2Mol_44-1

>  <s_m_source_file>  (1) 
generated_generic_title2_ligand_Pocket2Mol_2026-06-23_prepared.sdf

>  <GenAI_Model>  (1) 
Pocket2Mol

>  <Protein>  (1) 
generic_title2

$$$$
Pocket2Mol_35
     RDKit          3D

  0  0  0  0  0  0  0  0  0  0999 V3000
M  V30 BEGIN CTAB
M  V30 COUNTS 17 18 0 0 1
M  V30 BEGIN ATOM
M  V30 1 C 11.722483 8.935190 -4.996802 0
M  V30 2 O 10.863530 7.742466 -5.185026 0
M  V30 3 C 10.694849 7.734217 -6.521700 0
M  V30 4 C 11.368398 8.682769 -7.206333 0
M  V30 5 C 11.267592 8.763768 -8.608198 0
M  V30 6 N 10.473953 7.877204 -9.256854 0 CHG=1
M  V30 7 C 9.775409 6.911083 -8.604144 0
M  V30 8 C 9.871564 6.811791 -7.195772 0
M  V30 9 C 12.175385 9.590225 -6.385025 0
M  V30 10 H 12.586851 8.674330 -4.385086 0
M  V30 11 H 11.152031 9.665301 -4.420683 0
M  V30 12 H 11.775405 9.495448 -9.220864 0
M  V30 13 H 9.167129 6.262055 -9.219649 0
M  V30 14 H 9.323939 6.055168 -6.653278 0
M  V30 15 H 13.242216 9.482207 -6.583133 0
M  V30 16 H 11.859396 10.629910 -6.478979 0
M  V30 17 H 10.391967 7.939758 -10.272568 0
M  V30 END ATOM
M  V30 BEGIN BOND
M  V30 1 1 2 1
M  V30 2 1 3 2
M  V30 3 2 4 3
M  V30 4 1 5 4
M  V30 5 2 6 5
M  V30 6 1 7 6
M  V30 7 1 8 3
M  V30 8 2 8 7
M  V30 9 1 9 1
M  V30 10 1 9 4
M  V30 11 1 10 1
M  V30 12 1 11 1
M  V30 13 1 12 5
M  V30 14 1 13 7
M  V30 15 1 14 8
M  V30 16 1 15 9
M  V30 17 1 16 9
M  V30 18 1 17 6
M  V30 END BOND
M  V30 END CTAB
M  END
>  <i_epik_Tot_Q>  (1) 
1

>  <i_epik_Tot_abs_Q>  (1) 
1

>  <i_i_glide_confnum>  (1) 
1

>  <i_i_glide_lignum>  (1) 
39

>  <i_i_glide_posenum>  (1) 
144

>  <i_i_glide_rotatable_bonds>  (1) 
0

>  <i_lp_mmshare_version>  (1) 
72125

>  <i_m_source_file_index>  (1) 
36

>  <i_f3d_flags>  (1) 
0

>  <num_sample>  (1) 
100

>  <b_lp_Chiralities_Consistent>  (1) 
1

>  <r_epik_Charging_Adjusted_Penalty>  (1) 
0.75885481127580245

>  <r_epik_Ionization_Penalty>  (1) 
0.37942740563790117

>  <r_epik_Ionization_Penalty_Charging>  (1) 
0.37942740563790117

>  <r_epik_Ionization_Penalty_Neutral>  (1) 
0

>  <r_epik_State_Penalty>  (1) 
0.37942740563790123

>  <r_glide_ring_energy>  (1) 
0

>  <r_i_docking_score>  (1) 
-4.5078510930634028

>  <r_i_glide_ecoul>  (1) 
-1.03444744698946

>  <r_i_glide_eff_state_penalty>  (1) 
0.37942740563790123

>  <r_i_glide_einternal>  (1) 
0

>  <r_i_glide_emodel>  (1) 
-27.775669457275146

>  <r_i_glide_emodel_strain>  (1) 
5.546070269701886e-10

>  <r_i_glide_energy>  (1) 
-18.478556883803048

>  <r_i_glide_erotb>  (1) 
0

>  <r_i_glide_esite>  (1) 
-0.031512895056690186

>  <r_i_glide_evdw>  (1) 
-17.444109436813587

>  <r_i_glide_gscore>  (1) 
-4.8872784987013036

>  <r_i_glide_gscore_strain>  (1) 
0

>  <r_i_glide_hbond>  (1) 
0

>  <r_i_glide_ligand_efficiency>  (1) 
-0.50087234367371147

>  <r_i_glide_ligand_efficiency_ln>  (1) 
-1.4099263232922903

>  <r_i_glide_ligand_efficiency_sa>  (1) 
-1.041856459489781

>  <r_i_glide_lipo>  (1) 
-1.253393014755515

>  <r_i_glide_metal>  (1) 
-0

>  <r_i_glide_rewards>  (1) 
-2.5750000000000002

>  <r_lp_Energy>  (1) 
18.327531999999998

>  <s_epik_cmdline>  (1) 
J2VwaWtfcHl0aG9uJywgJy1waHQnLCAnMS4wJywgJy1waCcsICc3LjQnLCAnLXRuJywgJzgnLCAnLW1hJywgJzUwMCcsICctaW1hZScsICc8aW5maWxlLm1hZT4nLCAnLW9tYWUnLCAnPG91dGZpbGUubWFlPic=

>  <s_epik_input>  (1) 
TzFbQ0gyXVtDSDJdYyhjMTIpW2NIXW5bY0hdW2NIXTI=

>  <s_glide_docking_method>  (1) 
confgen

>  <s_i_glide_gridfile>  (1) 
gpcr_drd2_6luq_protein_autoprepared_prepared

>  <s_lp_Force_Field>  (1) 
S-OPLS

>  <s_lp_Variant>  (1) 
Pocket2Mol_35-1

>  <s_m_source_file>  (1) 
generated_generic_title2_ligand_Pocket2Mol_2026-06-23_prepared.sdf

>  <GenAI_Model>  (1) 
Pocket2Mol

>  <Protein>  (1) 
generic_title2

$$$$
Pocket2Mol_40
     RDKit          3D

  0  0  0  0  0  0  0  0  0  0999 V3000
M  V30 BEGIN CTAB
M  V30 COUNTS 14 14 0 0 1
M  V30 BEGIN ATOM
M  V30 1 C 10.046600 7.057324 -7.906846 0
M  V30 2 O 10.579593 6.177669 -6.931261 0
M  V30 3 C 11.184783 6.774872 -5.850933 0
M  V30 4 C 9.375516 8.244920 -7.222895 0
M  V30 5 O 10.316190 8.901876 -6.395517 0
M  V30 6 C 11.079072 8.098403 -5.579661 0
M  V30 7 C 11.775263 8.773455 -4.353906 0
M  V30 8 O 11.542832 9.990227 -4.203284 0 CHG=-1
M  V30 9 O 12.479174 8.027424 -3.635251 0
M  V30 10 H 9.329679 6.519013 -8.528055 0
M  V30 11 H 10.850009 7.395156 -8.561839 0
M  V30 12 H 11.754329 6.072574 -5.259611 0
M  V30 13 H 8.530267 7.920398 -6.616994 0
M  V30 14 H 8.989995 8.943947 -7.966690 0
M  V30 END ATOM
M  V30 BEGIN BOND
M  V30 1 1 2 1
M  V30 2 1 3 2
M  V30 3 1 4 1
M  V30 4 1 5 4
M  V30 5 2 6 3
M  V30 6 1 6 5
M  V30 7 1 7 6
M  V30 8 1 8 7
M  V30 9 2 9 7
M  V30 10 1 10 1
M  V30 11 1 11 1
M  V30 12 1 12 3
M  V30 13 1 13 4
M  V30 14 1 14 4
M  V30 END BOND
M  V30 END CTAB
M  END
>  <i_epik_Tot_Q>  (1) 
-1

>  <i_epik_Tot_abs_Q>  (1) 
1

>  <i_i_glide_confnum>  (1) 
1

>  <i_i_glide_lignum>  (1) 
45

>  <i_i_glide_posenum>  (1) 
19

>  <i_i_glide_rotatable_bonds>  (1) 
1

>  <i_lp_mmshare_version>  (1) 
72125

>  <i_m_source_file_index>  (1) 
41

>  <i_f3d_flags>  (1) 
0

>  <num_sample>  (1) 
100

>  <b_lp_Chiralities_Consistent>  (1) 
1

>  <r_epik_Charging_Adjusted_Penalty>  (1) 
1.9393830553820406e-05

>  <r_epik_Ionization_Penalty>  (1) 
1.9393830553820406e-05

>  <r_epik_Ionization_Penalty_Charging>  (1) 
1.9393830553820406e-05

>  <r_epik_Ionization_Penalty_Neutral>  (1) 
0

>  <r_epik_State_Penalty>  (1) 
-0

>  <r_glide_ring_energy>  (1) 
0

>  <r_i_docking_score>  (1) 
-4.5075279074408012

>  <r_i_glide_ecoul>  (1) 
-1.1733368217147442

>  <r_i_glide_eff_state_penalty>  (1) 
-0

>  <r_i_glide_einternal>  (1) 
0.029836119050713705

>  <r_i_glide_emodel>  (1) 
-22.725125994602742

>  <r_i_glide_emodel_strain>  (1) 
0

>  <r_i_glide_energy>  (1) 
-16.117227620561195

>  <r_i_glide_erotb>  (1) 
0

>  <r_i_glide_esite>  (1) 
0

>  <r_i_glide_evdw>  (1) 
-14.943890798846452

>  <r_i_glide_gscore>  (1) 
-4.5075279074408012

>  <r_i_glide_gscore_strain>  (1) 
0

>  <r_i_glide_hbond>  (1) 
0

>  <r_i_glide_ligand_efficiency>  (1) 
-0.50083643416008905

>  <r_i_glide_ligand_efficiency_ln>  (1) 
-1.4098252401138072

>  <r_i_glide_ligand_efficiency_sa>  (1) 
-1.0417817646914014

>  <r_i_glide_lipo>  (1) 
-0.60844402720109925

>  <r_i_glide_metal>  (1) 
-0

>  <r_i_glide_rewards>  (1) 
-2.9758888170401683

>  <r_lp_Energy>  (1) 
18.695968999999998

>  <r_lp_tautomer_probability>  (1) 
1

>  <s_epik_cmdline>  (1) 
J2VwaWtfcHl0aG9uJywgJy1waHQnLCAnMS4wJywgJy1waCcsICc3LjQnLCAnLXRuJywgJzgnLCAnLW1hJywgJzUwMCcsICctaW1hZScsICc8aW5maWxlLm1hZT4nLCAnLW9tYWUnLCAnPG91dGZpbGUubWFlPic=

>  <s_epik_input>  (1) 
TzFbQ0gyXVtDSDJdT1tDSF09QzFDKD1PKVtPSF0=

>  <s_glide_docking_method>  (1) 
confgen

>  <s_i_glide_gridfile>  (1) 
gpcr_drd2_6luq_protein_autoprepared_prepared

>  <s_lp_Force_Field>  (1) 
S-OPLS

>  <s_lp_Variant>  (1) 
Pocket2Mol_40-1

>  <s_m_source_file>  (1) 
generated_generic_title2_ligand_Pocket2Mol_2026-06-23_prepared.sdf

>  <GenAI_Model>  (1) 
Pocket2Mol

>  <Protein>  (1) 
generic_title2

$$$$
Pocket2Mol_42
     RDKit          3D

  0  0  0  0  0  0  0  0  0  0999 V3000
M  V30 BEGIN CTAB
M  V30 COUNTS 23 24 0 0 1
M  V30 BEGIN ATOM
M  V30 1 C 9.383535 5.927104 -8.068590 0
M  V30 2 O 10.622510 6.390236 -8.574194 0
M  V30 3 C 10.715537 7.787642 -8.329202 0 CFG=2
M  V30 4 C 10.238020 8.512562 -9.585062 0
M  V30 5 C 12.142219 8.196156 -7.938221 0
M  V30 6 C 9.279769 6.680550 -6.754499 0
M  V30 7 C 11.972916 9.190227 -6.785694 0
M  V30 8 C 9.840790 8.053922 -7.094728 0 CFG=1
M  V30 9 C 10.752354 8.679108 -6.023509 0
M  V30 10 H 8.575424 6.200820 -8.747202 0
M  V30 11 H 9.375222 4.844364 -7.943547 0
M  V30 12 H 10.323856 9.590222 -9.465484 0
M  V30 13 H 10.837568 8.228594 -10.449785 0
M  V30 14 H 9.198661 8.284459 -9.818588 0
M  V30 15 H 12.677566 7.317045 -7.585033 0
M  V30 16 H 12.716900 8.610026 -8.767967 0
M  V30 17 H 8.255379 6.721410 -6.385027 0
M  V30 18 H 9.888668 6.175456 -6.004516 0
M  V30 19 H 12.860977 9.262745 -6.158108 0
M  V30 20 H 11.775413 10.183569 -7.184707 0
M  V30 21 H 9.028651 8.737080 -7.351291 0
M  V30 22 H 11.072320 7.932957 -5.295460 0
M  V30 23 H 10.254531 9.478173 -5.475892 0
M  V30 END ATOM
M  V30 BEGIN BOND
M  V30 1 1 2 1
M  V30 2 1 3 2
M  V30 3 1 3 4 CFG=3
M  V30 4 1 5 3
M  V30 5 1 6 1
M  V30 6 1 7 5
M  V30 7 1 8 3
M  V30 8 1 8 6
M  V30 9 1 9 7
M  V30 10 1 9 8
M  V30 11 1 10 1
M  V30 12 1 11 1
M  V30 13 1 12 4
M  V30 14 1 13 4
M  V30 15 1 14 4
M  V30 16 1 15 5
M  V30 17 1 16 5
M  V30 18 1 17 6
M  V30 19 1 18 6
M  V30 20 1 19 7
M  V30 21 1 20 7
M  V30 22 1 8 21 CFG=3
M  V30 23 1 22 9
M  V30 24 1 23 9
M  V30 END BOND
M  V30 END CTAB
M  END
>  <i_epik_Tot_Q>  (1) 
0

>  <i_epik_Tot_abs_Q>  (1) 
0

>  <i_i_glide_confnum>  (1) 
4

>  <i_i_glide_lignum>  (1) 
47

>  <i_i_glide_posenum>  (1) 
373

>  <i_i_glide_rotatable_bonds>  (1) 
0

>  <i_lp_mmshare_version>  (1) 
72125

>  <i_m_source_file_index>  (1) 
43

>  <i_f3d_flags>  (1) 
0

>  <num_sample>  (1) 
100

>  <b_lp_Chiralities_Consistent>  (1) 
1

>  <r_epik_Charging_Adjusted_Penalty>  (1) 
0

>  <r_epik_Ionization_Penalty>  (1) 
2.4347883345708157e-11

>  <r_epik_Ionization_Penalty_Charging>  (1) 
0

>  <r_epik_Ionization_Penalty_Neutral>  (1) 
2.4347883345708157e-11

>  <r_epik_State_Penalty>  (1) 
-0

>  <r_glide_ring_energy>  (1) 
1.4300080397860451

>  <r_i_docking_score>  (1) 
-4.5070291186579823

>  <r_i_glide_ecoul>  (1) 
-0.28312951591553859

>  <r_i_glide_eff_state_penalty>  (1) 
-0

>  <r_i_glide_einternal>  (1) 
0

>  <r_i_glide_emodel>  (1) 
-22.425552583931108

>  <r_i_glide_emodel_strain>  (1) 
0

>  <r_i_glide_energy>  (1) 
-17.580154879493612

>  <r_i_glide_erotb>  (1) 
0

>  <r_i_glide_esite>  (1) 
0

>  <r_i_glide_evdw>  (1) 
-17.297025363578072

>  <r_i_glide_gscore>  (1) 
-4.5070291186579823

>  <r_i_glide_gscore_strain>  (1) 
0

>  <r_i_glide_hbond>  (1) 
0

>  <r_i_glide_ligand_efficiency>  (1) 
-0.5007810131842203

>  <r_i_glide_ligand_efficiency_ln>  (1) 
-1.4096692333114216

>  <r_i_glide_ligand_efficiency_sa>  (1) 
-1.041666484416039

>  <r_i_glide_lipo>  (1) 
-0.71001802956025295

>  <r_i_glide_metal>  (1) 
-0

>  <r_i_glide_rewards>  (1) 
-2.8896903935314944

>  <r_lp_Energy>  (1) 
5.4699619999999998

>  <r_lp_tautomer_probability>  (1) 
1

>  <s_epik_cmdline>  (1) 
J2VwaWtfcHl0aG9uJywgJy1waHQnLCAnMS4wJywgJy1waCcsICc3LjQnLCAnLXRuJywgJzgnLCAnLW1hJywgJzUwMCcsICctaW1hZScsICc8aW5maWxlLm1hZT4nLCAnLW9tYWUnLCAnPG91dGZpbGUubWFlPic=

>  <s_epik_input>  (1) 
TzFbQ0gyXVtDSDJdW0NASF0oW0NAXTEyW0NIM10pW0NIMl1bQ0gyXVtDSDJdMg==

>  <s_glide_docking_method>  (1) 
confgen

>  <s_i_glide_gridfile>  (1) 
gpcr_drd2_6luq_protein_autoprepared_prepared

>  <s_lp_Force_Field>  (1) 
S-OPLS

>  <s_lp_Variant>  (1) 
Pocket2Mol_42-1

>  <s_m_source_file>  (1) 
generated_generic_title2_ligand_Pocket2Mol_2026-06-23_prepared.sdf

>  <GenAI_Model>  (1) 
Pocket2Mol

>  <Protein>  (1) 
generic_title2

$$$$
Pocket2Mol_85
     RDKit          3D

  0  0  0  0  0  0  0  0  0  0999 V3000
M  V30 BEGIN CTAB
M  V30 COUNTS 22 23 0 0 1
M  V30 BEGIN ATOM
M  V30 1 C 7.991790 4.819964 -10.170144 0
M  V30 2 O 8.228171 5.989680 -10.931715 0
M  V30 3 C 8.228636 5.069960 -8.678521 0
M  V30 4 O 9.609005 5.112051 -8.375268 0
M  V30 5 C 9.592231 6.355322 -11.026625 0
M  V30 6 C 10.175056 6.350646 -8.533680 0
M  V30 7 C 10.773698 7.016184 -7.448511 0
M  V30 8 C 10.191007 6.996833 -9.776614 0
M  V30 9 C 10.797290 6.390471 -6.071024 0
M  V30 10 N 11.358321 8.236063 -7.562690 0
M  V30 11 N 11.376661 8.848872 -8.762140 0
M  V30 12 C 10.807332 8.252178 -9.839630 0
M  V30 13 H 6.946936 4.545545 -10.317805 0
M  V30 14 H 8.593079 3.990219 -10.540149 0
M  V30 15 H 7.755739 5.990227 -8.353389 0
M  V30 16 H 7.781598 4.266159 -8.093904 0
M  V30 17 H 10.175753 5.489412 -11.331847 0
M  V30 18 H 9.668621 7.066372 -11.849509 0
M  V30 19 H 9.814823 5.990227 -5.822842 0
M  V30 20 H 11.057251 7.125184 -5.308430 0
M  V30 21 H 11.534256 5.590228 -6.039808 0
M  V30 22 H 10.860767 8.790217 -10.768700 0
M  V30 END ATOM
M  V30 BEGIN BOND
M  V30 1 1 2 1
M  V30 2 1 3 1
M  V30 3 1 4 3
M  V30 4 1 5 2
M  V30 5 1 6 4
M  V30 6 1 7 6
M  V30 7 1 8 5
M  V30 8 2 8 6
M  V30 9 1 9 7
M  V30 10 2 10 7
M  V30 11 1 11 10
M  V30 12 1 12 8
M  V30 13 2 12 11
M  V30 14 1 13 1
M  V30 15 1 14 1
M  V30 16 1 15 3
M  V30 17 1 16 3
M  V30 18 1 17 5
M  V30 19 1 18 5
M  V30 20 1 19 9
M  V30 21 1 20 9
M  V30 22 1 21 9
M  V30 23 1 22 12
M  V30 END BOND
M  V30 END CTAB
M  END
>  <i_epik_Tot_Q>  (1) 
0

>  <i_epik_Tot_abs_Q>  (1) 
0

>  <i_i_glide_confnum>  (1) 
1

>  <i_i_glide_lignum>  (1) 
92

>  <i_i_glide_posenum>  (1) 
267

>  <i_i_glide_rotatable_bonds>  (1) 
0

>  <i_lp_mmshare_version>  (1) 
72125

>  <i_m_source_file_index>  (1) 
86

>  <i_f3d_flags>  (1) 
0

>  <num_sample>  (1) 
100

>  <b_lp_Chiralities_Consistent>  (1) 
1

>  <r_epik_Charging_Adjusted_Penalty>  (1) 
0.0091269655628041547

>  <r_epik_Ionization_Penalty>  (1) 
0.0091374853106045584

>  <r_epik_Ionization_Penalty_Charging>  (1) 
0

>  <r_epik_Ionization_Penalty_Neutral>  (1) 
0.0091374853106045584

>  <r_epik_State_Penalty>  (1) 
0.0091269655628041547

>  <r_glide_ring_energy>  (1) 
0

>  <r_i_docking_score>  (1) 
-4.5059262751555904

>  <r_i_glide_ecoul>  (1) 
-0.57631939522313302

>  <r_i_glide_eff_state_penalty>  (1) 
0.0091269655628041547

>  <r_i_glide_einternal>  (1) 
0

>  <r_i_glide_emodel>  (1) 
-25.062339699404106

>  <r_i_glide_emodel_strain>  (1) 
0

>  <r_i_glide_energy>  (1) 
-19.679792151204396

>  <r_i_glide_erotb>  (1) 
0

>  <r_i_glide_esite>  (1) 
0

>  <r_i_glide_evdw>  (1) 
-19.103472755981262

>  <r_i_glide_gscore>  (1) 
-4.5150532407183945

>  <r_i_glide_gscore_strain>  (1) 
0

>  <r_i_glide_hbond>  (1) 
0

>  <r_i_glide_ligand_efficiency>  (1) 
-0.37549385626296589

>  <r_i_glide_ligand_efficiency_ln>  (1) 
-1.2929833501938144

>  <r_i_glide_ligand_efficiency_sa>  (1) 
-0.8596663305109814

>  <r_i_glide_lipo>  (1) 
-0.4214689215558039

>  <r_i_glide_metal>  (1) 
-0

>  <r_i_glide_rewards>  (1) 
-3.0519627720800573

>  <r_lp_Energy>  (1) 
19.395567

>  <r_lp_tautomer_probability>  (1) 
1

>  <s_epik_cmdline>  (1) 
J2VwaWtfcHl0aG9uJywgJy1waHQnLCAnMS4wJywgJy1waCcsICc3LjQnLCAnLXRuJywgJzgnLCAnLW1hJywgJzUwMCcsICctaW1hZScsICc8aW5maWxlLm1hZT4nLCAnLW9tYWUnLCAnPG91dGZpbGUubWFlPic=

>  <s_epik_input>  (1) 
TzFbQ0gyXVtDSDJdT1tDSDJdYyhjMTIpW2NIXW5uYzJbQ0gzXQ==

>  <s_glide_docking_method>  (1) 
confgen

>  <s_i_glide_gridfile>  (1) 
gpcr_drd2_6luq_protein_autoprepared_prepared

>  <s_lp_Force_Field>  (1) 
S-OPLS

>  <s_lp_Variant>  (1) 
Pocket2Mol_85-1

>  <s_m_source_file>  (1) 
generated_generic_title2_ligand_Pocket2Mol_2026-06-23_prepared.sdf

>  <GenAI_Model>  (1) 
Pocket2Mol

>  <Protein>  (1) 
generic_title2

$$$$
Pocket2Mol_79
     RDKit          3D

  0  0  0  0  0  0  0  0  0  0999 V3000
M  V30 BEGIN CTAB
M  V30 COUNTS 24 25 0 0 1
M  V30 BEGIN ATOM
M  V30 1 C 11.750826 9.020895 -7.577017 0
M  V30 2 O 10.807234 8.315284 -6.790131 0
M  V30 3 C 11.341544 9.061290 -9.054379 0
M  V30 4 O 11.533302 7.800952 -9.666952 0
M  V30 5 C 10.812456 6.913049 -7.011364 0
M  V30 6 C 10.466896 6.945201 -9.540281 0
M  V30 7 C 9.775410 6.514022 -10.695222 0
M  V30 8 C 10.065503 6.477903 -8.263475 0
M  V30 9 C 10.201797 7.004552 -12.063477 0
M  V30 10 C 8.687953 5.626180 -10.575135 0
M  V30 11 C 8.287640 5.170358 -9.306940 0
M  V30 12 C 8.975412 5.590757 -8.154389 0
M  V30 13 H 11.775413 10.036625 -7.185027 0
M  V30 14 H 12.756861 8.617115 -7.456246 0
M  V30 15 H 10.312367 9.398395 -9.185022 0
M  V30 16 H 11.969888 9.776510 -9.585023 0
M  V30 17 H 10.338181 6.453680 -6.143371 0
M  V30 18 H 11.829557 6.520339 -7.035230 0
M  V30 19 H 11.287391 7.070880 -12.137582 0
M  V30 20 H 9.857270 6.323739 -12.841679 0
M  V30 21 H 9.776877 7.990220 -12.254873 0
M  V30 22 H 8.157317 5.298679 -11.456656 0
M  V30 23 H 7.450150 4.493932 -9.217300 0
M  V30 24 H 8.664760 5.234587 -7.185024 0
M  V30 END ATOM
M  V30 BEGIN BOND
M  V30 1 1 2 1
M  V30 2 1 3 1
M  V30 3 1 4 3
M  V30 4 1 5 2
M  V30 5 1 6 4
M  V30 6 2 7 6
M  V30 7 1 8 5
M  V30 8 1 8 6
M  V30 9 1 9 7
M  V30 10 1 10 7
M  V30 11 2 11 10
M  V30 12 2 12 8
M  V30 13 1 12 11
M  V30 14 1 13 1
M  V30 15 1 14 1
M  V30 16 1 15 3
M  V30 17 1 16 3
M  V30 18 1 17 5
M  V30 19 1 18 5
M  V30 20 1 19 9
M  V30 21 1 20 9
M  V30 22 1 21 9
M  V30 23 1 22 10
M  V30 24 1 23 11
M  V30 25 1 24 12
M  V30 END BOND
M  V30 END CTAB
M  END
>  <i_epik_Tot_Q>  (1) 
0

>  <i_epik_Tot_abs_Q>  (1) 
0

>  <i_i_glide_confnum>  (1) 
1

>  <i_i_glide_lignum>  (1) 
86

>  <i_i_glide_posenum>  (1) 
60

>  <i_i_glide_rotatable_bonds>  (1) 
0

>  <i_lp_mmshare_version>  (1) 
72125

>  <i_m_source_file_index>  (1) 
80

>  <i_f3d_flags>  (1) 
0

>  <num_sample>  (1) 
100

>  <b_lp_Chiralities_Consistent>  (1) 
1

>  <r_epik_Charging_Adjusted_Penalty>  (1) 
0

>  <r_epik_Ionization_Penalty>  (1) 
2.8363962595523293e-13

>  <r_epik_Ionization_Penalty_Charging>  (1) 
0

>  <r_epik_Ionization_Penalty_Neutral>  (1) 
2.8363962595523293e-13

>  <r_epik_State_Penalty>  (1) 
-0

>  <r_glide_ring_energy>  (1) 
0

>  <r_i_docking_score>  (1) 
-4.4890398077277922

>  <r_i_glide_ecoul>  (1) 
0.2770501034629016

>  <r_i_glide_eff_state_penalty>  (1) 
-0

>  <r_i_glide_einternal>  (1) 
0

>  <r_i_glide_emodel>  (1) 
-23.594113077915384

>  <r_i_glide_emodel_strain>  (1) 
0.010434700540987052

>  <r_i_glide_energy>  (1) 
-18.219333622106163

>  <r_i_glide_erotb>  (1) 
0

>  <r_i_glide_esite>  (1) 
0

>  <r_i_glide_evdw>  (1) 
-18.496383725569064

>  <r_i_glide_gscore>  (1) 
-4.4890398077277922

>  <r_i_glide_gscore_strain>  (1) 
0

>  <r_i_glide_hbond>  (1) 
0

>  <r_i_glide_ligand_efficiency>  (1) 
-0.37408665064398267

>  <r_i_glide_ligand_efficiency_ln>  (1) 
-1.2881377491132731

>  <r_i_glide_ligand_efficiency_sa>  (1) 
-0.85644463388247905

>  <r_i_glide_lipo>  (1) 
-0.55663337465850871

>  <r_i_glide_metal>  (1) 
-0

>  <r_i_glide_rewards>  (1) 
-3.0491447623102657

>  <r_lp_Energy>  (1) 
16.059718999999998

>  <r_lp_tautomer_probability>  (1) 
1

>  <s_epik_cmdline>  (1) 
J2VwaWtfcHl0aG9uJywgJy1waHQnLCAnMS4wJywgJy1waCcsICc3LjQnLCAnLXRuJywgJzgnLCAnLW1hJywgJzUwMCcsICctaW1hZScsICc8aW5maWxlLm1hZT4nLCAnLW9tYWUnLCAnPG91dGZpbGUubWFlPic=

>  <s_epik_input>  (1) 
TzFbQ0gyXVtDSDJdT1tDSDJdYyhjMTIpW2NIXVtjSF1bY0hdYzJbQ0gzXQ==

>  <s_glide_docking_method>  (1) 
confgen

>  <s_i_glide_gridfile>  (1) 
gpcr_drd2_6luq_protein_autoprepared_prepared

>  <s_lp_Force_Field>  (1) 
S-OPLS

>  <s_lp_Variant>  (1) 
Pocket2Mol_79-1

>  <s_m_source_file>  (1) 
generated_generic_title2_ligand_Pocket2Mol_2026-06-23_prepared.sdf

>  <GenAI_Model>  (1) 
Pocket2Mol

>  <Protein>  (1) 
generic_title2

$$$$
Pocket2Mol_44
     RDKit          3D

  0  0  0  0  0  0  0  0  0  0999 V3000
M  V30 BEGIN CTAB
M  V30 COUNTS 8 8 0 0 1
M  V30 BEGIN ATOM
M  V30 1 N 11.775385 7.758018 -4.240972 0
M  V30 2 C 10.975505 7.379408 -5.330762 0
M  V30 3 C 10.664880 8.444907 -6.155292 0
M  V30 4 C 12.062728 9.054384 -4.243563 0
M  V30 5 S 11.375411 9.936852 -5.577591 0
M  V30 6 H 10.675752 6.346480 -5.440605 0
M  V30 7 H 10.066334 8.439885 -7.056641 0
M  V30 8 H 12.673644 9.484576 -3.462101 0
M  V30 END ATOM
M  V30 BEGIN BOND
M  V30 1 1 2 1
M  V30 2 2 3 2
M  V30 3 2 4 1
M  V30 4 1 5 3
M  V30 5 1 5 4
M  V30 6 1 6 2
M  V30 7 1 7 3
M  V30 8 1 8 4
M  V30 END BOND
M  V30 END CTAB
M  END
>  <i_epik_Tot_Q>  (1) 
0

>  <i_epik_Tot_abs_Q>  (1) 
0

>  <i_i_glide_confnum>  (1) 
1

>  <i_i_glide_lignum>  (1) 
49

>  <i_i_glide_posenum>  (1) 
319

>  <i_i_glide_rotatable_bonds>  (1) 
0

>  <i_lp_mmshare_version>  (1) 
72125

>  <i_m_source_file_index>  (1) 
45

>  <i_f3d_flags>  (1) 
0

>  <num_sample>  (1) 
100

>  <b_lp_Chiralities_Consistent>  (1) 
1

>  <r_epik_Charging_Adjusted_Penalty>  (1) 
0

>  <r_epik_Ionization_Penalty>  (1) 
1.4882382677604034e-05

>  <r_epik_Ionization_Penalty_Charging>  (1) 
0

>  <r_epik_Ionization_Penalty_Neutral>  (1) 
1.4882382677604034e-05

>  <r_epik_State_Penalty>  (1) 
-0

>  <r_glide_ring_energy>  (1) 
0

>  <r_i_docking_score>  (1) 
-4.4823729431692305

>  <r_i_glide_ecoul>  (1) 
-1.0090530657878356

>  <r_i_glide_eff_state_penalty>  (1) 
-0

>  <r_i_glide_einternal>  (1) 
0

>  <r_i_glide_emodel>  (1) 
-19.575328627555191

>  <r_i_glide_emodel_strain>  (1) 
0

>  <r_i_glide_energy>  (1) 
-14.986856715105453

>  <r_i_glide_erotb>  (1) 
0

>  <r_i_glide_esite>  (1) 
0

>  <r_i_glide_evdw>  (1) 
-13.977803649317618

>  <r_i_glide_gscore>  (1) 
-4.4823729431692305

>  <r_i_glide_gscore_strain>  (1) 
0

>  <r_i_glide_hbond>  (1) 
0

>  <r_i_glide_ligand_efficiency>  (1) 
-0.8964745886338461

>  <r_i_glide_ligand_efficiency_ln>  (1) 
-1.7177542036200601

>  <r_i_glide_ligand_efficiency_sa>  (1) 
-1.5329499833707636

>  <r_i_glide_lipo>  (1) 
-1.1487914675018414

>  <r_i_glide_metal>  (1) 
-0

>  <r_i_glide_rewards>  (1) 
-2.4833333333333334

>  <r_lp_Energy>  (1) 
1.6688799999999999

>  <r_lp_tautomer_probability>  (1) 
1

>  <s_epik_cmdline>  (1) 
J2VwaWtfcHl0aG9uJywgJy1waHQnLCAnMS4wJywgJy1waCcsICc3LjQnLCAnLXRuJywgJzgnLCAnLW1hJywgJzUwMCcsICctaW1hZScsICc8aW5maWxlLm1hZT4nLCAnLW9tYWUnLCAnPG91dGZpbGUubWFlPic=

>  <s_epik_input>  (1) 
bjFbY0hdW2NIXXNbY0hdMQ==

>  <s_glide_docking_method>  (1) 
confgen

>  <s_i_glide_gridfile>  (1) 
gpcr_drd2_6luq_protein_autoprepared_prepared

>  <s_lp_Force_Field>  (1) 
S-OPLS

>  <s_lp_Variant>  (1) 
Pocket2Mol_44-1

>  <s_m_source_file>  (1) 
generated_generic_title2_ligand_Pocket2Mol_2026-06-23_prepared.sdf

>  <GenAI_Model>  (1) 
Pocket2Mol

>  <Protein>  (1) 
generic_title2

$$$$
Pocket2Mol_14
     RDKit          3D

  0  0  0  0  0  0  0  0  0  0999 V3000
M  V30 BEGIN CTAB
M  V30 COUNTS 17 17 0 0 1
M  V30 BEGIN ATOM
M  V30 1 C 10.347761 6.766131 -6.636868 0
M  V30 2 O 10.341110 5.702238 -7.585023 0
M  V30 3 C 9.557980 5.984685 -8.735944 0
M  V30 4 C 10.175409 7.179221 -9.479964 0 CFG=1
M  V30 5 O 9.375410 7.509574 -10.588753 0
M  V30 6 C 11.007797 8.003555 -7.261412 0
M  V30 7 C 10.280075 8.390227 -8.552070 0
M  V30 8 H 9.329837 6.986210 -6.309669 0
M  V30 9 H 10.903913 6.447801 -5.754832 0
M  V30 10 H 8.527512 6.185061 -8.439947 0
M  V30 11 H 9.542528 5.102697 -9.376980 0
M  V30 12 H 11.169627 6.913593 -9.837959 0
M  V30 13 H 8.471375 7.598008 -10.274315 0
M  V30 14 H 10.998249 8.835617 -6.556981 0
M  V30 15 H 12.053998 7.786315 -7.480622 0
M  V30 16 H 10.809651 9.197378 -9.056475 0
M  V30 17 H 9.282964 8.762948 -8.309515 0
M  V30 END ATOM
M  V30 BEGIN BOND
M  V30 1 1 2 1
M  V30 2 1 3 2
M  V30 3 1 4 3
M  V30 4 1 5 4
M  V30 5 1 6 1
M  V30 6 1 7 4
M  V30 7 1 7 6
M  V30 8 1 8 1
M  V30 9 1 9 1
M  V30 10 1 10 3
M  V30 11 1 11 3
M  V30 12 1 4 12 CFG=3
M  V30 13 1 13 5
M  V30 14 1 14 6
M  V30 15 1 15 6
M  V30 16 1 16 7
M  V30 17 1 17 7
M  V30 END BOND
M  V30 END CTAB
M  END
>  <i_epik_Tot_Q>  (1) 
0

>  <i_epik_Tot_abs_Q>  (1) 
0

>  <i_i_glide_confnum>  (1) 
1

>  <i_i_glide_lignum>  (1) 
17

>  <i_i_glide_posenum>  (1) 
346

>  <i_i_glide_rotatable_bonds>  (1) 
1

>  <i_lp_mmshare_version>  (1) 
72125

>  <i_m_source_file_index>  (1) 
15

>  <i_f3d_flags>  (1) 
0

>  <num_sample>  (1) 
100

>  <b_lp_Chiralities_Consistent>  (1) 
1

>  <r_epik_Charging_Adjusted_Penalty>  (1) 
0

>  <r_epik_Ionization_Penalty>  (1) 
4.2263924331700322e-08

>  <r_epik_Ionization_Penalty_Charging>  (1) 
0

>  <r_epik_Ionization_Penalty_Neutral>  (1) 
4.2263924331700322e-08

>  <r_epik_State_Penalty>  (1) 
-0

>  <r_glide_ring_energy>  (1) 
0

>  <r_i_docking_score>  (1) 
-4.4797903143587465

>  <r_i_glide_ecoul>  (1) 
-3.9621114191952294

>  <r_i_glide_eff_state_penalty>  (1) 
-0

>  <r_i_glide_einternal>  (1) 
0.069730412865361635

>  <r_i_glide_emodel>  (1) 
-23.249729949814192

>  <r_i_glide_emodel_strain>  (1) 
0

>  <r_i_glide_energy>  (1) 
-17.60532716055771

>  <r_i_glide_erotb>  (1) 
0

>  <r_i_glide_esite>  (1) 
0

>  <r_i_glide_evdw>  (1) 
-13.643215741362482

>  <r_i_glide_gscore>  (1) 
-4.4797903143587465

>  <r_i_glide_gscore_strain>  (1) 
0

>  <r_i_glide_hbond>  (1) 
-0.16

>  <r_i_glide_ligand_efficiency>  (1) 
-0.63997004490839238

>  <r_i_glide_ligand_efficiency_ln>  (1) 
-1.5206812454192853

>  <r_i_glide_ligand_efficiency_sa>  (1) 
-1.2242186549455101

>  <r_i_glide_lipo>  (1) 
-0.43168806873778076

>  <r_i_glide_metal>  (1) 
-0

>  <r_i_glide_rewards>  (1) 
-2.6116247456735571

>  <r_lp_Energy>  (1) 
6.7642049999999996

>  <r_lp_tautomer_probability>  (1) 
1

>  <s_epik_cmdline>  (1) 
J2VwaWtfcHl0aG9uJywgJy1waHQnLCAnMS4wJywgJy1waCcsICc3LjQnLCAnLXRuJywgJzgnLCAnLW1hJywgJzUwMCcsICctaW1hZScsICc8aW5maWxlLm1hZT4nLCAnLW9tYWUnLCAnPG91dGZpbGUubWFlPic=

>  <s_epik_input>  (1) 
W0NIMl0xW0NIMl1bQ0gyXU9bQ0gyXVtDQEhdMVtPSF0=

>  <s_glide_docking_method>  (1) 
confgen

>  <s_i_glide_gridfile>  (1) 
gpcr_drd2_6luq_protein_autoprepared_prepared

>  <s_lp_Force_Field>  (1) 
S-OPLS

>  <s_lp_Variant>  (1) 
Pocket2Mol_14-1

>  <s_m_source_file>  (1) 
generated_generic_title2_ligand_Pocket2Mol_2026-06-23_prepared.sdf

>  <GenAI_Model>  (1) 
Pocket2Mol

>  <Protein>  (1) 
generic_title2

$$$$
Pocket2Mol_95
     RDKit          3D

  0  0  0  0  0  0  0  0  0  0999 V3000
M  V30 BEGIN CTAB
M  V30 COUNTS 23 24 0 0 1
M  V30 BEGIN ATOM
M  V30 1 C 10.887573 6.988688 -5.502055 0
M  V30 2 O 9.774397 6.390279 -6.140044 0
M  V30 3 C 9.779489 6.462784 -7.513361 0
M  V30 4 C 11.059567 8.398388 -6.071402 0
M  V30 5 O 11.370737 8.296520 -7.453308 0
M  V30 6 C 10.588918 7.420719 -8.179807 0
M  V30 7 C 10.588789 7.475275 -9.596628 0
M  V30 8 O 11.368290 8.390227 -10.265511 0
M  V30 9 C 9.775410 6.586971 -10.333000 0
M  V30 10 O 9.769922 6.640698 -11.697586 0
M  V30 11 C 8.975841 5.580284 -8.259466 0
M  V30 12 C 8.975410 5.639826 -9.664737 0
M  V30 13 C 12.742660 8.455904 -9.914825 0
M  V30 14 H 11.775686 6.379301 -5.667781 0
M  V30 15 H 10.711953 7.016180 -4.427560 0
M  V30 16 H 11.868908 8.922046 -5.562682 0
M  V30 17 H 10.153178 8.989983 -5.936703 0
M  V30 18 H 9.114947 6.080429 -12.083540 0
M  V30 19 H 8.357837 4.855302 -7.751727 0
M  V30 20 H 8.355588 4.960427 -10.230620 0
M  V30 21 H 13.320514 8.770480 -10.784137 0
M  V30 22 H 12.913972 9.190226 -9.130403 0
M  V30 23 H 13.134147 7.495166 -9.585022 0
M  V30 END ATOM
M  V30 BEGIN BOND
M  V30 1 1 2 1
M  V30 2 1 3 2
M  V30 3 1 4 1
M  V30 4 1 5 4
M  V30 5 2 6 3
M  V30 6 1 6 5
M  V30 7 1 7 6
M  V30 8 1 8 7
M  V30 9 2 9 7
M  V30 10 1 10 9
M  V30 11 1 11 3
M  V30 12 1 12 9
M  V30 13 2 12 11
M  V30 14 1 13 8
M  V30 15 1 14 1
M  V30 16 1 15 1
M  V30 17 1 16 4
M  V30 18 1 17 4
M  V30 19 1 18 10
M  V30 20 1 19 11
M  V30 21 1 20 12
M  V30 22 1 21 13
M  V30 23 1 22 13
M  V30 24 1 23 13
M  V30 END BOND
M  V30 END CTAB
M  END
>  <i_epik_Tot_Q>  (1) 
0

>  <i_epik_Tot_abs_Q>  (1) 
0

>  <i_i_glide_confnum>  (1) 
2

>  <i_i_glide_lignum>  (1) 
104

>  <i_i_glide_posenum>  (1) 
355

>  <i_i_glide_rotatable_bonds>  (1) 
2

>  <i_lp_mmshare_version>  (1) 
72125

>  <i_m_source_file_index>  (1) 
96

>  <i_f3d_flags>  (1) 
0

>  <num_sample>  (1) 
100

>  <b_lp_Chiralities_Consistent>  (1) 
1

>  <r_epik_Charging_Adjusted_Penalty>  (1) 
0

>  <r_epik_Ionization_Penalty>  (1) 
0.0014130578134093086

>  <r_epik_Ionization_Penalty_Charging>  (1) 
0

>  <r_epik_Ionization_Penalty_Neutral>  (1) 
0.0014130578134093086

>  <r_epik_State_Penalty>  (1) 
-0

>  <r_glide_ring_energy>  (1) 
0.003085301398031638

>  <r_i_docking_score>  (1) 
-4.4572833273340384

>  <r_i_glide_ecoul>  (1) 
-0.014495829901005786

>  <r_i_glide_eff_state_penalty>  (1) 
-0

>  <r_i_glide_einternal>  (1) 
0.020616779477973246

>  <r_i_glide_emodel>  (1) 
-28.111768338080861

>  <r_i_glide_emodel_strain>  (1) 
0

>  <r_i_glide_energy>  (1) 
-22.264192979342699

>  <r_i_glide_erotb>  (1) 
0

>  <r_i_glide_esite>  (1) 
0

>  <r_i_glide_evdw>  (1) 
-22.249697149441694

>  <r_i_glide_gscore>  (1) 
-4.4572833273340384

>  <r_i_glide_gscore_strain>  (1) 
0

>  <r_i_glide_hbond>  (1) 
0

>  <r_i_glide_ligand_efficiency>  (1) 
-0.34286794825646449

>  <r_i_glide_ligand_efficiency_ln>  (1) 
-1.250307614610239

>  <r_i_glide_ligand_efficiency_sa>  (1) 
-0.80619730004307089

>  <r_i_glide_lipo>  (1) 
-0.59232019386165102

>  <r_i_glide_metal>  (1) 
-0

>  <r_i_glide_rewards>  (1) 
-2.750303901515152

>  <r_lp_Energy>  (1) 
25.525124999999999

>  <r_lp_tautomer_probability>  (1) 
1

>  <s_epik_cmdline>  (1) 
J2VwaWtfcHl0aG9uJywgJy1waHQnLCAnMS4wJywgJy1waCcsICc3LjQnLCAnLXRuJywgJzgnLCAnLW1hJywgJzUwMCcsICctaW1hZScsICc8aW5maWxlLm1hZT4nLCAnLW9tYWUnLCAnPG91dGZpbGUubWFlPic=

>  <s_epik_input>  (1) 
TzFbQ0gyXVtDSDJdT2MoYzEyKWMoT1tDSDNdKWMoW09IXSlbY0hdW2NIXTI=

>  <s_glide_docking_method>  (1) 
confgen

>  <s_i_glide_gridfile>  (1) 
gpcr_drd2_6luq_protein_autoprepared_prepared

>  <s_lp_Force_Field>  (1) 
S-OPLS

>  <s_lp_Variant>  (1) 
Pocket2Mol_95-1

>  <s_m_source_file>  (1) 
generated_generic_title2_ligand_Pocket2Mol_2026-06-23_prepared.sdf

>  <GenAI_Model>  (1) 
Pocket2Mol

>  <Protein>  (1) 
generic_title2

$$$$
Pocket2Mol_19
     RDKit          3D

  0  0  0  0  0  0  0  0  0  0999 V3000
M  V30 BEGIN CTAB
M  V30 COUNTS 14 14 0 0 1
M  V30 BEGIN ATOM
M  V30 1 N 7.218036 6.487639 -11.586833 0 CHG=1
M  V30 2 C 8.296016 5.673139 -11.632524 0
M  V30 3 C 8.654783 5.050260 -12.846168 0
M  V30 4 C 7.876645 5.290277 -13.998595 0
M  V30 5 N 8.207584 4.688598 -15.210443 0
M  V30 6 C 6.759174 6.147217 -13.908481 0
M  V30 7 C 6.447823 6.742661 -12.668258 0
M  V30 8 H 8.836101 5.543977 -10.705234 0
M  V30 9 H 9.515996 4.398372 -12.886560 0
M  V30 10 H 7.665774 4.845095 -16.049032 0
M  V30 11 H 9.002798 4.071383 -15.299749 0
M  V30 12 H 6.145724 6.348690 -14.775285 0
M  V30 13 H 5.611868 7.409785 -12.512107 0
M  V30 14 H 6.975393 6.929144 -10.697806 0
M  V30 END ATOM
M  V30 BEGIN BOND
M  V30 1 1 2 1
M  V30 2 2 3 2
M  V30 3 1 4 3
M  V30 4 1 5 4
M  V30 5 2 6 4
M  V30 6 2 7 1
M  V30 7 1 7 6
M  V30 8 1 8 2
M  V30 9 1 9 3
M  V30 10 1 10 5
M  V30 11 1 11 5
M  V30 12 1 12 6
M  V30 13 1 13 7
M  V30 14 1 14 1
M  V30 END BOND
M  V30 END CTAB
M  END
>  <i_epik_Tot_Q>  (1) 
1

>  <i_epik_Tot_abs_Q>  (1) 
1

>  <i_i_glide_confnum>  (1) 
1

>  <i_i_glide_lignum>  (1) 
22

>  <i_i_glide_posenum>  (1) 
84

>  <i_i_glide_rotatable_bonds>  (1) 
0

>  <i_lp_mmshare_version>  (1) 
72125

>  <i_m_source_file_index>  (1) 
20

>  <i_f3d_flags>  (1) 
0

>  <num_sample>  (1) 
100

>  <b_lp_Chiralities_Consistent>  (1) 
1

>  <r_epik_Charging_Adjusted_Penalty>  (1) 
0.023410508937706027

>  <r_epik_Ionization_Penalty>  (1) 
0.011711918016166721

>  <r_epik_Ionization_Penalty_Charging>  (1) 
0.011705254468853022

>  <r_epik_Ionization_Penalty_Neutral>  (1) 
6.6635473136990569e-06

>  <r_epik_State_Penalty>  (1) 
0.011705254468853005

>  <r_glide_ring_energy>  (1) 
0

>  <r_i_docking_score>  (1) 
-4.4557680016097274

>  <r_i_glide_ecoul>  (1) 
-7.3623387721455824

>  <r_i_glide_eff_state_penalty>  (1) 
0.011705254468853005

>  <r_i_glide_einternal>  (1) 
0

>  <r_i_glide_emodel>  (1) 
-24.910294270280765

>  <r_i_glide_emodel_strain>  (1) 
0

>  <r_i_glide_energy>  (1) 
-16.537240726296307

>  <r_i_glide_erotb>  (1) 
0

>  <r_i_glide_esite>  (1) 
-0.10000000000000001

>  <r_i_glide_evdw>  (1) 
-9.1749019541507248

>  <r_i_glide_gscore>  (1) 
-4.4674732560785806

>  <r_i_glide_gscore_strain>  (1) 
0

>  <r_i_glide_hbond>  (1) 
-0.20000000000000001

>  <r_i_glide_ligand_efficiency>  (1) 
-0.63653828594424677

>  <r_i_glide_ligand_efficiency_ln>  (1) 
-1.5125267832892293

>  <r_i_glide_ligand_efficiency_sa>  (1) 
-1.2176539362112373

>  <r_i_glide_lipo>  (1) 
-0.35437734254920727

>  <r_i_glide_metal>  (1) 
-0

>  <r_i_glide_rewards>  (1) 
-2.25

>  <r_lp_Energy>  (1) 
13.062742999999999

>  <r_lp_tautomer_probability>  (1) 
0.99999999993680011

>  <s_epik_cmdline>  (1) 
J2VwaWtfcHl0aG9uJywgJy1waHQnLCAnMS4wJywgJy1waCcsICc3LjQnLCAnLXRuJywgJzgnLCAnLW1hJywgJzUwMCcsICctaW1hZScsICc8aW5maWxlLm1hZT4nLCAnLW9tYWUnLCAnPG91dGZpbGUubWFlPic=

>  <s_epik_input>  (1) 
W2NIXTFbY0hdbltjSF1bY0hdYzFbTkgyXQ==

>  <s_glide_docking_method>  (1) 
confgen

>  <s_i_glide_gridfile>  (1) 
gpcr_drd2_6luq_protein_autoprepared_prepared

>  <s_lp_Force_Field>  (1) 
S-OPLS

>  <s_lp_Variant>  (1) 
Pocket2Mol_19-1

>  <s_m_source_file>  (1) 
generated_generic_title2_ligand_Pocket2Mol_2026-06-23_prepared.sdf

>  <GenAI_Model>  (1) 
Pocket2Mol

>  <Protein>  (1) 
generic_title2

$$$$
Pocket2Mol_8
     RDKit          3D

  0  0  0  0  0  0  0  0  0  0999 V3000
M  V30 BEGIN CTAB
M  V30 COUNTS 13 13 0 0 1
M  V30 BEGIN ATOM
M  V30 1 N 11.360041 7.634583 -8.672974 0
M  V30 2 C 11.860313 8.407772 -7.666967 0
M  V30 3 C 11.048871 8.611919 -6.671055 0
M  V30 4 C 10.175410 7.400024 -8.183016 0
M  V30 5 C 11.369471 9.432952 -5.438526 0
M  V30 6 C 9.726698 7.977586 -6.784861 0
M  V30 7 H 12.866186 8.793620 -7.748693 0
M  V30 8 H 9.430849 6.795541 -8.708589 0
M  V30 9 H 10.614678 10.208256 -5.296656 0
M  V30 10 H 11.375688 8.796287 -4.553723 0
M  V30 11 H 12.345521 9.911771 -5.523982 0
M  V30 12 H 8.897428 8.679754 -6.871856 0
M  V30 13 H 9.546828 7.194936 -6.047465 0
M  V30 END ATOM
M  V30 BEGIN BOND
M  V30 1 1 2 1
M  V30 2 2 3 2
M  V30 3 2 4 1
M  V30 4 1 5 3
M  V30 5 1 6 3
M  V30 6 1 6 4
M  V30 7 1 7 2
M  V30 8 1 8 4
M  V30 9 1 9 5
M  V30 10 1 10 5
M  V30 11 1 11 5
M  V30 12 1 12 6
M  V30 13 1 13 6
M  V30 END BOND
M  V30 END CTAB
M  END
>  <i_epik_Tot_Q>  (1) 
0

>  <i_epik_Tot_abs_Q>  (1) 
0

>  <i_i_glide_confnum>  (1) 
1

>  <i_i_glide_lignum>  (1) 
9

>  <i_i_glide_posenum>  (1) 
273

>  <i_i_glide_rotatable_bonds>  (1) 
0

>  <i_lp_mmshare_version>  (1) 
72125

>  <i_m_source_file_index>  (1) 
9

>  <i_f3d_flags>  (1) 
0

>  <num_sample>  (1) 
100

>  <b_lp_Chiralities_Consistent>  (1) 
1

>  <r_epik_Charging_Adjusted_Penalty>  (1) 
0

>  <r_epik_Ionization_Penalty>  (1) 
0

>  <r_epik_Ionization_Penalty_Charging>  (1) 
0

>  <r_epik_Ionization_Penalty_Neutral>  (1) 
0

>  <r_epik_State_Penalty>  (1) 
-0

>  <r_glide_ring_energy>  (1) 
0

>  <r_i_docking_score>  (1) 
-4.4537521311834283

>  <r_i_glide_ecoul>  (1) 
-0.815810405750657

>  <r_i_glide_eff_state_penalty>  (1) 
-0

>  <r_i_glide_einternal>  (1) 
0

>  <r_i_glide_emodel>  (1) 
-21.852280997575456

>  <r_i_glide_emodel_strain>  (1) 
0

>  <r_i_glide_energy>  (1) 
-16.927643034861926

>  <r_i_glide_erotb>  (1) 
0

>  <r_i_glide_esite>  (1) 
-0.05113674973806575

>  <r_i_glide_evdw>  (1) 
-16.111832629111269

>  <r_i_glide_gscore>  (1) 
-4.4537521311834283

>  <r_i_glide_gscore_strain>  (1) 
0

>  <r_i_glide_hbond>  (1) 
0

>  <r_i_glide_ligand_efficiency>  (1) 
-0.74229202186390475

>  <r_i_glide_ligand_efficiency_ln>  (1) 
-1.5953208649507791

>  <r_i_glide_ligand_efficiency_sa>  (1) 
-1.3488341188239064

>  <r_i_glide_lipo>  (1) 
-0.84965218912720086

>  <r_i_glide_metal>  (1) 
-0

>  <r_i_glide_rewards>  (1) 
-2.625

>  <r_lp_Energy>  (1) 
-3.9959819999999997

>  <r_lp_tautomer_probability>  (1) 
1

>  <s_epik_Chemistry_Notes>  (1) 
This compound has an imine and may undergo hydrolysis.

>  <s_epik_cmdline>  (1) 
J2VwaWtfcHl0aG9uJywgJy1waHQnLCAnMS4wJywgJy1waCcsICc3LjQnLCAnLXRuJywgJzgnLCAnLW1hJywgJzUwMCcsICctaW1hZScsICc8aW5maWxlLm1hZT4nLCAnLW9tYWUnLCAnPG91dGZpbGUubWFlPic=

>  <s_epik_input>  (1) 
W0NIMl0xW0NIXT1OW0NIXT1DMVtDSDNd

>  <s_glide_docking_method>  (1) 
confgen

>  <s_i_glide_gridfile>  (1) 
gpcr_drd2_6luq_protein_autoprepared_prepared

>  <s_lp_Force_Field>  (1) 
S-OPLS

>  <s_lp_Variant>  (1) 
Pocket2Mol_8-1

>  <s_m_source_file>  (1) 
generated_generic_title2_ligand_Pocket2Mol_2026-06-23_prepared.sdf

>  <GenAI_Model>  (1) 
Pocket2Mol

>  <Protein>  (1) 
generic_title2

$$$$
Pocket2Mol_12
     RDKit          3D

  0  0  0  0  0  0  0  0  0  0999 V3000
M  V30 BEGIN CTAB
M  V30 COUNTS 14 14 0 0 1
M  V30 BEGIN ATOM
M  V30 1 O 11.775406 7.574705 -4.137549 0
M  V30 2 C 10.975411 7.304921 -5.185020 0
M  V30 3 C 12.040184 9.019914 -4.327693 0
M  V30 4 C 10.709877 8.289294 -5.984984 0
M  V30 5 C 9.829371 8.195344 -7.213192 0
M  V30 6 C 11.320732 9.579668 -5.644463 0
M  V30 7 H 10.633915 6.280956 -5.243845 0
M  V30 8 H 13.116714 9.185618 -4.384127 0
M  V30 9 H 11.685639 9.559587 -3.448382 0
M  V30 10 H 8.961618 8.847732 -7.114910 0
M  V30 11 H 10.383525 8.490974 -8.103976 0
M  V30 12 H 9.463908 7.178136 -7.360965 0
M  V30 13 H 12.021682 9.913352 -6.409784 0
M  V30 14 H 10.576383 10.346765 -5.431632 0
M  V30 END ATOM
M  V30 BEGIN BOND
M  V30 1 1 2 1
M  V30 2 1 3 1
M  V30 3 2 4 2
M  V30 4 1 5 4
M  V30 5 1 6 3
M  V30 6 1 6 4
M  V30 7 1 7 2
M  V30 8 1 8 3
M  V30 9 1 9 3
M  V30 10 1 10 5
M  V30 11 1 11 5
M  V30 12 1 12 5
M  V30 13 1 13 6
M  V30 14 1 14 6
M  V30 END BOND
M  V30 END CTAB
M  END
>  <i_epik_Tot_Q>  (1) 
0

>  <i_epik_Tot_abs_Q>  (1) 
0

>  <i_i_glide_confnum>  (1) 
1

>  <i_i_glide_lignum>  (1) 
15

>  <i_i_glide_posenum>  (1) 
305

>  <i_i_glide_rotatable_bonds>  (1) 
0

>  <i_lp_mmshare_version>  (1) 
72125

>  <i_m_source_file_index>  (1) 
13

>  <i_f3d_flags>  (1) 
0

>  <num_sample>  (1) 
100

>  <b_lp_Chiralities_Consistent>  (1) 
1

>  <r_epik_Charging_Adjusted_Penalty>  (1) 
0

>  <r_epik_Ionization_Penalty>  (1) 
0

>  <r_epik_Ionization_Penalty_Charging>  (1) 
0

>  <r_epik_Ionization_Penalty_Neutral>  (1) 
0

>  <r_epik_State_Penalty>  (1) 
-0

>  <r_glide_ring_energy>  (1) 
0

>  <r_i_docking_score>  (1) 
-4.4489764694418001

>  <r_i_glide_ecoul>  (1) 
-0.30045837656925728

>  <r_i_glide_eff_state_penalty>  (1) 
-0

>  <r_i_glide_einternal>  (1) 
0

>  <r_i_glide_emodel>  (1) 
-19.706483506411224

>  <r_i_glide_emodel_strain>  (1) 
0

>  <r_i_glide_energy>  (1) 
-15.356250199710303

>  <r_i_glide_erotb>  (1) 
0

>  <r_i_glide_esite>  (1) 
0

>  <r_i_glide_evdw>  (1) 
-15.055791823141046

>  <r_i_glide_gscore>  (1) 
-4.4489764694418001

>  <r_i_glide_gscore_strain>  (1) 
0

>  <r_i_glide_hbond>  (1) 
0

>  <r_i_glide_ligand_efficiency>  (1) 
-0.74149607824030006

>  <r_i_glide_ligand_efficiency_ln>  (1) 
-1.5936102370137137

>  <r_i_glide_ligand_efficiency_sa>  (1) 
-1.3473877932747207

>  <r_i_glide_lipo>  (1) 
-1.1094514551326917

>  <r_i_glide_metal>  (1) 
-0

>  <r_i_glide_rewards>  (1) 
-2.5416666666666665

>  <r_lp_Energy>  (1) 
-7.9393969999999996

>  <r_lp_tautomer_probability>  (1) 
1

>  <s_epik_cmdline>  (1) 
J2VwaWtfcHl0aG9uJywgJy1waHQnLCAnMS4wJywgJy1waCcsICc3LjQnLCAnLXRuJywgJzgnLCAnLW1hJywgJzUwMCcsICctaW1hZScsICc8aW5maWxlLm1hZT4nLCAnLW9tYWUnLCAnPG91dGZpbGUubWFlPic=

>  <s_epik_input>  (1) 
W0NIMl0xW0NIMl1PW0NIXT1DMVtDSDNd

>  <s_glide_docking_method>  (1) 
confgen

>  <s_i_glide_gridfile>  (1) 
gpcr_drd2_6luq_protein_autoprepared_prepared

>  <s_lp_Force_Field>  (1) 
S-OPLS

>  <s_lp_Variant>  (1) 
Pocket2Mol_12-1

>  <s_m_source_file>  (1) 
generated_generic_title2_ligand_Pocket2Mol_2026-06-23_prepared.sdf

>  <GenAI_Model>  (1) 
Pocket2Mol

>  <Protein>  (1) 
generic_title2

$$$$
Pocket2Mol_15
     RDKit          3D

  0  0  0  0  0  0  0  0  0  0999 V3000
M  V30 BEGIN CTAB
M  V30 COUNTS 17 17 0 0 1
M  V30 BEGIN ATOM
M  V30 1 C 11.817912 8.430855 -7.781601 0
M  V30 2 O 10.652729 8.193572 -8.555577 0
M  V30 3 C 11.434229 8.981819 -6.396565 0
M  V30 4 O 11.264164 7.987352 -5.394725 0
M  V30 5 C 9.956061 6.997301 -8.235716 0
M  V30 6 C 10.575410 6.792316 -5.752708 0
M  V30 7 C 9.444553 6.958264 -6.786236 0
M  V30 8 H 12.468186 7.557904 -7.720768 0
M  V30 9 H 12.386258 9.190201 -8.316021 0
M  V30 10 H 12.222546 9.646571 -6.042308 0
M  V30 11 H 10.533041 9.590459 -6.462442 0
M  V30 12 H 9.105629 6.923873 -8.913747 0
M  V30 13 H 10.586692 6.132363 -8.445167 0
M  V30 14 H 10.171789 6.379021 -4.828638 0
M  V30 15 H 11.299412 6.058382 -6.108725 0
M  V30 16 H 8.826474 7.828829 -6.563323 0
M  V30 17 H 8.779232 6.098528 -6.698948 0
M  V30 END ATOM
M  V30 BEGIN BOND
M  V30 1 1 2 1
M  V30 2 1 3 1
M  V30 3 1 4 3
M  V30 4 1 5 2
M  V30 5 1 6 4
M  V30 6 1 7 5
M  V30 7 1 7 6
M  V30 8 1 8 1
M  V30 9 1 9 1
M  V30 10 1 10 3
M  V30 11 1 11 3
M  V30 12 1 12 5
M  V30 13 1 13 5
M  V30 14 1 14 6
M  V30 15 1 15 6
M  V30 16 1 16 7
M  V30 17 1 17 7
M  V30 END BOND
M  V30 END CTAB
M  END
>  <i_epik_Tot_Q>  (1) 
0

>  <i_epik_Tot_abs_Q>  (1) 
0

>  <i_i_glide_confnum>  (1) 
4

>  <i_i_glide_lignum>  (1) 
18

>  <i_i_glide_posenum>  (1) 
169

>  <i_i_glide_rotatable_bonds>  (1) 
0

>  <i_lp_mmshare_version>  (1) 
72125

>  <i_m_source_file_index>  (1) 
16

>  <i_f3d_flags>  (1) 
0

>  <num_sample>  (1) 
100

>  <b_lp_Chiralities_Consistent>  (1) 
1

>  <r_epik_Charging_Adjusted_Penalty>  (1) 
0

>  <r_epik_Ionization_Penalty>  (1) 
3.933197540425548e-12

>  <r_epik_Ionization_Penalty_Charging>  (1) 
0

>  <r_epik_Ionization_Penalty_Neutral>  (1) 
3.933197540425548e-12

>  <r_epik_State_Penalty>  (1) 
-0

>  <r_glide_ring_energy>  (1) 
0.00034554738616163878

>  <r_i_docking_score>  (1) 
-4.4484040810403664

>  <r_i_glide_ecoul>  (1) 
-0.98694003654504026

>  <r_i_glide_eff_state_penalty>  (1) 
-0

>  <r_i_glide_einternal>  (1) 
0

>  <r_i_glide_emodel>  (1) 
-22.008879767688725

>  <r_i_glide_emodel_strain>  (1) 
0

>  <r_i_glide_energy>  (1) 
-17.138035938720581

>  <r_i_glide_erotb>  (1) 
0

>  <r_i_glide_esite>  (1) 
0

>  <r_i_glide_evdw>  (1) 
-16.151095902175541

>  <r_i_glide_gscore>  (1) 
-4.4484040810403664

>  <r_i_glide_gscore_strain>  (1) 
0

>  <r_i_glide_hbond>  (1) 
0

>  <r_i_glide_ligand_efficiency>  (1) 
-0.63548629729148087

>  <r_i_glide_ligand_efficiency_ln>  (1) 
-1.5100270734553356

>  <r_i_glide_ligand_efficiency_sa>  (1) 
-1.2156415543134387

>  <r_i_glide_lipo>  (1) 
-0.81037273860340109

>  <r_i_glide_metal>  (1) 
-0

>  <r_i_glide_rewards>  (1) 
-2.6824355418464316

>  <r_lp_Energy>  (1) 
9.641

>  <r_lp_tautomer_probability>  (1) 
1

>  <s_epik_cmdline>  (1) 
J2VwaWtfcHl0aG9uJywgJy1waHQnLCAnMS4wJywgJy1waCcsICc3LjQnLCAnLXRuJywgJzgnLCAnLW1hJywgJzUwMCcsICctaW1hZScsICc8aW5maWxlLm1hZT4nLCAnLW9tYWUnLCAnPG91dGZpbGUubWFlPic=

>  <s_epik_input>  (1) 
W0NIMl0xT1tDSDJdW0NIMl1bQ0gyXU9bQ0gyXTE=

>  <s_glide_docking_method>  (1) 
confgen

>  <s_i_glide_gridfile>  (1) 
gpcr_drd2_6luq_protein_autoprepared_prepared

>  <s_lp_Force_Field>  (1) 
S-OPLS

>  <s_lp_Variant>  (1) 
Pocket2Mol_15-1

>  <s_m_source_file>  (1) 
generated_generic_title2_ligand_Pocket2Mol_2026-06-23_prepared.sdf

>  <GenAI_Model>  (1) 
Pocket2Mol

>  <Protein>  (1) 
generic_title2

$$$$
Pocket2Mol_28
     RDKit          3D

  0  0  0  0  0  0  0  0  0  0999 V3000
M  V30 BEGIN CTAB
M  V30 COUNTS 13 13 0 0 1
M  V30 BEGIN ATOM
M  V30 1 N 9.775622 7.305310 -9.061590 0
M  V30 2 C 9.775254 7.156800 -7.690333 0
M  V30 3 C 10.678102 7.742994 -6.882607 0
M  V30 4 C 10.755558 8.080556 -9.654716 0
M  V30 5 O 10.665532 7.590323 -5.554245 0
M  V30 6 C 11.738758 8.606439 -7.476525 0
M  V30 7 O 12.575318 9.190227 -6.785061 0
M  V30 8 C 11.719217 8.724577 -8.960967 0
M  V30 9 H 8.977468 6.528846 -7.316544 0
M  V30 10 H 10.684255 8.130147 -10.731419 0
M  V30 11 H 9.944544 7.013588 -5.348405 0
M  V30 12 H 12.470140 9.323733 -9.453769 0
M  V30 13 H 9.046543 6.878587 -9.621587 0
M  V30 END ATOM
M  V30 BEGIN BOND
M  V30 1 1 2 1
M  V30 2 2 3 2
M  V30 3 1 4 1
M  V30 4 1 5 3
M  V30 5 1 6 3
M  V30 6 2 7 6
M  V30 7 2 8 4
M  V30 8 1 8 6
M  V30 9 1 9 2
M  V30 10 1 10 4
M  V30 11 1 11 5
M  V30 12 1 12 8
M  V30 13 1 13 1
M  V30 END BOND
M  V30 END CTAB
M  END
>  <i_epik_Tot_Q>  (1) 
0

>  <i_epik_Tot_abs_Q>  (1) 
0

>  <i_i_glide_confnum>  (1) 
1

>  <i_i_glide_lignum>  (1) 
32

>  <i_i_glide_posenum>  (1) 
336

>  <i_i_glide_rotatable_bonds>  (1) 
1

>  <i_lp_mmshare_version>  (1) 
72125

>  <i_m_source_file_index>  (1) 
29

>  <i_f3d_flags>  (1) 
0

>  <num_sample>  (1) 
100

>  <b_lp_Chiralities_Consistent>  (1) 
1

>  <r_epik_Charging_Adjusted_Penalty>  (1) 
0.000203171374695584

>  <r_epik_Ionization_Penalty>  (1) 
0.014901896624084464

>  <r_epik_Ionization_Penalty_Charging>  (1) 
0.000203171374695584

>  <r_epik_Ionization_Penalty_Neutral>  (1) 
0.01469872524938888

>  <r_epik_State_Penalty>  (1) 
-0

>  <r_glide_ring_energy>  (1) 
0

>  <r_i_docking_score>  (1) 
-4.4383269076676894

>  <r_i_glide_ecoul>  (1) 
-3.7212548233722833

>  <r_i_glide_eff_state_penalty>  (1) 
-0

>  <r_i_glide_einternal>  (1) 
0.012675832578270763

>  <r_i_glide_emodel>  (1) 
-26.507195703549502

>  <r_i_glide_emodel_strain>  (1) 
0

>  <r_i_glide_energy>  (1) 
-20.089610244765954

>  <r_i_glide_erotb>  (1) 
0

>  <r_i_glide_esite>  (1) 
-0.10000000000000001

>  <r_i_glide_evdw>  (1) 
-16.36835542139367

>  <r_i_glide_gscore>  (1) 
-4.4383269076676894

>  <r_i_glide_gscore_strain>  (1) 
0

>  <r_i_glide_hbond>  (1) 
-0.011546176732699913

>  <r_i_glide_ligand_efficiency>  (1) 
-0.55479086345846118

>  <r_i_glide_ligand_efficiency_ln>  (1) 
-1.4412765586212692

>  <r_i_glide_ligand_efficiency_sa>  (1) 
-1.1095817269169226

>  <r_i_glide_lipo>  (1) 
-0.70017473635946348

>  <r_i_glide_metal>  (1) 
-0

>  <r_i_glide_rewards>  (1) 
-2.25

>  <r_lp_Energy>  (1) 
11.500328

>  <r_lp_tautomer_probability>  (1) 
1

>  <s_epik_cmdline>  (1) 
J2VwaWtfcHl0aG9uJywgJy1waHQnLCAnMS4wJywgJy1waCcsICc3LjQnLCAnLXRuJywgJzgnLCAnLW1hJywgJzUwMCcsICctaW1hZScsICc8aW5maWxlLm1hZT4nLCAnLW9tYWUnLCAnPG91dGZpbGUubWFlPic=

>  <s_epik_input>  (1) 
W09IXWMxW2NIXW5bY0hdW2NIXWMxW09IXQ==

>  <s_glide_docking_method>  (1) 
confgen

>  <s_i_glide_gridfile>  (1) 
gpcr_drd2_6luq_protein_autoprepared_prepared

>  <s_lp_Force_Field>  (1) 
S-OPLS

>  <s_lp_Variant>  (1) 
Pocket2Mol_28-1

>  <s_m_source_file>  (1) 
generated_generic_title2_ligand_Pocket2Mol_2026-06-23_prepared.sdf

>  <GenAI_Model>  (1) 
Pocket2Mol

>  <Protein>  (1) 
generic_title2

$$$$
Pocket2Mol_4
     RDKit          3D

  0  0  0  0  0  0  0  0  0  0999 V3000
M  V30 BEGIN CTAB
M  V30 COUNTS 9 9 0 0 1
M  V30 BEGIN ATOM
M  V30 1 N 12.575389 9.190226 -2.752524 0
M  V30 2 C 12.575404 7.888197 -2.354305 0
M  V30 3 C 12.063292 7.156925 -3.380486 0
M  V30 4 C 11.775355 8.140038 -4.384999 0
M  V30 5 N 12.090570 9.376869 -3.991746 0
M  V30 6 H 12.913656 9.967215 -2.191792 0
M  V30 7 H 12.936199 7.588654 -1.381925 0
M  V30 8 H 11.913646 6.086921 -3.416945 0
M  V30 9 H 11.353736 7.995176 -5.369595 0
M  V30 END ATOM
M  V30 BEGIN BOND
M  V30 1 1 2 1
M  V30 2 2 3 2
M  V30 3 1 4 3
M  V30 4 1 5 1
M  V30 5 2 5 4
M  V30 6 1 6 1
M  V30 7 1 7 2
M  V30 8 1 8 3
M  V30 9 1 9 4
M  V30 END BOND
M  V30 END CTAB
M  END
>  <i_epik_Tot_Q>  (1) 
0

>  <i_epik_Tot_abs_Q>  (1) 
0

>  <i_i_glide_confnum>  (1) 
1

>  <i_i_glide_lignum>  (1) 
5

>  <i_i_glide_posenum>  (1) 
373

>  <i_i_glide_rotatable_bonds>  (1) 
0

>  <i_lp_mmshare_version>  (1) 
72125

>  <i_m_source_file_index>  (1) 
5

>  <i_f3d_flags>  (1) 
0

>  <num_sample>  (1) 
100

>  <b_lp_Chiralities_Consistent>  (1) 
1

>  <r_epik_Charging_Adjusted_Penalty>  (1) 
0

>  <r_epik_Ionization_Penalty>  (1) 
1.0045315435319e-05

>  <r_epik_Ionization_Penalty_Charging>  (1) 
0

>  <r_epik_Ionization_Penalty_Neutral>  (1) 
1.0045315435319e-05

>  <r_epik_State_Penalty>  (1) 
-0

>  <r_glide_ring_energy>  (1) 
0

>  <r_i_docking_score>  (1) 
-4.4188932961812046

>  <r_i_glide_ecoul>  (1) 
-3.2507950471623559

>  <r_i_glide_eff_state_penalty>  (1) 
-0

>  <r_i_glide_einternal>  (1) 
0

>  <r_i_glide_emodel>  (1) 
-19.771234380869803

>  <r_i_glide_emodel_strain>  (1) 
0

>  <r_i_glide_energy>  (1) 
-14.749719133027385

>  <r_i_glide_erotb>  (1) 
0

>  <r_i_glide_esite>  (1) 
0

>  <r_i_glide_evdw>  (1) 
-11.498924085865029

>  <r_i_glide_gscore>  (1) 
-4.4188932961812046

>  <r_i_glide_gscore_strain>  (1) 
0

>  <r_i_glide_hbond>  (1) 
-0.32000000000000001

>  <r_i_glide_ligand_efficiency>  (1) 
-0.88377865923624088

>  <r_i_glide_ligand_efficiency_ln>  (1) 
-1.6934272607617755

>  <r_i_glide_ligand_efficiency_sa>  (1) 
-1.5112402494801531

>  <r_i_glide_lipo>  (1) 
-0.7863278348135998

>  <r_i_glide_metal>  (1) 
-0

>  <r_i_glide_rewards>  (1) 
-2.25

>  <r_lp_Energy>  (1) 
2.3130189999999997

>  <r_lp_tautomer_probability>  (1) 
1

>  <s_epik_cmdline>  (1) 
J2VwaWtfcHl0aG9uJywgJy1waHQnLCAnMS4wJywgJy1waCcsICc3LjQnLCAnLXRuJywgJzgnLCAnLW1hJywgJzUwMCcsICctaW1hZScsICc8aW5maWxlLm1hZT4nLCAnLW9tYWUnLCAnPG91dGZpbGUubWFlPic=

>  <s_epik_input>  (1) 
W25IXTFbY0hdW2NIXVtjSF1uMQ==

>  <s_glide_docking_method>  (1) 
confgen

>  <s_i_glide_gridfile>  (1) 
gpcr_drd2_6luq_protein_autoprepared_prepared

>  <s_lp_Force_Field>  (1) 
S-OPLS

>  <s_lp_Variant>  (1) 
Pocket2Mol_4-1

>  <s_m_source_file>  (1) 
generated_generic_title2_ligand_Pocket2Mol_2026-06-23_prepared.sdf

>  <GenAI_Model>  (1) 
Pocket2Mol

>  <Protein>  (1) 
generic_title2

$$$$
Pocket2Mol_30
     RDKit          3D

  0  0  0  0  0  0  0  0  0  0999 V3000
M  V30 BEGIN CTAB
M  V30 COUNTS 14 14 0 0 1
M  V30 BEGIN ATOM
M  V30 1 N 11.280018 7.741459 -9.494203 0
M  V30 2 C 10.088729 7.462422 -8.921226 0
M  V30 3 C 9.794224 7.821813 -7.604402 0
M  V30 4 C 10.787313 8.492253 -6.892986 0
M  V30 5 O 10.575414 8.891010 -5.588212 0
M  V30 6 C 12.150337 8.390262 -8.704475 0
M  V30 7 N 11.992495 8.790200 -7.431964 0
M  V30 8 C 11.552042 9.706142 -4.945777 0
M  V30 9 H 9.363938 6.942774 -9.530243 0
M  V30 10 H 8.835179 7.593146 -7.159607 0
M  V30 11 H 13.106881 8.617170 -9.150612 0
M  V30 12 H 11.202988 9.973030 -3.947989 0
M  V30 13 H 12.504432 9.185861 -4.833634 0
M  V30 14 H 11.715614 10.635159 -5.493725 0
M  V30 END ATOM
M  V30 BEGIN BOND
M  V30 1 1 2 1
M  V30 2 2 3 2
M  V30 3 1 4 3
M  V30 4 1 5 4
M  V30 5 2 6 1
M  V30 6 2 7 4
M  V30 7 1 7 6
M  V30 8 1 8 5
M  V30 9 1 9 2
M  V30 10 1 10 3
M  V30 11 1 11 6
M  V30 12 1 12 8
M  V30 13 1 13 8
M  V30 14 1 14 8
M  V30 END BOND
M  V30 END CTAB
M  END
>  <i_epik_Tot_Q>  (1) 
0

>  <i_epik_Tot_abs_Q>  (1) 
0

>  <i_i_glide_confnum>  (1) 
1

>  <i_i_glide_lignum>  (1) 
34

>  <i_i_glide_posenum>  (1) 
256

>  <i_i_glide_rotatable_bonds>  (1) 
1

>  <i_lp_mmshare_version>  (1) 
72125

>  <i_m_source_file_index>  (1) 
31

>  <i_f3d_flags>  (1) 
0

>  <num_sample>  (1) 
100

>  <b_lp_Chiralities_Consistent>  (1) 
1

>  <r_epik_Charging_Adjusted_Penalty>  (1) 
0

>  <r_epik_Ionization_Penalty>  (1) 
8.6638422661064201e-06

>  <r_epik_Ionization_Penalty_Charging>  (1) 
0

>  <r_epik_Ionization_Penalty_Neutral>  (1) 
8.6638422661064201e-06

>  <r_epik_State_Penalty>  (1) 
-0

>  <r_glide_ring_energy>  (1) 
0

>  <r_i_docking_score>  (1) 
-4.4099132958321636

>  <r_i_glide_ecoul>  (1) 
-1.7592135729351916

>  <r_i_glide_eff_state_penalty>  (1) 
-0

>  <r_i_glide_einternal>  (1) 
0.074175129731127498

>  <r_i_glide_emodel>  (1) 
-24.903830397894225

>  <r_i_glide_emodel_strain>  (1) 
0

>  <r_i_glide_energy>  (1) 
-19.463169857027438

>  <r_i_glide_erotb>  (1) 
0

>  <r_i_glide_esite>  (1) 
0

>  <r_i_glide_evdw>  (1) 
-17.703956284092246

>  <r_i_glide_gscore>  (1) 
-4.4099132958321636

>  <r_i_glide_gscore_strain>  (1) 
0

>  <r_i_glide_hbond>  (1) 
0

>  <r_i_glide_ligand_efficiency>  (1) 
-0.55123916197902045

>  <r_i_glide_ligand_efficiency_ln>  (1) 
-1.4320496869788135

>  <r_i_glide_ligand_efficiency_sa>  (1) 
-1.1024783239580411

>  <r_i_glide_lipo>  (1) 
-0.56130413902661636

>  <r_i_glide_metal>  (1) 
-0

>  <r_i_glide_rewards>  (1) 
-2.699529306660656

>  <r_lp_Energy>  (1) 
14.393509

>  <r_lp_tautomer_probability>  (1) 
1

>  <s_epik_cmdline>  (1) 
J2VwaWtfcHl0aG9uJywgJy1waHQnLCAnMS4wJywgJy1waCcsICc3LjQnLCAnLXRuJywgJzgnLCAnLW1hJywgJzUwMCcsICctaW1hZScsICc8aW5maWxlLm1hZT4nLCAnLW9tYWUnLCAnPG91dGZpbGUubWFlPic=

>  <s_epik_input>  (1) 
bjFbY0hdbltjSF1bY0hdYzFPW0NIM10=

>  <s_glide_docking_method>  (1) 
confgen

>  <s_i_glide_gridfile>  (1) 
gpcr_drd2_6luq_protein_autoprepared_prepared

>  <s_lp_Force_Field>  (1) 
S-OPLS

>  <s_lp_Variant>  (1) 
Pocket2Mol_30-1

>  <s_m_source_file>  (1) 
generated_generic_title2_ligand_Pocket2Mol_2026-06-23_prepared.sdf

>  <GenAI_Model>  (1) 
Pocket2Mol

>  <Protein>  (1) 
generic_title2

$$$$
Pocket2Mol_21
     RDKit          3D

  0  0  0  0  0  0  0  0  0  0999 V3000
M  V30 BEGIN CTAB
M  V30 COUNTS 12 12 0 0 1
M  V30 BEGIN ATOM
M  V30 1 N 12.359378 7.345585 -2.589942 0
M  V30 2 C 11.775410 6.709403 -3.625200 0
M  V30 3 C 11.375410 7.379667 -4.785025 0
M  V30 4 C 11.606869 8.754619 -4.835133 0
M  V30 5 N 11.241502 9.489289 -5.954156 0
M  V30 6 N 12.184235 9.420830 -3.820417 0
M  V30 7 C 12.521864 8.665806 -2.761959 0
M  V30 8 H 11.627242 5.645575 -3.521665 0
M  V30 9 H 10.908882 6.853794 -5.605380 0
M  V30 10 H 10.788359 9.055749 -6.745746 0
M  V30 11 H 11.388526 10.485991 -5.998102 0
M  V30 12 H 12.980452 9.190227 -1.938927 0
M  V30 END ATOM
M  V30 BEGIN BOND
M  V30 1 1 2 1
M  V30 2 2 3 2
M  V30 3 1 4 3
M  V30 4 1 5 4
M  V30 5 2 6 4
M  V30 6 2 7 1
M  V30 7 1 7 6
M  V30 8 1 8 2
M  V30 9 1 9 3
M  V30 10 1 10 5
M  V30 11 1 11 5
M  V30 12 1 12 7
M  V30 END BOND
M  V30 END CTAB
M  END
>  <i_epik_Tot_Q>  (1) 
0

>  <i_epik_Tot_abs_Q>  (1) 
0

>  <i_i_glide_confnum>  (1) 
1

>  <i_i_glide_lignum>  (1) 
25

>  <i_i_glide_posenum>  (1) 
104

>  <i_i_glide_rotatable_bonds>  (1) 
0

>  <i_lp_mmshare_version>  (1) 
72125

>  <i_m_source_file_index>  (1) 
22

>  <i_f3d_flags>  (1) 
0

>  <num_sample>  (1) 
100

>  <b_lp_Chiralities_Consistent>  (1) 
1

>  <r_epik_Charging_Adjusted_Penalty>  (1) 
0.011441366301234922

>  <r_epik_Ionization_Penalty>  (1) 
0.011523414685131987

>  <r_epik_Ionization_Penalty_Charging>  (1) 
0

>  <r_epik_Ionization_Penalty_Neutral>  (1) 
0.011523414685131987

>  <r_epik_State_Penalty>  (1) 
0.011441366301234922

>  <r_glide_ring_energy>  (1) 
0

>  <r_i_docking_score>  (1) 
-4.4096040181340905

>  <r_i_glide_ecoul>  (1) 
-1.6049887424617737

>  <r_i_glide_eff_state_penalty>  (1) 
0.011441366301234922

>  <r_i_glide_einternal>  (1) 
0

>  <r_i_glide_emodel>  (1) 
-23.650378728709292

>  <r_i_glide_emodel_strain>  (1) 
0

>  <r_i_glide_energy>  (1) 
-18.101876588948599

>  <r_i_glide_erotb>  (1) 
0

>  <r_i_glide_esite>  (1) 
0

>  <r_i_glide_evdw>  (1) 
-16.496887846486825

>  <r_i_glide_gscore>  (1) 
-4.4210453844353257

>  <r_i_glide_gscore_strain>  (1) 
0

>  <r_i_glide_hbond>  (1) 
0

>  <r_i_glide_ligand_efficiency>  (1) 
-0.6299434311620129

>  <r_i_glide_ligand_efficiency_ln>  (1) 
-1.4968562498581808

>  <r_i_glide_ligand_efficiency_sa>  (1) 
-1.2050384328524466

>  <r_i_glide_lipo>  (1) 
-0.65545268074171881

>  <r_i_glide_metal>  (1) 
-0

>  <r_i_glide_rewards>  (1) 
-2.7000000000000002

>  <r_lp_Energy>  (1) 
9.3523319999999988

>  <r_lp_tautomer_probability>  (1) 
0.9999995832001739

>  <s_epik_cmdline>  (1) 
J2VwaWtfcHl0aG9uJywgJy1waHQnLCAnMS4wJywgJy1waCcsICc3LjQnLCAnLXRuJywgJzgnLCAnLW1hJywgJzUwMCcsICctaW1hZScsICc8aW5maWxlLm1hZT4nLCAnLW9tYWUnLCAnPG91dGZpbGUubWFlPic=

>  <s_epik_input>  (1) 
bjFbY0hdbltjSF1bY0hdYzFbTkgyXQ==

>  <s_glide_docking_method>  (1) 
confgen

>  <s_i_glide_gridfile>  (1) 
gpcr_drd2_6luq_protein_autoprepared_prepared

>  <s_lp_Force_Field>  (1) 
S-OPLS

>  <s_lp_Variant>  (1) 
Pocket2Mol_21-1

>  <s_m_source_file>  (1) 
generated_generic_title2_ligand_Pocket2Mol_2026-06-23_prepared.sdf

>  <GenAI_Model>  (1) 
Pocket2Mol

>  <Protein>  (1) 
generic_title2

$$$$
Pocket2Mol_21
     RDKit          3D

  0  0  0  0  0  0  0  0  0  0999 V3000
M  V30 BEGIN CTAB
M  V30 COUNTS 12 12 0 0 1
M  V30 BEGIN ATOM
M  V30 1 N 12.512751 8.427078 -7.848722 0
M  V30 2 C 11.263295 8.291179 -7.359959 0
M  V30 3 C 10.168376 8.028277 -8.182319 0
M  V30 4 C 10.414651 7.903751 -9.549234 0
M  V30 5 N 9.375646 7.646755 -10.426814 0
M  V30 6 N 11.649306 8.025506 -10.071251 0
M  V30 7 C 12.615602 8.292218 -9.179706 0
M  V30 8 H 11.142089 8.397567 -6.291632 0
M  V30 9 H 9.170603 7.924438 -7.777782 0
M  V30 10 H 8.401573 7.590227 -10.096996 0
M  V30 11 H 9.526615 7.590818 -11.420852 0
M  V30 12 H 13.613049 8.382703 -9.583163 0
M  V30 END ATOM
M  V30 BEGIN BOND
M  V30 1 1 2 1
M  V30 2 2 3 2
M  V30 3 1 4 3
M  V30 4 1 5 4
M  V30 5 2 6 4
M  V30 6 2 7 1
M  V30 7 1 7 6
M  V30 8 1 8 2
M  V30 9 1 9 3
M  V30 10 1 10 5
M  V30 11 1 11 5
M  V30 12 1 12 7
M  V30 END BOND
M  V30 END CTAB
M  END
>  <i_epik_Tot_Q>  (1) 
0

>  <i_epik_Tot_abs_Q>  (1) 
0

>  <i_i_glide_confnum>  (1) 
1

>  <i_i_glide_lignum>  (1) 
25

>  <i_i_glide_posenum>  (1) 
177

>  <i_i_glide_rotatable_bonds>  (1) 
0

>  <i_lp_mmshare_version>  (1) 
72125

>  <i_m_source_file_index>  (1) 
22

>  <i_f3d_flags>  (1) 
0

>  <num_sample>  (1) 
100

>  <b_lp_Chiralities_Consistent>  (1) 
1

>  <r_epik_Charging_Adjusted_Penalty>  (1) 
0.011441366301234922

>  <r_epik_Ionization_Penalty>  (1) 
0.011523414685131987

>  <r_epik_Ionization_Penalty_Charging>  (1) 
0

>  <r_epik_Ionization_Penalty_Neutral>  (1) 
0.011523414685131987

>  <r_epik_State_Penalty>  (1) 
0.011441366301234922

>  <r_glide_ring_energy>  (1) 
0

>  <r_i_docking_score>  (1) 
-4.402588494999196

>  <r_i_glide_ecoul>  (1) 
-5.5807326207535759

>  <r_i_glide_eff_state_penalty>  (1) 
0.011441366301234922

>  <r_i_glide_einternal>  (1) 
0

>  <r_i_glide_emodel>  (1) 
-23.736000506082412

>  <r_i_glide_emodel_strain>  (1) 
0

>  <r_i_glide_energy>  (1) 
-18.196302990961527

>  <r_i_glide_erotb>  (1) 
0

>  <r_i_glide_esite>  (1) 
-0.10000000000000001

>  <r_i_glide_evdw>  (1) 
-12.61557037020795

>  <r_i_glide_gscore>  (1) 
-4.4140298613004312

>  <r_i_glide_gscore_strain>  (1) 
0

>  <r_i_glide_hbond>  (1) 
-0.16

>  <r_i_glide_ligand_efficiency>  (1) 
-0.62894121357131372

>  <r_i_glide_ligand_efficiency_ln>  (1) 
-1.4944748048106649

>  <r_i_glide_ligand_efficiency_sa>  (1) 
-1.203121259571275

>  <r_i_glide_lipo>  (1) 
-0.21604568914194663

>  <r_i_glide_metal>  (1) 
-0

>  <r_i_glide_rewards>  (1) 
-2.4700957605350502

>  <r_lp_Energy>  (1) 
9.3523319999999988

>  <r_lp_tautomer_probability>  (1) 
0.9999995832001739

>  <s_epik_cmdline>  (1) 
J2VwaWtfcHl0aG9uJywgJy1waHQnLCAnMS4wJywgJy1waCcsICc3LjQnLCAnLXRuJywgJzgnLCAnLW1hJywgJzUwMCcsICctaW1hZScsICc8aW5maWxlLm1hZT4nLCAnLW9tYWUnLCAnPG91dGZpbGUubWFlPic=

>  <s_epik_input>  (1) 
bjFbY0hdbltjSF1bY0hdYzFbTkgyXQ==

>  <s_glide_docking_method>  (1) 
confgen

>  <s_i_glide_gridfile>  (1) 
gpcr_drd2_6luq_protein_autoprepared_prepared

>  <s_lp_Force_Field>  (1) 
S-OPLS

>  <s_lp_Variant>  (1) 
Pocket2Mol_21-1

>  <s_m_source_file>  (1) 
generated_generic_title2_ligand_Pocket2Mol_2026-06-23_prepared.sdf

>  <GenAI_Model>  (1) 
Pocket2Mol

>  <Protein>  (1) 
generic_title2

$$$$
Pocket2Mol_17
     RDKit          3D

  0  0  0  0  0  0  0  0  0  0999 V3000
M  V30 BEGIN CTAB
M  V30 COUNTS 12 12 0 0 1
M  V30 BEGIN ATOM
M  V30 1 N 9.521790 7.951825 -8.152168 0
M  V30 2 C 9.509210 8.183556 -6.790036 0
M  V30 3 C 10.551212 8.713389 -6.115425 0
M  V30 4 C 11.778586 9.077008 -6.859457 0
M  V30 5 O 12.747149 9.590227 -6.302064 0
M  V30 6 C 10.660168 8.256524 -8.874256 0
M  V30 7 C 11.768946 8.790227 -8.321706 0
M  V30 8 H 8.583953 7.904716 -6.306228 0
M  V30 9 H 10.514029 8.884820 -5.052301 0
M  V30 10 H 8.690384 7.590227 -8.622170 0
M  V30 11 H 10.586384 8.032575 -9.928697 0
M  V30 12 H 12.643926 9.021946 -8.911630 0
M  V30 END ATOM
M  V30 BEGIN BOND
M  V30 1 1 2 1
M  V30 2 2 3 2
M  V30 3 1 4 3
M  V30 4 2 5 4
M  V30 5 1 6 1
M  V30 6 1 7 4
M  V30 7 2 7 6
M  V30 8 1 8 2
M  V30 9 1 9 3
M  V30 10 1 10 1
M  V30 11 1 11 6
M  V30 12 1 12 7
M  V30 END BOND
M  V30 END CTAB
M  END
>  <i_epik_Tot_Q>  (1) 
0

>  <i_epik_Tot_abs_Q>  (1) 
0

>  <i_i_glide_confnum>  (1) 
1

>  <i_i_glide_lignum>  (1) 
20

>  <i_i_glide_posenum>  (1) 
257

>  <i_i_glide_rotatable_bonds>  (1) 
0

>  <i_lp_mmshare_version>  (1) 
72125

>  <i_m_source_file_index>  (1) 
18

>  <i_f3d_flags>  (1) 
0

>  <num_sample>  (1) 
100

>  <b_lp_Chiralities_Consistent>  (1) 
1

>  <r_epik_Charging_Adjusted_Penalty>  (1) 
0.00011828912318149299

>  <r_epik_Ionization_Penalty>  (1) 
0.00011828912318149299

>  <r_epik_Ionization_Penalty_Charging>  (1) 
0.00011828912318149299

>  <r_epik_Ionization_Penalty_Neutral>  (1) 
0

>  <r_epik_State_Penalty>  (1) 
-0

>  <r_glide_ring_energy>  (1) 
0

>  <r_i_docking_score>  (1) 
-4.4002666514757962

>  <r_i_glide_ecoul>  (1) 
-3.5568749802090727

>  <r_i_glide_eff_state_penalty>  (1) 
-0

>  <r_i_glide_einternal>  (1) 
0

>  <r_i_glide_emodel>  (1) 
-22.824515872580243

>  <r_i_glide_emodel_strain>  (1) 
0

>  <r_i_glide_energy>  (1) 
-17.360340279642269

>  <r_i_glide_erotb>  (1) 
0

>  <r_i_glide_esite>  (1) 
-0.10000000000000001

>  <r_i_glide_evdw>  (1) 
-13.803465299433196

>  <r_i_glide_gscore>  (1) 
-4.4002666514757962

>  <r_i_glide_gscore_strain>  (1) 
0

>  <r_i_glide_hbond>  (1) 
-0.15978306473457987

>  <r_i_glide_ligand_efficiency>  (1) 
-0.62860952163939943

>  <r_i_glide_ligand_efficiency_ln>  (1) 
-1.4936866465146135

>  <r_i_glide_ligand_efficiency_sa>  (1) 
-1.2024867557316421

>  <r_i_glide_lipo>  (1) 
-0.66677907473819586

>  <r_i_glide_metal>  (1) 
-0

>  <r_i_glide_rewards>  (1) 
-2.25

>  <r_lp_Energy>  (1) 
8.1847359999999991

>  <r_lp_tautomer_probability>  (1) 
1

>  <s_epik_cmdline>  (1) 
J2VwaWtfcHl0aG9uJywgJy1waHQnLCAnMS4wJywgJy1waCcsICc3LjQnLCAnLXRuJywgJzgnLCAnLW1hJywgJzUwMCcsICctaW1hZScsICc8aW5maWxlLm1hZT4nLCAnLW9tYWUnLCAnPG91dGZpbGUubWFlPic=

>  <s_epik_input>  (1) 
W2NIXTFbY0hdbltjSF1bY0hdYzFbT0hd

>  <s_glide_docking_method>  (1) 
confgen

>  <s_i_glide_gridfile>  (1) 
gpcr_drd2_6luq_protein_autoprepared_prepared

>  <s_lp_Force_Field>  (1) 
S-OPLS

>  <s_lp_Variant>  (1) 
Pocket2Mol_17-1

>  <s_m_source_file>  (1) 
generated_generic_title2_ligand_Pocket2Mol_2026-06-23_prepared.sdf

>  <GenAI_Model>  (1) 
Pocket2Mol

>  <Protein>  (1) 
generic_title2

$$$$
Pocket2Mol_55
     RDKit          3D

  0  0  0  0  0  0  0  0  0  0999 V3000
M  V30 BEGIN CTAB
M  V30 COUNTS 13 13 0 0 1
M  V30 BEGIN ATOM
M  V30 1 O 11.775408 7.780591 -4.410529 0
M  V30 2 C 11.838092 9.199747 -4.500481 0
M  V30 3 C 11.577640 9.508779 -5.969143 0
M  V30 4 C 10.983019 7.260172 -5.483421 0
M  V30 5 C 10.538311 8.462840 -6.316052 0
M  V30 6 H 11.050080 9.632225 -3.882008 0
M  V30 7 H 12.795736 9.586194 -4.150630 0
M  V30 8 H 11.235400 10.530385 -6.130684 0
M  V30 9 H 12.485157 9.353427 -6.555240 0
M  V30 10 H 11.604491 6.589364 -6.078572 0
M  V30 11 H 10.134658 6.685546 -5.111048 0
M  V30 12 H 10.477242 8.247837 -7.383991 0
M  V30 13 H 9.551509 8.789208 -5.985328 0
M  V30 END ATOM
M  V30 BEGIN BOND
M  V30 1 1 2 1
M  V30 2 1 3 2
M  V30 3 1 4 1
M  V30 4 1 5 3
M  V30 5 1 5 4
M  V30 6 1 6 2
M  V30 7 1 7 2
M  V30 8 1 8 3
M  V30 9 1 9 3
M  V30 10 1 10 4
M  V30 11 1 11 4
M  V30 12 1 12 5
M  V30 13 1 13 5
M  V30 END BOND
M  V30 END CTAB
M  END
>  <i_epik_Tot_Q>  (1) 
0

>  <i_epik_Tot_abs_Q>  (1) 
0

>  <i_i_glide_confnum>  (1) 
3

>  <i_i_glide_lignum>  (1) 
62

>  <i_i_glide_posenum>  (1) 
21

>  <i_i_glide_rotatable_bonds>  (1) 
0

>  <i_lp_mmshare_version>  (1) 
72125

>  <i_m_source_file_index>  (1) 
56

>  <i_f3d_flags>  (1) 
0

>  <num_sample>  (1) 
100

>  <b_lp_Chiralities_Consistent>  (1) 
1

>  <r_epik_Charging_Adjusted_Penalty>  (1) 
0

>  <r_epik_Ionization_Penalty>  (1) 
1.3889264151150229e-11

>  <r_epik_Ionization_Penalty_Charging>  (1) 
0

>  <r_epik_Ionization_Penalty_Neutral>  (1) 
1.3889264151150229e-11

>  <r_epik_State_Penalty>  (1) 
-0

>  <r_glide_ring_energy>  (1) 
0.22161987042107956

>  <r_i_docking_score>  (1) 
-4.3969462904236858

>  <r_i_glide_ecoul>  (1) 
-0.34502791775835384

>  <r_i_glide_eff_state_penalty>  (1) 
-0

>  <r_i_glide_einternal>  (1) 
0

>  <r_i_glide_emodel>  (1) 
-17.221057091947259

>  <r_i_glide_emodel_strain>  (1) 
0

>  <r_i_glide_energy>  (1) 
-13.420570421370908

>  <r_i_glide_erotb>  (1) 
0

>  <r_i_glide_esite>  (1) 
0

>  <r_i_glide_evdw>  (1) 
-13.075542503612553

>  <r_i_glide_gscore>  (1) 
-4.3969462904236858

>  <r_i_glide_gscore_strain>  (1) 
0

>  <r_i_glide_hbond>  (1) 
0

>  <r_i_glide_ligand_efficiency>  (1) 
-0.87938925808473711

>  <r_i_glide_ligand_efficiency_ln>  (1) 
-1.6850166349894817

>  <r_i_glide_ligand_efficiency_sa>  (1) 
-1.5037344790907667

>  <r_i_glide_lipo>  (1) 
-1.1994107620207337

>  <r_i_glide_metal>  (1) 
-0

>  <r_i_glide_rewards>  (1) 
-2.4920042155585715

>  <r_lp_Energy>  (1) 
3.9173999999999998

>  <r_lp_tautomer_probability>  (1) 
1

>  <s_epik_cmdline>  (1) 
J2VwaWtfcHl0aG9uJywgJy1waHQnLCAnMS4wJywgJy1waCcsICc3LjQnLCAnLXRuJywgJzgnLCAnLW1hJywgJzUwMCcsICctaW1hZScsICc8aW5maWxlLm1hZT4nLCAnLW9tYWUnLCAnPG91dGZpbGUubWFlPic=

>  <s_epik_input>  (1) 
TzFbQ0gyXVtDSDJdW0NIMl1bQ0gyXTE=

>  <s_glide_docking_method>  (1) 
confgen

>  <s_i_glide_gridfile>  (1) 
gpcr_drd2_6luq_protein_autoprepared_prepared

>  <s_lp_Force_Field>  (1) 
S-OPLS

>  <s_lp_Variant>  (1) 
Pocket2Mol_55-1

>  <s_m_source_file>  (1) 
generated_generic_title2_ligand_Pocket2Mol_2026-06-23_prepared.sdf

>  <GenAI_Model>  (1) 
Pocket2Mol

>  <Protein>  (1) 
generic_title2

$$$$
Pocket2Mol_20
     RDKit          3D

  0  0  0  0  0  0  0  0  0  0999 V3000
M  V30 BEGIN CTAB
M  V30 COUNTS 12 12 0 0 1
M  V30 BEGIN ATOM
M  V30 1 N 11.241448 8.582911 -6.561077 0
M  V30 2 C 12.172506 8.705677 -7.537593 0
M  V30 3 C 11.988854 8.232020 -8.851656 0
M  V30 4 C 10.081033 7.963182 -6.889654 0
M  V30 5 O 12.968579 8.390225 -9.792859 0
M  V30 6 C 10.782168 7.592777 -9.175603 0
M  V30 7 C 9.809653 7.454244 -8.174088 0
M  V30 8 H 13.095289 9.190228 -7.257983 0
M  V30 9 H 9.348157 7.871928 -6.101422 0
M  V30 10 H 13.598973 9.071208 -9.585026 0
M  V30 11 H 10.605786 7.215462 -10.172379 0
M  V30 12 H 8.867254 6.968687 -8.385030 0
M  V30 END ATOM
M  V30 BEGIN BOND
M  V30 1 2 2 1
M  V30 2 1 3 2
M  V30 3 1 4 1
M  V30 4 1 5 3
M  V30 5 2 6 3
M  V30 6 2 7 4
M  V30 7 1 7 6
M  V30 8 1 8 2
M  V30 9 1 9 4
M  V30 10 1 10 5
M  V30 11 1 11 6
M  V30 12 1 12 7
M  V30 END BOND
M  V30 END CTAB
M  END
>  <i_epik_Tot_Q>  (1) 
0

>  <i_epik_Tot_abs_Q>  (1) 
0

>  <i_i_glide_confnum>  (1) 
1

>  <i_i_glide_lignum>  (1) 
24

>  <i_i_glide_posenum>  (1) 
22

>  <i_i_glide_rotatable_bonds>  (1) 
1

>  <i_lp_mmshare_version>  (1) 
72125

>  <i_m_source_file_index>  (1) 
21

>  <i_f3d_flags>  (1) 
0

>  <num_sample>  (1) 
100

>  <b_lp_Chiralities_Consistent>  (1) 
1

>  <r_epik_Charging_Adjusted_Penalty>  (1) 
0.49104251329211085

>  <r_epik_Ionization_Penalty>  (1) 
0.049438115990627488

>  <r_epik_Ionization_Penalty_Charging>  (1) 
0

>  <r_epik_Ionization_Penalty_Neutral>  (1) 
0.049438115990627488

>  <r_epik_State_Penalty>  (1) 
0.49104251329211085

>  <r_glide_ring_energy>  (1) 
0

>  <r_i_docking_score>  (1) 
-4.3945594608604521

>  <r_i_glide_ecoul>  (1) 
-4.3709228554658495

>  <r_i_glide_eff_state_penalty>  (1) 
0.49104251329211085

>  <r_i_glide_einternal>  (1) 
0.42960789717100001

>  <r_i_glide_emodel>  (1) 
-25.315174752195471

>  <r_i_glide_emodel_strain>  (1) 
0.025130224366241016

>  <r_i_glide_energy>  (1) 
-19.167639457776357

>  <r_i_glide_erotb>  (1) 
0

>  <r_i_glide_esite>  (1) 
0

>  <r_i_glide_evdw>  (1) 
-14.796716602310507

>  <r_i_glide_gscore>  (1) 
-4.8856019741525634

>  <r_i_glide_gscore_strain>  (1) 
0

>  <r_i_glide_hbond>  (1) 
-0.32000000000000001

>  <r_i_glide_ligand_efficiency>  (1) 
-0.62779420869435032

>  <r_i_glide_ligand_efficiency_ln>  (1) 
-1.4917493197372933

>  <r_i_glide_ligand_efficiency_sa>  (1) 
-1.2009271181753396

>  <r_i_glide_lipo>  (1) 
-0.65346104905049385

>  <r_i_glide_metal>  (1) 
-0

>  <r_i_glide_rewards>  (1) 
-2.5166666666666666

>  <r_lp_Energy>  (1) 
10.560834

>  <r_lp_tautomer_probability>  (1) 
0.43658000000000002

>  <s_epik_cmdline>  (1) 
J2VwaWtfcHl0aG9uJywgJy1waHQnLCAnMS4wJywgJy1waCcsICc3LjQnLCAnLXRuJywgJzgnLCAnLW1hJywgJzUwMCcsICctaW1hZScsICc8aW5maWxlLm1hZT4nLCAnLW9tYWUnLCAnPG91dGZpbGUubWFlPic=

>  <s_epik_input>  (1) 
W2NIXTFbY0hdW2NIXW5bY0hdYzFbT0hd

>  <s_glide_docking_method>  (1) 
confgen

>  <s_i_glide_gridfile>  (1) 
gpcr_drd2_6luq_protein_autoprepared_prepared

>  <s_lp_Force_Field>  (1) 
S-OPLS

>  <s_lp_Variant>  (1) 
Pocket2Mol_20-2

>  <s_m_source_file>  (1) 
generated_generic_title2_ligand_Pocket2Mol_2026-06-23_prepared.sdf

>  <GenAI_Model>  (1) 
Pocket2Mol

>  <Protein>  (1) 
generic_title2

$$$$
Pocket2Mol_20
     RDKit          3D

  0  0  0  0  0  0  0  0  0  0999 V3000
M  V30 BEGIN CTAB
M  V30 COUNTS 12 12 0 0 1
M  V30 BEGIN ATOM
M  V30 1 N 9.375405 7.707449 -9.629273 0 CHG=1
M  V30 2 C 9.985640 7.381700 -10.781330 0
M  V30 3 C 11.376642 7.527779 -10.896845 0
M  V30 4 C 10.037528 8.182818 -8.554501 0
M  V30 5 O 12.003621 7.190227 -12.057086 0 CHG=-1
M  V30 6 C 12.116508 8.017963 -9.799040 0
M  V30 7 C 11.436472 8.351301 -8.609731 0
M  V30 8 H 9.348075 7.012657 -11.574542 0
M  V30 9 H 9.432272 8.412365 -7.687684 0
M  V30 10 H 8.324034 7.590236 -9.562620 0
M  V30 11 H 13.190886 8.135619 -9.868860 0
M  V30 12 H 11.981087 8.727880 -7.757320 0
M  V30 END ATOM
M  V30 BEGIN BOND
M  V30 1 1 2 1
M  V30 2 2 3 2
M  V30 3 2 4 1
M  V30 4 1 5 3
M  V30 5 1 6 3
M  V30 6 1 7 4
M  V30 7 2 7 6
M  V30 8 1 8 2
M  V30 9 1 9 4
M  V30 10 1 10 1
M  V30 11 1 11 6
M  V30 12 1 12 7
M  V30 END BOND
M  V30 END CTAB
M  END
>  <i_epik_Tot_Q>  (1) 
0

>  <i_epik_Tot_abs_Q>  (1) 
2

>  <i_i_glide_confnum>  (1) 
1

>  <i_i_glide_lignum>  (1) 
23

>  <i_i_glide_posenum>  (1) 
336

>  <i_i_glide_rotatable_bonds>  (1) 
0

>  <i_lp_mmshare_version>  (1) 
72125

>  <i_m_source_file_index>  (1) 
21

>  <i_f3d_flags>  (1) 
0

>  <num_sample>  (1) 
100

>  <b_lp_Chiralities_Consistent>  (1) 
1

>  <r_epik_Charging_Adjusted_Penalty>  (1) 
0.36510749842979956

>  <r_epik_Ionization_Penalty>  (1) 
0.025180683492302028

>  <r_epik_Ionization_Penalty_Charging>  (1) 
0.025180683492302028

>  <r_epik_Ionization_Penalty_Neutral>  (1) 
0

>  <r_epik_State_Penalty>  (1) 
0.33992681493749755

>  <r_glide_ring_energy>  (1) 
0

>  <r_i_docking_score>  (1) 
-4.3943231283487068

>  <r_i_glide_ecoul>  (1) 
-9.4526714933316711

>  <r_i_glide_eff_state_penalty>  (1) 
0.33992681493749755

>  <r_i_glide_einternal>  (1) 
0

>  <r_i_glide_emodel>  (1) 
-23.879155893893277

>  <r_i_glide_emodel_strain>  (1) 
1.1465047577985388e-08

>  <r_i_glide_energy>  (1) 
-14.985378990027662

>  <r_i_glide_erotb>  (1) 
0

>  <r_i_glide_esite>  (1) 
-0.10000000000000001

>  <r_i_glide_evdw>  (1) 
-5.5327074966959922

>  <r_i_glide_gscore>  (1) 
-4.734249943286204

>  <r_i_glide_gscore_strain>  (1) 
0

>  <r_i_glide_hbond>  (1) 
-0.14246033610059256

>  <r_i_glide_ligand_efficiency>  (1) 
-0.62776044690695809

>  <r_i_glide_ligand_efficiency_ln>  (1) 
-1.4916690957997705

>  <r_i_glide_ligand_efficiency_sa>  (1) 
-1.200862534199451

>  <r_i_glide_lipo>  (1) 
-0.54725350835106146

>  <r_i_glide_metal>  (1) 
-0

>  <r_i_glide_rewards>  (1) 
-2.25

>  <r_lp_Energy>  (1) 
9.275188

>  <r_lp_tautomer_probability>  (1) 
0.56342000000000003

>  <s_epik_cmdline>  (1) 
J2VwaWtfcHl0aG9uJywgJy1waHQnLCAnMS4wJywgJy1waCcsICc3LjQnLCAnLXRuJywgJzgnLCAnLW1hJywgJzUwMCcsICctaW1hZScsICc8aW5maWxlLm1hZT4nLCAnLW9tYWUnLCAnPG91dGZpbGUubWFlPic=

>  <s_epik_input>  (1) 
W2NIXTFbY0hdW2NIXW5bY0hdYzFbT0hd

>  <s_glide_docking_method>  (1) 
confgen

>  <s_i_glide_gridfile>  (1) 
gpcr_drd2_6luq_protein_autoprepared_prepared

>  <s_lp_Force_Field>  (1) 
S-OPLS

>  <s_lp_Variant>  (1) 
Pocket2Mol_20-1

>  <s_m_source_file>  (1) 
generated_generic_title2_ligand_Pocket2Mol_2026-06-23_prepared.sdf

>  <GenAI_Model>  (1) 
Pocket2Mol

>  <Protein>  (1) 
generic_title2

$$$$
Pocket2Mol_8
     RDKit          3D

  0  0  0  0  0  0  0  0  0  0999 V3000
M  V30 BEGIN CTAB
M  V30 COUNTS 13 13 0 0 1
M  V30 BEGIN ATOM
M  V30 1 N 10.647493 8.612952 -6.042138 0
M  V30 2 C 11.632495 8.790203 -6.970186 0
M  V30 3 C 11.368739 8.317023 -8.152317 0
M  V30 4 C 9.775482 7.990070 -6.785026 0
M  V30 5 C 12.294931 8.389752 -9.346922 0
M  V30 6 C 10.057036 7.670610 -8.303359 0
M  V30 7 H 12.543919 9.294932 -6.683633 0
M  V30 8 H 8.806970 7.657418 -6.401010 0
M  V30 9 H 12.443797 7.397233 -9.770710 0
M  V30 10 H 11.867337 9.032487 -10.116102 0
M  V30 11 H 13.269778 8.790127 -9.067084 0
M  V30 12 H 10.110347 6.600239 -8.502814 0
M  V30 13 H 9.375528 8.197573 -8.972433 0
M  V30 END ATOM
M  V30 BEGIN BOND
M  V30 1 1 2 1
M  V30 2 2 3 2
M  V30 3 2 4 1
M  V30 4 1 5 3
M  V30 5 1 6 3
M  V30 6 1 6 4
M  V30 7 1 7 2
M  V30 8 1 8 4
M  V30 9 1 9 5
M  V30 10 1 10 5
M  V30 11 1 11 5
M  V30 12 1 12 6
M  V30 13 1 13 6
M  V30 END BOND
M  V30 END CTAB
M  END
>  <i_epik_Tot_Q>  (1) 
0

>  <i_epik_Tot_abs_Q>  (1) 
0

>  <i_i_glide_confnum>  (1) 
1

>  <i_i_glide_lignum>  (1) 
9

>  <i_i_glide_posenum>  (1) 
342

>  <i_i_glide_rotatable_bonds>  (1) 
0

>  <i_lp_mmshare_version>  (1) 
72125

>  <i_m_source_file_index>  (1) 
9

>  <i_f3d_flags>  (1) 
0

>  <num_sample>  (1) 
100

>  <b_lp_Chiralities_Consistent>  (1) 
1

>  <r_epik_Charging_Adjusted_Penalty>  (1) 
0

>  <r_epik_Ionization_Penalty>  (1) 
0

>  <r_epik_Ionization_Penalty_Charging>  (1) 
0

>  <r_epik_Ionization_Penalty_Neutral>  (1) 
0

>  <r_epik_State_Penalty>  (1) 
-0

>  <r_glide_ring_energy>  (1) 
0

>  <r_i_docking_score>  (1) 
-4.38999722097802

>  <r_i_glide_ecoul>  (1) 
-1.2958521710201001

>  <r_i_glide_eff_state_penalty>  (1) 
-0

>  <r_i_glide_einternal>  (1) 
0

>  <r_i_glide_emodel>  (1) 
-21.836118645386463

>  <r_i_glide_emodel_strain>  (1) 
0

>  <r_i_glide_energy>  (1) 
-16.981976265242213

>  <r_i_glide_erotb>  (1) 
0

>  <r_i_glide_esite>  (1) 
-0.0067191704680186655

>  <r_i_glide_evdw>  (1) 
-15.686124094222114

>  <r_i_glide_gscore>  (1) 
-4.38999722097802

>  <r_i_glide_gscore_strain>  (1) 
0

>  <r_i_glide_hbond>  (1) 
0

>  <r_i_glide_ligand_efficiency>  (1) 
-0.73166620349633671

>  <r_i_glide_ligand_efficiency_ln>  (1) 
-1.5724840443334795

>  <r_i_glide_ligand_efficiency_sa>  (1) 
-1.3295257254525044

>  <r_i_glide_lipo>  (1) 
-0.72959402014588082

>  <r_i_glide_metal>  (1) 
-0

>  <r_i_glide_rewards>  (1) 
-2.6749999999999998

>  <r_lp_Energy>  (1) 
-3.9959819999999997

>  <r_lp_tautomer_probability>  (1) 
1

>  <s_epik_Chemistry_Notes>  (1) 
This compound has an imine and may undergo hydrolysis.

>  <s_epik_cmdline>  (1) 
J2VwaWtfcHl0aG9uJywgJy1waHQnLCAnMS4wJywgJy1waCcsICc3LjQnLCAnLXRuJywgJzgnLCAnLW1hJywgJzUwMCcsICctaW1hZScsICc8aW5maWxlLm1hZT4nLCAnLW9tYWUnLCAnPG91dGZpbGUubWFlPic=

>  <s_epik_input>  (1) 
W0NIMl0xW0NIXT1OW0NIXT1DMVtDSDNd

>  <s_glide_docking_method>  (1) 
confgen

>  <s_i_glide_gridfile>  (1) 
gpcr_drd2_6luq_protein_autoprepared_prepared

>  <s_lp_Force_Field>  (1) 
S-OPLS

>  <s_lp_Variant>  (1) 
Pocket2Mol_8-1

>  <s_m_source_file>  (1) 
generated_generic_title2_ligand_Pocket2Mol_2026-06-23_prepared.sdf

>  <GenAI_Model>  (1) 
Pocket2Mol

>  <Protein>  (1) 
generic_title2

$$$$
Pocket2Mol_19
     RDKit          3D

  0  0  0  0  0  0  0  0  0  0999 V3000
M  V30 BEGIN CTAB
M  V30 COUNTS 14 14 0 0 1
M  V30 BEGIN ATOM
M  V30 1 N 9.375410 4.384603 -12.796292 0 CHG=1
M  V30 2 C 9.404485 5.645805 -12.322385 0
M  V30 3 C 8.240813 6.216886 -11.775125 0
M  V30 4 C 7.055106 5.452296 -11.731682 0
M  V30 5 N 5.895640 5.990227 -11.185025 0
M  V30 6 C 7.064027 4.136113 -12.243688 0
M  V30 7 C 8.262692 3.619441 -12.778682 0
M  V30 8 H 10.354224 6.156750 -12.391802 0
M  V30 9 H 8.256345 7.225683 -11.389404 0
M  V30 10 H 5.140664 5.369361 -10.936098 0
M  V30 11 H 5.979094 6.818149 -10.589582 0
M  V30 12 H 6.169495 3.531687 -12.221167 0
M  V30 13 H 8.364305 2.623015 -13.185026 0
M  V30 14 H 10.240507 3.990227 -13.185025 0
M  V30 END ATOM
M  V30 BEGIN BOND
M  V30 1 1 2 1
M  V30 2 2 3 2
M  V30 3 1 4 3
M  V30 4 1 5 4
M  V30 5 2 6 4
M  V30 6 2 7 1
M  V30 7 1 7 6
M  V30 8 1 8 2
M  V30 9 1 9 3
M  V30 10 1 10 5
M  V30 11 1 11 5
M  V30 12 1 12 6
M  V30 13 1 13 7
M  V30 14 1 14 1
M  V30 END BOND
M  V30 END CTAB
M  END
>  <i_epik_Tot_Q>  (1) 
1

>  <i_epik_Tot_abs_Q>  (1) 
1

>  <i_i_glide_confnum>  (1) 
1

>  <i_i_glide_lignum>  (1) 
22

>  <i_i_glide_posenum>  (1) 
376

>  <i_i_glide_rotatable_bonds>  (1) 
0

>  <i_lp_mmshare_version>  (1) 
72125

>  <i_m_source_file_index>  (1) 
20

>  <i_f3d_flags>  (1) 
0

>  <num_sample>  (1) 
100

>  <b_lp_Chiralities_Consistent>  (1) 
1

>  <r_epik_Charging_Adjusted_Penalty>  (1) 
0.023410508937706027

>  <r_epik_Ionization_Penalty>  (1) 
0.011711918016166721

>  <r_epik_Ionization_Penalty_Charging>  (1) 
0.011705254468853022

>  <r_epik_Ionization_Penalty_Neutral>  (1) 
6.6635473136990569e-06

>  <r_epik_State_Penalty>  (1) 
0.011705254468853005

>  <r_glide_ring_energy>  (1) 
0

>  <r_i_docking_score>  (1) 
-4.3822161391134573

>  <r_i_glide_ecoul>  (1) 
-6.7500187954134176

>  <r_i_glide_eff_state_penalty>  (1) 
0.011705254468853005

>  <r_i_glide_einternal>  (1) 
0

>  <r_i_glide_emodel>  (1) 
-24.019466488133205

>  <r_i_glide_emodel_strain>  (1) 
0

>  <r_i_glide_energy>  (1) 
-15.784265740940109

>  <r_i_glide_erotb>  (1) 
0

>  <r_i_glide_esite>  (1) 
-0.087477922824718182

>  <r_i_glide_evdw>  (1) 
-9.0342469455266912

>  <r_i_glide_gscore>  (1) 
-4.3939213935823105

>  <r_i_glide_gscore_strain>  (1) 
0

>  <r_i_glide_hbond>  (1) 
-0.16

>  <r_i_glide_ligand_efficiency>  (1) 
-0.62603087701620819

>  <r_i_glide_ligand_efficiency_ln>  (1) 
-1.4875593339188347

>  <r_i_glide_ligand_efficiency_sa>  (1) 
-1.1975539860226512

>  <r_i_glide_lipo>  (1) 
-0.4322283041692444

>  <r_i_glide_metal>  (1) 
-0

>  <r_i_glide_rewards>  (1) 
-2.25

>  <r_lp_Energy>  (1) 
13.062742999999999

>  <r_lp_tautomer_probability>  (1) 
0.99999999993680011

>  <s_epik_cmdline>  (1) 
J2VwaWtfcHl0aG9uJywgJy1waHQnLCAnMS4wJywgJy1waCcsICc3LjQnLCAnLXRuJywgJzgnLCAnLW1hJywgJzUwMCcsICctaW1hZScsICc8aW5maWxlLm1hZT4nLCAnLW9tYWUnLCAnPG91dGZpbGUubWFlPic=

>  <s_epik_input>  (1) 
W2NIXTFbY0hdbltjSF1bY0hdYzFbTkgyXQ==

>  <s_glide_docking_method>  (1) 
confgen

>  <s_i_glide_gridfile>  (1) 
gpcr_drd2_6luq_protein_autoprepared_prepared

>  <s_lp_Force_Field>  (1) 
S-OPLS

>  <s_lp_Variant>  (1) 
Pocket2Mol_19-1

>  <s_m_source_file>  (1) 
generated_generic_title2_ligand_Pocket2Mol_2026-06-23_prepared.sdf

>  <GenAI_Model>  (1) 
Pocket2Mol

>  <Protein>  (1) 
generic_title2

$$$$
Pocket2Mol_77
     RDKit          3D

  0  0  0  0  0  0  0  0  0  0999 V3000
M  V30 BEGIN CTAB
M  V30 COUNTS 11 11 0 0 1
M  V30 BEGIN ATOM
M  V30 1 C 10.975451 7.368353 -5.532393 0
M  V30 2 O 11.775410 7.787787 -4.355167 0
M  V30 3 C 10.575408 8.621177 -6.449576 0
M  V30 4 C 11.251210 9.590134 -5.585028 0
M  V30 5 C 11.842697 9.117512 -4.536872 0
M  V30 6 H 10.080094 6.851639 -5.185025 0
M  V30 7 H 11.549216 6.643149 -6.110930 0
M  V30 8 H 9.499035 8.790207 -6.499711 0
M  V30 9 H 11.015374 8.587257 -7.446533 0
M  V30 10 H 11.239358 10.641225 -5.833775 0
M  V30 11 H 12.392666 9.652605 -3.776616 0
M  V30 END ATOM
M  V30 BEGIN BOND
M  V30 1 1 2 1
M  V30 2 1 3 1
M  V30 3 1 4 3
M  V30 4 1 5 2
M  V30 5 2 5 4
M  V30 6 1 6 1
M  V30 7 1 7 1
M  V30 8 1 8 3
M  V30 9 1 9 3
M  V30 10 1 10 4
M  V30 11 1 11 5
M  V30 END BOND
M  V30 END CTAB
M  END
>  <i_epik_Tot_Q>  (1) 
0

>  <i_epik_Tot_abs_Q>  (1) 
0

>  <i_i_glide_confnum>  (1) 
1

>  <i_i_glide_lignum>  (1) 
84

>  <i_i_glide_posenum>  (1) 
271

>  <i_i_glide_rotatable_bonds>  (1) 
0

>  <i_lp_mmshare_version>  (1) 
72125

>  <i_m_source_file_index>  (1) 
78

>  <i_f3d_flags>  (1) 
0

>  <num_sample>  (1) 
100

>  <b_lp_Chiralities_Consistent>  (1) 
1

>  <r_epik_Charging_Adjusted_Penalty>  (1) 
0

>  <r_epik_Ionization_Penalty>  (1) 
0

>  <r_epik_Ionization_Penalty_Charging>  (1) 
0

>  <r_epik_Ionization_Penalty_Neutral>  (1) 
0

>  <r_epik_State_Penalty>  (1) 
-0

>  <r_glide_ring_energy>  (1) 
0

>  <r_i_docking_score>  (1) 
-4.3789153965265299

>  <r_i_glide_ecoul>  (1) 
-0.51069619532926702

>  <r_i_glide_eff_state_penalty>  (1) 
-0

>  <r_i_glide_einternal>  (1) 
0

>  <r_i_glide_emodel>  (1) 
-16.800089119445435

>  <r_i_glide_emodel_strain>  (1) 
0

>  <r_i_glide_energy>  (1) 
-12.979151783543452

>  <r_i_glide_erotb>  (1) 
0

>  <r_i_glide_esite>  (1) 
0

>  <r_i_glide_evdw>  (1) 
-12.468455588214185

>  <r_i_glide_gscore>  (1) 
-4.3789153965265299

>  <r_i_glide_gscore_strain>  (1) 
0

>  <r_i_glide_hbond>  (1) 
0

>  <r_i_glide_ligand_efficiency>  (1) 
-0.87578307930530597

>  <r_i_glide_ligand_efficiency_ln>  (1) 
-1.6781067584175051

>  <r_i_glide_ligand_efficiency_sa>  (1) 
-1.4975680001185234

>  <r_i_glide_lipo>  (1) 
-1.1910463552594499

>  <r_i_glide_metal>  (1) 
-0

>  <r_i_glide_rewards>  (1) 
-2.4878418325569811

>  <r_lp_Energy>  (1) 
-3.1771669999999999

>  <r_lp_tautomer_probability>  (1) 
1

>  <s_epik_cmdline>  (1) 
J2VwaWtfcHl0aG9uJywgJy1waHQnLCAnMS4wJywgJy1waCcsICc3LjQnLCAnLXRuJywgJzgnLCAnLW1hJywgJzUwMCcsICctaW1hZScsICc8aW5maWxlLm1hZT4nLCAnLW9tYWUnLCAnPG91dGZpbGUubWFlPic=

>  <s_epik_input>  (1) 
W0NIMl0xT1tDSF09W0NIXVtDSDJdMQ==

>  <s_glide_docking_method>  (1) 
confgen

>  <s_i_glide_gridfile>  (1) 
gpcr_drd2_6luq_protein_autoprepared_prepared

>  <s_lp_Force_Field>  (1) 
S-OPLS

>  <s_lp_Variant>  (1) 
Pocket2Mol_77-1

>  <s_m_source_file>  (1) 
generated_generic_title2_ligand_Pocket2Mol_2026-06-23_prepared.sdf

>  <GenAI_Model>  (1) 
Pocket2Mol

>  <Protein>  (1) 
generic_title2

$$$$
Pocket2Mol_91
     RDKit          3D

  0  0  0  0  0  0  0  0  0  0999 V3000
M  V30 BEGIN CTAB
M  V30 COUNTS 21 22 0 0 1
M  V30 BEGIN ATOM
M  V30 1 C 9.247423 6.677020 -10.879486 0
M  V30 2 O 9.412521 5.522187 -10.083600 0
M  V30 3 C 10.588899 7.338261 -11.083121 0
M  V30 4 O 11.439814 7.190301 -9.968913 0
M  V30 5 C 9.202583 5.590555 -8.759573 0
M  V30 6 C 10.980471 7.479899 -8.711000 0
M  V30 7 C 11.593564 8.509908 -7.982926 0
M  V30 8 O 8.482116 4.795544 -8.156149 0
M  V30 9 C 9.927811 6.740501 -8.087398 0
M  V30 10 C 11.150913 8.782271 -6.676673 0
M  V30 11 C 9.568839 7.094429 -6.771568 0
M  V30 12 N 11.746570 9.803156 -5.940512 0
M  V30 13 N 10.162682 8.094115 -6.072954 0
M  V30 14 H 8.790312 6.423456 -11.836478 0
M  V30 15 H 8.575410 7.383614 -10.400060 0
M  V30 16 H 11.100451 6.894153 -11.941276 0
M  V30 17 H 10.445327 8.390009 -11.290087 0
M  V30 18 H 12.398019 9.079496 -8.421766 0
M  V30 19 H 8.781210 6.560904 -6.259528 0
M  V30 20 H 12.482615 10.373102 -6.326517 0
M  V30 21 H 11.440304 10.022847 -5.003783 0
M  V30 END ATOM
M  V30 BEGIN BOND
M  V30 1 1 2 1
M  V30 2 1 3 1
M  V30 3 1 4 3
M  V30 4 1 5 2
M  V30 5 1 6 4
M  V30 6 1 7 6
M  V30 7 2 8 5
M  V30 8 1 9 5
M  V30 9 2 9 6
M  V30 10 2 10 7
M  V30 11 1 11 9
M  V30 12 1 12 10
M  V30 13 1 13 10
M  V30 14 2 13 11
M  V30 15 1 14 1
M  V30 16 1 15 1
M  V30 17 1 16 3
M  V30 18 1 17 3
M  V30 19 1 18 7
M  V30 20 1 19 11
M  V30 21 1 20 12
M  V30 22 1 21 12
M  V30 END BOND
M  V30 END CTAB
M  END
>  <i_epik_Tot_Q>  (1) 
0

>  <i_epik_Tot_abs_Q>  (1) 
0

>  <i_i_glide_confnum>  (1) 
1

>  <i_i_glide_lignum>  (1) 
99

>  <i_i_glide_posenum>  (1) 
377

>  <i_i_glide_rotatable_bonds>  (1) 
0

>  <i_lp_mmshare_version>  (1) 
72125

>  <i_m_source_file_index>  (1) 
92

>  <i_f3d_flags>  (1) 
0

>  <num_sample>  (1) 
100

>  <b_lp_Chiralities_Consistent>  (1) 
1

>  <r_epik_Charging_Adjusted_Penalty>  (1) 
0.47186222519243537

>  <r_epik_Ionization_Penalty>  (1) 
0.4718627144316776

>  <r_epik_Ionization_Penalty_Charging>  (1) 
0

>  <r_epik_Ionization_Penalty_Neutral>  (1) 
0.4718627144316776

>  <r_epik_State_Penalty>  (1) 
0.47186222519243537

>  <r_glide_ring_energy>  (1) 
0

>  <r_i_docking_score>  (1) 
-4.3779374141698444

>  <r_i_glide_ecoul>  (1) 
-1.6384565185239222

>  <r_i_glide_eff_state_penalty>  (1) 
0.47186222519243537

>  <r_i_glide_einternal>  (1) 
0

>  <r_i_glide_emodel>  (1) 
-31.674851051075592

>  <r_i_glide_emodel_strain>  (1) 
0

>  <r_i_glide_energy>  (1) 
-24.144399240362233

>  <r_i_glide_erotb>  (1) 
0

>  <r_i_glide_esite>  (1) 
-0.063321919159639486

>  <r_i_glide_evdw>  (1) 
-22.505942721838313

>  <r_i_glide_gscore>  (1) 
-4.8497996393622795

>  <r_i_glide_gscore_strain>  (1) 
0

>  <r_i_glide_hbond>  (1) 
0

>  <r_i_glide_ligand_efficiency>  (1) 
-0.33676441647460342

>  <r_i_glide_ligand_efficiency_ln>  (1) 
-1.2280503802969043

>  <r_i_glide_ligand_efficiency_sa>  (1) 
-0.79184585404677488

>  <r_i_glide_lipo>  (1) 
-0.5847159245139536

>  <r_i_glide_metal>  (1) 
-0

>  <r_i_glide_rewards>  (1) 
-2.8306961818181819

>  <r_lp_Energy>  (1) 
11.927572999999999

>  <s_epik_Chemistry_Notes>  (1) 
This compound has an ester and may undergo hydrolysis at high or low pH.

>  <s_epik_cmdline>  (1) 
J2VwaWtfcHl0aG9uJywgJy1waHQnLCAnMS4wJywgJy1waCcsICc3LjQnLCAnLXRuJywgJzgnLCAnLW1hJywgJzUwMCcsICctaW1hZScsICc8aW5maWxlLm1hZT4nLCAnLW9tYWUnLCAnPG91dGZpbGUubWFlPic=

>  <s_epik_input>  (1) 
TzFbQ0gyXVtDSDJdT0MoPU8pYyhjMTIpW2NIXW5jKFtjSF0yKVtOSDJd

>  <s_glide_docking_method>  (1) 
confgen

>  <s_i_glide_gridfile>  (1) 
gpcr_drd2_6luq_protein_autoprepared_prepared

>  <s_lp_Force_Field>  (1) 
S-OPLS

>  <s_lp_Variant>  (1) 
Pocket2Mol_91-2

>  <s_m_source_file>  (1) 
generated_generic_title2_ligand_Pocket2Mol_2026-06-23_prepared.sdf

>  <GenAI_Model>  (1) 
Pocket2Mol

>  <Protein>  (1) 
generic_title2

$$$$
Pocket2Mol_20
     RDKit          3D

  0  0  0  0  0  0  0  0  0  0999 V3000
M  V30 BEGIN CTAB
M  V30 COUNTS 12 12 0 0 1
M  V30 BEGIN ATOM
M  V30 1 N 12.200694 9.190227 -3.985025 0
M  V30 2 C 11.501726 9.298237 -5.141338 0
M  V30 3 C 10.873978 8.205822 -5.773648 0
M  V30 4 C 12.287960 7.958529 -3.426102 0
M  V30 5 O 10.175326 8.384130 -6.934674 0
M  V30 6 C 10.975410 6.933911 -5.185034 0
M  V30 7 C 11.698334 6.806933 -3.986301 0
M  V30 8 H 11.438447 10.287563 -5.571043 0
M  V30 9 H 12.847406 7.890521 -2.504776 0
M  V30 10 H 9.645656 7.645352 -7.202845 0
M  V30 11 H 10.506943 6.073651 -5.640622 0
M  V30 12 H 11.796382 5.846798 -3.501990 0
M  V30 END ATOM
M  V30 BEGIN BOND
M  V30 1 2 2 1
M  V30 2 1 3 2
M  V30 3 1 4 1
M  V30 4 1 5 3
M  V30 5 2 6 3
M  V30 6 2 7 4
M  V30 7 1 7 6
M  V30 8 1 8 2
M  V30 9 1 9 4
M  V30 10 1 10 5
M  V30 11 1 11 6
M  V30 12 1 12 7
M  V30 END BOND
M  V30 END CTAB
M  END
>  <i_epik_Tot_Q>  (1) 
0

>  <i_epik_Tot_abs_Q>  (1) 
0

>  <i_i_glide_confnum>  (1) 
1

>  <i_i_glide_lignum>  (1) 
24

>  <i_i_glide_posenum>  (1) 
345

>  <i_i_glide_rotatable_bonds>  (1) 
1

>  <i_lp_mmshare_version>  (1) 
72125

>  <i_m_source_file_index>  (1) 
21

>  <i_f3d_flags>  (1) 
0

>  <num_sample>  (1) 
100

>  <b_lp_Chiralities_Consistent>  (1) 
1

>  <r_epik_Charging_Adjusted_Penalty>  (1) 
0.49104251329211085

>  <r_epik_Ionization_Penalty>  (1) 
0.049438115990627488

>  <r_epik_Ionization_Penalty_Charging>  (1) 
0

>  <r_epik_Ionization_Penalty_Neutral>  (1) 
0.049438115990627488

>  <r_epik_State_Penalty>  (1) 
0.49104251329211085

>  <r_glide_ring_energy>  (1) 
0

>  <r_i_docking_score>  (1) 
-4.3705225873001643

>  <r_i_glide_ecoul>  (1) 
-1.6070456875631129

>  <r_i_glide_eff_state_penalty>  (1) 
0.49104251329211085

>  <r_i_glide_einternal>  (1) 
0.10547867264962432

>  <r_i_glide_emodel>  (1) 
-24.073464143256921

>  <r_i_glide_emodel_strain>  (1) 
0

>  <r_i_glide_energy>  (1) 
-17.770159985257735

>  <r_i_glide_erotb>  (1) 
0

>  <r_i_glide_esite>  (1) 
0

>  <r_i_glide_evdw>  (1) 
-16.163114297694623

>  <r_i_glide_gscore>  (1) 
-4.8615651005922755

>  <r_i_glide_gscore_strain>  (1) 
0

>  <r_i_glide_hbond>  (1) 
0

>  <r_i_glide_ligand_efficiency>  (1) 
-0.62436036961430919

>  <r_i_glide_ligand_efficiency_ln>  (1) 
-1.4835899148864713

>  <r_i_glide_ligand_efficiency_sa>  (1) 
-1.1943584203225066

>  <r_i_glide_lipo>  (1) 
-1.3978957012552808

>  <r_i_glide_metal>  (1) 
-0

>  <r_i_glide_rewards>  (1) 
-2.4144568313177963

>  <r_lp_Energy>  (1) 
10.560834

>  <r_lp_tautomer_probability>  (1) 
0.43658000000000002

>  <s_epik_cmdline>  (1) 
J2VwaWtfcHl0aG9uJywgJy1waHQnLCAnMS4wJywgJy1waCcsICc3LjQnLCAnLXRuJywgJzgnLCAnLW1hJywgJzUwMCcsICctaW1hZScsICc8aW5maWxlLm1hZT4nLCAnLW9tYWUnLCAnPG91dGZpbGUubWFlPic=

>  <s_epik_input>  (1) 
W2NIXTFbY0hdW2NIXW5bY0hdYzFbT0hd

>  <s_glide_docking_method>  (1) 
confgen

>  <s_i_glide_gridfile>  (1) 
gpcr_drd2_6luq_protein_autoprepared_prepared

>  <s_lp_Force_Field>  (1) 
S-OPLS

>  <s_lp_Variant>  (1) 
Pocket2Mol_20-2

>  <s_m_source_file>  (1) 
generated_generic_title2_ligand_Pocket2Mol_2026-06-23_prepared.sdf

>  <GenAI_Model>  (1) 
Pocket2Mol

>  <Protein>  (1) 
generic_title2

$$$$
Pocket2Mol_15
     RDKit          3D

  0  0  0  0  0  0  0  0  0  0999 V3000
M  V30 BEGIN CTAB
M  V30 COUNTS 17 17 0 0 1
M  V30 BEGIN ATOM
M  V30 1 C 12.088420 8.629757 -9.184763 0
M  V30 2 O 11.458867 7.590100 -9.916079 0
M  V30 3 C 12.057171 8.391497 -7.666231 0
M  V30 4 O 10.800874 8.790227 -7.144631 0
M  V30 5 C 10.059120 7.473271 -9.695520 0
M  V30 6 C 9.775381 7.800803 -7.144411 0
M  V30 7 C 9.775541 6.820709 -8.334376 0
M  V30 8 H 13.127496 8.658494 -9.513694 0
M  V30 9 H 11.658791 9.599078 -9.441448 0
M  V30 10 H 12.316846 7.367010 -7.398309 0
M  V30 11 H 12.805327 9.033293 -7.200649 0
M  V30 12 H 9.547369 8.431398 -9.801781 0
M  V30 13 H 9.668198 6.825452 -10.480290 0
M  V30 14 H 8.822044 8.329755 -7.105666 0
M  V30 15 H 9.842257 7.231758 -6.216257 0
M  V30 16 H 8.794630 6.344349 -8.370197 0
M  V30 17 H 10.487358 6.012008 -8.165669 0
M  V30 END ATOM
M  V30 BEGIN BOND
M  V30 1 1 2 1
M  V30 2 1 3 1
M  V30 3 1 4 3
M  V30 4 1 5 2
M  V30 5 1 6 4
M  V30 6 1 7 5
M  V30 7 1 7 6
M  V30 8 1 8 1
M  V30 9 1 9 1
M  V30 10 1 10 3
M  V30 11 1 11 3
M  V30 12 1 12 5
M  V30 13 1 13 5
M  V30 14 1 14 6
M  V30 15 1 15 6
M  V30 16 1 16 7
M  V30 17 1 17 7
M  V30 END BOND
M  V30 END CTAB
M  END
>  <i_epik_Tot_Q>  (1) 
0

>  <i_epik_Tot_abs_Q>  (1) 
0

>  <i_i_glide_confnum>  (1) 
6

>  <i_i_glide_lignum>  (1) 
18

>  <i_i_glide_posenum>  (1) 
218

>  <i_i_glide_rotatable_bonds>  (1) 
0

>  <i_lp_mmshare_version>  (1) 
72125

>  <i_m_source_file_index>  (1) 
16

>  <i_f3d_flags>  (1) 
0

>  <num_sample>  (1) 
100

>  <b_lp_Chiralities_Consistent>  (1) 
1

>  <r_epik_Charging_Adjusted_Penalty>  (1) 
0

>  <r_epik_Ionization_Penalty>  (1) 
3.933197540425548e-12

>  <r_epik_Ionization_Penalty_Charging>  (1) 
0

>  <r_epik_Ionization_Penalty_Neutral>  (1) 
3.933197540425548e-12

>  <r_epik_State_Penalty>  (1) 
-0

>  <r_glide_ring_energy>  (1) 
0.00047957236178236941

>  <r_i_docking_score>  (1) 
-4.3688403082931373

>  <r_i_glide_ecoul>  (1) 
-1.6187441020468245

>  <r_i_glide_eff_state_penalty>  (1) 
-0

>  <r_i_glide_einternal>  (1) 
0

>  <r_i_glide_emodel>  (1) 
-21.811207337785248

>  <r_i_glide_emodel_strain>  (1) 
0

>  <r_i_glide_energy>  (1) 
-17.027483002558021

>  <r_i_glide_erotb>  (1) 
0

>  <r_i_glide_esite>  (1) 
0

>  <r_i_glide_evdw>  (1) 
-15.408738900511196

>  <r_i_glide_gscore>  (1) 
-4.3688403082931373

>  <r_i_glide_gscore_strain>  (1) 
0

>  <r_i_glide_hbond>  (1) 
0

>  <r_i_glide_ligand_efficiency>  (1) 
-0.62412004404187671

>  <r_i_glide_ligand_efficiency_ln>  (1) 
-1.4830188591101889

>  <r_i_glide_ligand_efficiency_sa>  (1) 
-1.193898694040983

>  <r_i_glide_lipo>  (1) 
-0.60336233490496405

>  <r_i_glide_metal>  (1) 
-0

>  <r_i_glide_rewards>  (1) 
-2.7522294130555895

>  <r_lp_Energy>  (1) 
9.641

>  <r_lp_tautomer_probability>  (1) 
1

>  <s_epik_cmdline>  (1) 
J2VwaWtfcHl0aG9uJywgJy1waHQnLCAnMS4wJywgJy1waCcsICc3LjQnLCAnLXRuJywgJzgnLCAnLW1hJywgJzUwMCcsICctaW1hZScsICc8aW5maWxlLm1hZT4nLCAnLW9tYWUnLCAnPG91dGZpbGUubWFlPic=

>  <s_epik_input>  (1) 
W0NIMl0xT1tDSDJdW0NIMl1bQ0gyXU9bQ0gyXTE=

>  <s_glide_docking_method>  (1) 
confgen

>  <s_i_glide_gridfile>  (1) 
gpcr_drd2_6luq_protein_autoprepared_prepared

>  <s_lp_Force_Field>  (1) 
S-OPLS

>  <s_lp_Variant>  (1) 
Pocket2Mol_15-1

>  <s_m_source_file>  (1) 
generated_generic_title2_ligand_Pocket2Mol_2026-06-23_prepared.sdf

>  <GenAI_Model>  (1) 
Pocket2Mol

>  <Protein>  (1) 
generic_title2

$$$$
Pocket2Mol_19
     RDKit          3D

  0  0  0  0  0  0  0  0  0  0999 V3000
M  V30 BEGIN CTAB
M  V30 COUNTS 14 14 0 0 1
M  V30 BEGIN ATOM
M  V30 1 N 12.154790 8.591496 -8.931552 0 CHG=1
M  V30 2 C 12.168845 8.686815 -7.584995 0
M  V30 3 C 11.107421 8.145860 -6.829800 0
M  V30 4 C 10.040300 7.512253 -7.503008 0
M  V30 5 N 8.975410 6.975482 -6.785026 0
M  V30 6 C 10.066451 7.431793 -8.912494 0
M  V30 7 C 11.155423 7.990227 -9.611472 0
M  V30 8 H 13.022143 9.190202 -7.153729 0
M  V30 9 H 11.109804 8.218412 -5.752135 0
M  V30 10 H 8.094915 6.790224 -7.268685 0
M  V30 11 H 8.875520 7.190231 -5.803494 0
M  V30 12 H 9.262048 6.949357 -9.449151 0
M  V30 13 H 11.254171 7.974859 -10.687069 0
M  V30 14 H 12.934139 8.993984 -9.459104 0
M  V30 END ATOM
M  V30 BEGIN BOND
M  V30 1 1 2 1
M  V30 2 2 3 2
M  V30 3 1 4 3
M  V30 4 1 5 4
M  V30 5 2 6 4
M  V30 6 2 7 1
M  V30 7 1 7 6
M  V30 8 1 8 2
M  V30 9 1 9 3
M  V30 10 1 10 5
M  V30 11 1 11 5
M  V30 12 1 12 6
M  V30 13 1 13 7
M  V30 14 1 14 1
M  V30 END BOND
M  V30 END CTAB
M  END
>  <i_epik_Tot_Q>  (1) 
1

>  <i_epik_Tot_abs_Q>  (1) 
1

>  <i_i_glide_confnum>  (1) 
1

>  <i_i_glide_lignum>  (1) 
22

>  <i_i_glide_posenum>  (1) 
83

>  <i_i_glide_rotatable_bonds>  (1) 
0

>  <i_lp_mmshare_version>  (1) 
72125

>  <i_m_source_file_index>  (1) 
20

>  <i_f3d_flags>  (1) 
0

>  <num_sample>  (1) 
100

>  <b_lp_Chiralities_Consistent>  (1) 
1

>  <r_epik_Charging_Adjusted_Penalty>  (1) 
0.023410508937706027

>  <r_epik_Ionization_Penalty>  (1) 
0.011711918016166721

>  <r_epik_Ionization_Penalty_Charging>  (1) 
0.011705254468853022

>  <r_epik_Ionization_Penalty_Neutral>  (1) 
6.6635473136990569e-06

>  <r_epik_State_Penalty>  (1) 
0.011705254468853005

>  <r_glide_ring_energy>  (1) 
0

>  <r_i_docking_score>  (1) 
-4.3687408812017416

>  <r_i_glide_ecoul>  (1) 
-4.1093362825543709

>  <r_i_glide_eff_state_penalty>  (1) 
0.011705254468853005

>  <r_i_glide_einternal>  (1) 
0

>  <r_i_glide_emodel>  (1) 
-24.341681737157636

>  <r_i_glide_emodel_strain>  (1) 
0

>  <r_i_glide_energy>  (1) 
-16.131736665722702

>  <r_i_glide_erotb>  (1) 
0

>  <r_i_glide_esite>  (1) 
-0.084846686229337609

>  <r_i_glide_evdw>  (1) 
-12.022400383168332

>  <r_i_glide_gscore>  (1) 
-4.3804461356705948

>  <r_i_glide_gscore_strain>  (1) 
0

>  <r_i_glide_hbond>  (1) 
-0.14162070139628066

>  <r_i_glide_ligand_efficiency>  (1) 
-0.62410584017167736

>  <r_i_glide_ligand_efficiency_ln>  (1) 
-1.4829851082195082

>  <r_i_glide_ligand_efficiency_sa>  (1) 
-1.1938715230147625

>  <r_i_glide_lipo>  (1) 
-0.68645828650340457

>  <r_i_glide_metal>  (1) 
-0

>  <r_i_glide_rewards>  (1) 
-2.25

>  <r_lp_Energy>  (1) 
13.062742999999999

>  <r_lp_tautomer_probability>  (1) 
0.99999999993680011

>  <s_epik_cmdline>  (1) 
J2VwaWtfcHl0aG9uJywgJy1waHQnLCAnMS4wJywgJy1waCcsICc3LjQnLCAnLXRuJywgJzgnLCAnLW1hJywgJzUwMCcsICctaW1hZScsICc8aW5maWxlLm1hZT4nLCAnLW9tYWUnLCAnPG91dGZpbGUubWFlPic=

>  <s_epik_input>  (1) 
W2NIXTFbY0hdbltjSF1bY0hdYzFbTkgyXQ==

>  <s_glide_docking_method>  (1) 
confgen

>  <s_i_glide_gridfile>  (1) 
gpcr_drd2_6luq_protein_autoprepared_prepared

>  <s_lp_Force_Field>  (1) 
S-OPLS

>  <s_lp_Variant>  (1) 
Pocket2Mol_19-1

>  <s_m_source_file>  (1) 
generated_generic_title2_ligand_Pocket2Mol_2026-06-23_prepared.sdf

>  <GenAI_Model>  (1) 
Pocket2Mol

>  <Protein>  (1) 
generic_title2

$$$$
Pocket2Mol_55
     RDKit          3D

  0  0  0  0  0  0  0  0  0  0999 V3000
M  V30 BEGIN CTAB
M  V30 COUNTS 13 13 0 0 1
M  V30 BEGIN ATOM
M  V30 1 O 11.774453 8.135692 -4.381817 0
M  V30 2 C 12.278263 9.009884 -3.375263 0
M  V30 3 C 12.251773 8.211251 -2.076801 0
M  V30 4 C 11.735786 6.791172 -3.904314 0
M  V30 5 C 12.486257 6.804794 -2.579048 0
M  V30 6 H 13.302993 9.281657 -3.634396 0
M  V30 7 H 11.693374 9.927568 -3.311643 0
M  V30 8 H 13.001146 8.545760 -1.358656 0
M  V30 9 H 11.273921 8.283128 -1.600052 0
M  V30 10 H 10.700945 6.479096 -3.754371 0
M  V30 11 H 12.175408 6.103853 -4.626673 0
M  V30 12 H 12.157139 6.029329 -1.885631 0
M  V30 13 H 13.543881 6.661833 -2.785025 0
M  V30 END ATOM
M  V30 BEGIN BOND
M  V30 1 1 2 1
M  V30 2 1 3 2
M  V30 3 1 4 1
M  V30 4 1 5 3
M  V30 5 1 5 4
M  V30 6 1 6 2
M  V30 7 1 7 2
M  V30 8 1 8 3
M  V30 9 1 9 3
M  V30 10 1 10 4
M  V30 11 1 11 4
M  V30 12 1 12 5
M  V30 13 1 13 5
M  V30 END BOND
M  V30 END CTAB
M  END
>  <i_epik_Tot_Q>  (1) 
0

>  <i_epik_Tot_abs_Q>  (1) 
0

>  <i_i_glide_confnum>  (1) 
3

>  <i_i_glide_lignum>  (1) 
62

>  <i_i_glide_posenum>  (1) 
379

>  <i_i_glide_rotatable_bonds>  (1) 
0

>  <i_lp_mmshare_version>  (1) 
72125

>  <i_m_source_file_index>  (1) 
56

>  <i_f3d_flags>  (1) 
0

>  <num_sample>  (1) 
100

>  <b_lp_Chiralities_Consistent>  (1) 
1

>  <r_epik_Charging_Adjusted_Penalty>  (1) 
0

>  <r_epik_Ionization_Penalty>  (1) 
1.3889264151150229e-11

>  <r_epik_Ionization_Penalty_Charging>  (1) 
0

>  <r_epik_Ionization_Penalty_Neutral>  (1) 
1.3889264151150229e-11

>  <r_epik_State_Penalty>  (1) 
-0

>  <r_glide_ring_energy>  (1) 
0.22161987042107956

>  <r_i_docking_score>  (1) 
-4.3664187819242963

>  <r_i_glide_ecoul>  (1) 
-0.71552474154782386

>  <r_i_glide_eff_state_penalty>  (1) 
-0

>  <r_i_glide_einternal>  (1) 
0

>  <r_i_glide_emodel>  (1) 
-17.251007885551516

>  <r_i_glide_emodel_strain>  (1) 
0

>  <r_i_glide_energy>  (1) 
-13.476907570749061

>  <r_i_glide_erotb>  (1) 
0

>  <r_i_glide_esite>  (1) 
0

>  <r_i_glide_evdw>  (1) 
-12.761382829201237

>  <r_i_glide_gscore>  (1) 
-4.3664187819242963

>  <r_i_glide_gscore_strain>  (1) 
0

>  <r_i_glide_hbond>  (1) 
0

>  <r_i_glide_ligand_efficiency>  (1) 
-0.87328375638485922

>  <r_i_glide_ligand_efficiency_ln>  (1) 
-1.673317752117456

>  <r_i_glide_ligand_efficiency_sa>  (1) 
-1.4932942180415818

>  <r_i_glide_lipo>  (1) 
-1.2160518131000899

>  <r_i_glide_metal>  (1) 
-0

>  <r_i_glide_rewards>  (1) 
-2.4049691161319711

>  <r_lp_Energy>  (1) 
3.9173999999999998

>  <r_lp_tautomer_probability>  (1) 
1

>  <s_epik_cmdline>  (1) 
J2VwaWtfcHl0aG9uJywgJy1waHQnLCAnMS4wJywgJy1waCcsICc3LjQnLCAnLXRuJywgJzgnLCAnLW1hJywgJzUwMCcsICctaW1hZScsICc8aW5maWxlLm1hZT4nLCAnLW9tYWUnLCAnPG91dGZpbGUubWFlPic=

>  <s_epik_input>  (1) 
TzFbQ0gyXVtDSDJdW0NIMl1bQ0gyXTE=

>  <s_glide_docking_method>  (1) 
confgen

>  <s_i_glide_gridfile>  (1) 
gpcr_drd2_6luq_protein_autoprepared_prepared

>  <s_lp_Force_Field>  (1) 
S-OPLS

>  <s_lp_Variant>  (1) 
Pocket2Mol_55-1

>  <s_m_source_file>  (1) 
generated_generic_title2_ligand_Pocket2Mol_2026-06-23_prepared.sdf

>  <GenAI_Model>  (1) 
Pocket2Mol

>  <Protein>  (1) 
generic_title2

$$$$
Pocket2Mol_2
     RDKit          3D

  0  0  0  0  0  0  0  0  0  0999 V3000
M  V30 BEGIN CTAB
M  V30 COUNTS 10 10 0 0 1
M  V30 BEGIN ATOM
M  V30 1 N 11.375429 7.190408 -4.647621 0
M  V30 2 C 11.123097 8.273239 -5.453883 0
M  V30 3 C 11.769188 9.346164 -4.896673 0
M  V30 4 C 12.434338 8.885474 -3.711238 0
M  V30 5 C 12.175407 7.546286 -3.585169 0
M  V30 6 H 11.021727 6.256870 -4.813038 0
M  V30 7 H 10.509853 8.182678 -6.339826 0
M  V30 8 H 11.764558 10.352210 -5.292842 0
M  V30 9 H 13.034433 9.472506 -3.031021 0
M  V30 10 H 12.478671 6.820522 -2.843799 0
M  V30 END ATOM
M  V30 BEGIN BOND
M  V30 1 1 2 1
M  V30 2 2 3 2
M  V30 3 1 4 3
M  V30 4 1 5 1
M  V30 5 2 5 4
M  V30 6 1 6 1
M  V30 7 1 7 2
M  V30 8 1 8 3
M  V30 9 1 9 4
M  V30 10 1 10 5
M  V30 END BOND
M  V30 END CTAB
M  END
>  <i_epik_Tot_Q>  (1) 
0

>  <i_epik_Tot_abs_Q>  (1) 
0

>  <i_i_glide_confnum>  (1) 
1

>  <i_i_glide_lignum>  (1) 
3

>  <i_i_glide_posenum>  (1) 
210

>  <i_i_glide_rotatable_bonds>  (1) 
0

>  <i_lp_mmshare_version>  (1) 
72125

>  <i_m_source_file_index>  (1) 
3

>  <i_f3d_flags>  (1) 
0

>  <num_sample>  (1) 
100

>  <b_lp_Chiralities_Consistent>  (1) 
1

>  <r_epik_Charging_Adjusted_Penalty>  (1) 
0

>  <r_epik_Ionization_Penalty>  (1) 
4.7655302421719939e-09

>  <r_epik_Ionization_Penalty_Charging>  (1) 
0

>  <r_epik_Ionization_Penalty_Neutral>  (1) 
4.7655302421719939e-09

>  <r_epik_State_Penalty>  (1) 
-0

>  <r_glide_ring_energy>  (1) 
0

>  <r_i_docking_score>  (1) 
-4.3648602633103062

>  <r_i_glide_ecoul>  (1) 
-1.7198592809744446

>  <r_i_glide_eff_state_penalty>  (1) 
-0

>  <r_i_glide_einternal>  (1) 
0

>  <r_i_glide_emodel>  (1) 
-17.538880354384872

>  <r_i_glide_emodel_strain>  (1) 
0

>  <r_i_glide_energy>  (1) 
-12.950725321247983

>  <r_i_glide_erotb>  (1) 
0

>  <r_i_glide_esite>  (1) 
0

>  <r_i_glide_evdw>  (1) 
-11.230866040273538

>  <r_i_glide_gscore>  (1) 
-4.3648602633103062

>  <r_i_glide_gscore_strain>  (1) 
0

>  <r_i_glide_hbond>  (1) 
0

>  <r_i_glide_ligand_efficiency>  (1) 
-0.87297205266206124

>  <r_i_glide_ligand_efficiency_ln>  (1) 
-1.6727204899229569

>  <r_i_glide_ligand_efficiency_sa>  (1) 
-1.4927612121731075

>  <r_i_glide_lipo>  (1) 
-1.2953380691504626

>  <r_i_glide_metal>  (1) 
-0

>  <r_i_glide_rewards>  (1) 
-2.25

>  <r_lp_Energy>  (1) 
2.9132020000000001

>  <r_lp_tautomer_probability>  (1) 
1

>  <s_epik_cmdline>  (1) 
J2VwaWtfcHl0aG9uJywgJy1waHQnLCAnMS4wJywgJy1waCcsICc3LjQnLCAnLXRuJywgJzgnLCAnLW1hJywgJzUwMCcsICctaW1hZScsICc8aW5maWxlLm1hZT4nLCAnLW9tYWUnLCAnPG91dGZpbGUubWFlPic=

>  <s_epik_input>  (1) 
W25IXTFbY0hdW2NIXVtjSF1bY0hdMQ==

>  <s_glide_docking_method>  (1) 
confgen

>  <s_i_glide_gridfile>  (1) 
gpcr_drd2_6luq_protein_autoprepared_prepared

>  <s_lp_Force_Field>  (1) 
S-OPLS

>  <s_lp_Variant>  (1) 
Pocket2Mol_2-1

>  <s_m_source_file>  (1) 
generated_generic_title2_ligand_Pocket2Mol_2026-06-23_prepared.sdf

>  <GenAI_Model>  (1) 
Pocket2Mol

>  <Protein>  (1) 
generic_title2

$$$$
Pocket2Mol_6
     RDKit          3D

  0  0  0  0  0  0  0  0  0  0999 V3000
M  V30 BEGIN CTAB
M  V30 COUNTS 14 14 0 0 1
M  V30 BEGIN ATOM
M  V30 1 C 11.055707 6.455197 -6.897956 0
M  V30 2 O 10.997651 7.423468 -7.937570 0
M  V30 3 C 10.574028 7.088903 -5.585025 0
M  V30 4 O 11.375410 8.221669 -5.275802 0
M  V30 5 C 11.794556 8.561071 -7.638881 0
M  V30 6 C 11.319167 9.190225 -6.314667 0
M  V30 7 H 10.424035 5.608641 -7.168133 0
M  V30 8 H 12.071934 6.074622 -6.785025 0
M  V30 9 H 9.527194 7.384113 -5.667711 0
M  V30 10 H 10.639850 6.368911 -4.768968 0
M  V30 11 H 12.846254 8.276428 -7.585025 0
M  V30 12 H 11.704287 9.279305 -8.453885 0
M  V30 13 H 11.951341 10.037656 -6.048437 0
M  V30 14 H 10.300616 9.568243 -6.407648 0
M  V30 END ATOM
M  V30 BEGIN BOND
M  V30 1 1 2 1
M  V30 2 1 3 1
M  V30 3 1 4 3
M  V30 4 1 5 2
M  V30 5 1 6 4
M  V30 6 1 6 5
M  V30 7 1 7 1
M  V30 8 1 8 1
M  V30 9 1 9 3
M  V30 10 1 10 3
M  V30 11 1 11 5
M  V30 12 1 12 5
M  V30 13 1 13 6
M  V30 14 1 14 6
M  V30 END BOND
M  V30 END CTAB
M  END
>  <i_epik_Tot_Q>  (1) 
0

>  <i_epik_Tot_abs_Q>  (1) 
0

>  <i_i_glide_confnum>  (1) 
1

>  <i_i_glide_lignum>  (1) 
7

>  <i_i_glide_posenum>  (1) 
382

>  <i_i_glide_rotatable_bonds>  (1) 
0

>  <i_lp_mmshare_version>  (1) 
72125

>  <i_m_source_file_index>  (1) 
7

>  <i_f3d_flags>  (1) 
0

>  <num_sample>  (1) 
100

>  <b_lp_Chiralities_Consistent>  (1) 
1

>  <r_epik_Charging_Adjusted_Penalty>  (1) 
0

>  <r_epik_Ionization_Penalty>  (1) 
8.3894707547109138e-13

>  <r_epik_Ionization_Penalty_Charging>  (1) 
0

>  <r_epik_Ionization_Penalty_Neutral>  (1) 
8.3894707547109138e-13

>  <r_epik_State_Penalty>  (1) 
-0

>  <r_glide_ring_energy>  (1) 
0

>  <r_i_docking_score>  (1) 
-4.363959691243692

>  <r_i_glide_ecoul>  (1) 
-0.41431951909760212

>  <r_i_glide_eff_state_penalty>  (1) 
-0

>  <r_i_glide_einternal>  (1) 
0

>  <r_i_glide_emodel>  (1) 
-17.735206828146314

>  <r_i_glide_emodel_strain>  (1) 
0

>  <r_i_glide_energy>  (1) 
-13.743599186986192

>  <r_i_glide_erotb>  (1) 
0

>  <r_i_glide_esite>  (1) 
0

>  <r_i_glide_evdw>  (1) 
-13.32927966788859

>  <r_i_glide_gscore>  (1) 
-4.363959691243692

>  <r_i_glide_gscore_strain>  (1) 
0

>  <r_i_glide_hbond>  (1) 
0

>  <r_i_glide_ligand_efficiency>  (1) 
-0.72732661520728203

>  <r_i_glide_ligand_efficiency_ln>  (1) 
-1.56315747805106

>  <r_i_glide_ligand_efficiency_sa>  (1) 
-1.32164017020805

>  <r_i_glide_lipo>  (1) 
-1.0607695947789846

>  <r_i_glide_metal>  (1) 
-0

>  <r_i_glide_rewards>  (1) 
-2.5745781852056373

>  <r_lp_Energy>  (1) 
4.9648199999999996

>  <r_lp_tautomer_probability>  (1) 
1

>  <s_epik_cmdline>  (1) 
J2VwaWtfcHl0aG9uJywgJy1waHQnLCAnMS4wJywgJy1waCcsICc3LjQnLCAnLXRuJywgJzgnLCAnLW1hJywgJzUwMCcsICctaW1hZScsICc8aW5maWxlLm1hZT4nLCAnLW9tYWUnLCAnPG91dGZpbGUubWFlPic=

>  <s_epik_input>  (1) 
W0NIMl0xT1tDSDJdW0NIMl1PW0NIMl0x

>  <s_glide_docking_method>  (1) 
confgen

>  <s_i_glide_gridfile>  (1) 
gpcr_drd2_6luq_protein_autoprepared_prepared

>  <s_lp_Force_Field>  (1) 
S-OPLS

>  <s_lp_Variant>  (1) 
Pocket2Mol_6-1

>  <s_m_source_file>  (1) 
generated_generic_title2_ligand_Pocket2Mol_2026-06-23_prepared.sdf

>  <GenAI_Model>  (1) 
Pocket2Mol

>  <Protein>  (1) 
generic_title2

$$$$
Pocket2Mol_77
     RDKit          3D

  0  0  0  0  0  0  0  0  0  0999 V3000
M  V30 BEGIN CTAB
M  V30 COUNTS 11 11 0 0 1
M  V30 BEGIN ATOM
M  V30 1 C 12.555696 8.570981 -2.138991 0
M  V30 2 O 12.325958 7.116444 -1.985025 0
M  V30 3 C 12.182765 9.079504 -3.613391 0
M  V30 4 C 11.775410 7.749251 -4.065047 0
M  V30 5 C 11.865662 6.790224 -3.201868 0
M  V30 6 H 13.600583 8.790304 -1.918172 0
M  V30 7 H 11.958355 9.103027 -1.397028 0
M  V30 8 H 13.038572 9.457390 -4.172672 0
M  V30 9 H 11.355132 9.789108 -3.629233 0
M  V30 10 H 11.417009 7.603860 -5.074328 0
M  V30 11 H 11.617094 5.747176 -3.329038 0
M  V30 END ATOM
M  V30 BEGIN BOND
M  V30 1 1 2 1
M  V30 2 1 3 1
M  V30 3 1 4 3
M  V30 4 1 5 2
M  V30 5 2 5 4
M  V30 6 1 6 1
M  V30 7 1 7 1
M  V30 8 1 8 3
M  V30 9 1 9 3
M  V30 10 1 10 4
M  V30 11 1 11 5
M  V30 END BOND
M  V30 END CTAB
M  END
>  <i_epik_Tot_Q>  (1) 
0

>  <i_epik_Tot_abs_Q>  (1) 
0

>  <i_i_glide_confnum>  (1) 
1

>  <i_i_glide_lignum>  (1) 
84

>  <i_i_glide_posenum>  (1) 
173

>  <i_i_glide_rotatable_bonds>  (1) 
0

>  <i_lp_mmshare_version>  (1) 
72125

>  <i_m_source_file_index>  (1) 
78

>  <i_f3d_flags>  (1) 
0

>  <num_sample>  (1) 
100

>  <b_lp_Chiralities_Consistent>  (1) 
1

>  <r_epik_Charging_Adjusted_Penalty>  (1) 
0

>  <r_epik_Ionization_Penalty>  (1) 
0

>  <r_epik_Ionization_Penalty_Charging>  (1) 
0

>  <r_epik_Ionization_Penalty_Neutral>  (1) 
0

>  <r_epik_State_Penalty>  (1) 
-0

>  <r_glide_ring_energy>  (1) 
0

>  <r_i_docking_score>  (1) 
-4.3596474036711905

>  <r_i_glide_ecoul>  (1) 
-0.73353647056731652

>  <r_i_glide_eff_state_penalty>  (1) 
-0

>  <r_i_glide_einternal>  (1) 
0

>  <r_i_glide_emodel>  (1) 
-16.70890850374893

>  <r_i_glide_emodel_strain>  (1) 
0

>  <r_i_glide_energy>  (1) 
-12.904783959742232

>  <r_i_glide_erotb>  (1) 
0

>  <r_i_glide_esite>  (1) 
0

>  <r_i_glide_evdw>  (1) 
-12.171247489174917

>  <r_i_glide_gscore>  (1) 
-4.3596474036711905

>  <r_i_glide_gscore_strain>  (1) 
0

>  <r_i_glide_hbond>  (1) 
0

>  <r_i_glide_ligand_efficiency>  (1) 
-0.87192948073423815

>  <r_i_glide_ligand_efficiency_ln>  (1) 
-1.6707227954714903

>  <r_i_glide_ligand_efficiency_sa>  (1) 
-1.4909784392538497

>  <r_i_glide_lipo>  (1) 
-1.1062149268500991

>  <r_i_glide_metal>  (1) 
-0

>  <r_i_glide_rewards>  (1) 
-2.5348396317772481

>  <r_lp_Energy>  (1) 
-3.1771669999999999

>  <r_lp_tautomer_probability>  (1) 
1

>  <s_epik_cmdline>  (1) 
J2VwaWtfcHl0aG9uJywgJy1waHQnLCAnMS4wJywgJy1waCcsICc3LjQnLCAnLXRuJywgJzgnLCAnLW1hJywgJzUwMCcsICctaW1hZScsICc8aW5maWxlLm1hZT4nLCAnLW9tYWUnLCAnPG91dGZpbGUubWFlPic=

>  <s_epik_input>  (1) 
W0NIMl0xT1tDSF09W0NIXVtDSDJdMQ==

>  <s_glide_docking_method>  (1) 
confgen

>  <s_i_glide_gridfile>  (1) 
gpcr_drd2_6luq_protein_autoprepared_prepared

>  <s_lp_Force_Field>  (1) 
S-OPLS

>  <s_lp_Variant>  (1) 
Pocket2Mol_77-1

>  <s_m_source_file>  (1) 
generated_generic_title2_ligand_Pocket2Mol_2026-06-23_prepared.sdf

>  <GenAI_Model>  (1) 
Pocket2Mol

>  <Protein>  (1) 
generic_title2

$$$$
Pocket2Mol_21
     RDKit          3D

  0  0  0  0  0  0  0  0  0  0999 V3000
M  V30 BEGIN CTAB
M  V30 COUNTS 12 12 0 0 1
M  V30 BEGIN ATOM
M  V30 1 N 12.175410 8.516695 -3.874138 0
M  V30 2 C 11.775412 7.232268 -3.985031 0
M  V30 3 C 10.975395 6.790229 -5.040042 0
M  V30 4 C 10.590861 7.738257 -5.989978 0
M  V30 5 N 9.782689 7.375215 -7.059329 0
M  V30 6 N 10.975385 9.026727 -5.913739 0
M  V30 7 C 11.747109 9.326456 -4.856596 0
M  V30 8 H 12.104565 6.549797 -3.215093 0
M  V30 9 H 10.662071 5.760906 -5.111938 0
M  V30 10 H 9.400070 6.444667 -7.137134 0
M  V30 11 H 9.439134 8.062628 -7.714308 0
M  V30 12 H 12.061521 10.356869 -4.785032 0
M  V30 END ATOM
M  V30 BEGIN BOND
M  V30 1 1 2 1
M  V30 2 2 3 2
M  V30 3 1 4 3
M  V30 4 1 5 4
M  V30 5 2 6 4
M  V30 6 2 7 1
M  V30 7 1 7 6
M  V30 8 1 8 2
M  V30 9 1 9 3
M  V30 10 1 10 5
M  V30 11 1 11 5
M  V30 12 1 12 7
M  V30 END BOND
M  V30 END CTAB
M  END
>  <i_epik_Tot_Q>  (1) 
0

>  <i_epik_Tot_abs_Q>  (1) 
0

>  <i_i_glide_confnum>  (1) 
1

>  <i_i_glide_lignum>  (1) 
25

>  <i_i_glide_posenum>  (1) 
171

>  <i_i_glide_rotatable_bonds>  (1) 
0

>  <i_lp_mmshare_version>  (1) 
72125

>  <i_m_source_file_index>  (1) 
22

>  <i_f3d_flags>  (1) 
0

>  <num_sample>  (1) 
100

>  <b_lp_Chiralities_Consistent>  (1) 
1

>  <r_epik_Charging_Adjusted_Penalty>  (1) 
0.011441366301234922

>  <r_epik_Ionization_Penalty>  (1) 
0.011523414685131987

>  <r_epik_Ionization_Penalty_Charging>  (1) 
0

>  <r_epik_Ionization_Penalty_Neutral>  (1) 
0.011523414685131987

>  <r_epik_State_Penalty>  (1) 
0.011441366301234922

>  <r_glide_ring_energy>  (1) 
0

>  <r_i_docking_score>  (1) 
-4.3545214150524858

>  <r_i_glide_ecoul>  (1) 
-1.2063956057893381

>  <r_i_glide_eff_state_penalty>  (1) 
0.011441366301234922

>  <r_i_glide_einternal>  (1) 
0

>  <r_i_glide_emodel>  (1) 
-22.914506768678145

>  <r_i_glide_emodel_strain>  (1) 
0

>  <r_i_glide_energy>  (1) 
-17.435134419382361

>  <r_i_glide_erotb>  (1) 
0

>  <r_i_glide_esite>  (1) 
-0.03150129601154069

>  <r_i_glide_evdw>  (1) 
-16.228738813593022

>  <r_i_glide_gscore>  (1) 
-4.365962781353721

>  <r_i_glide_gscore_strain>  (1) 
0

>  <r_i_glide_hbond>  (1) 
0

>  <r_i_glide_ligand_efficiency>  (1) 
-0.62207448786464081

>  <r_i_glide_ligand_efficiency_ln>  (1) 
-1.4781582583056316

>  <r_i_glide_ligand_efficiency_sa>  (1) 
-1.1899856858434357

>  <r_i_glide_lipo>  (1) 
-0.64206520379412879

>  <r_i_glide_metal>  (1) 
-0

>  <r_i_glide_rewards>  (1) 
-2.7000000000000002

>  <r_lp_Energy>  (1) 
9.3523319999999988

>  <r_lp_tautomer_probability>  (1) 
0.9999995832001739

>  <s_epik_cmdline>  (1) 
J2VwaWtfcHl0aG9uJywgJy1waHQnLCAnMS4wJywgJy1waCcsICc3LjQnLCAnLXRuJywgJzgnLCAnLW1hJywgJzUwMCcsICctaW1hZScsICc8aW5maWxlLm1hZT4nLCAnLW9tYWUnLCAnPG91dGZpbGUubWFlPic=

>  <s_epik_input>  (1) 
bjFbY0hdbltjSF1bY0hdYzFbTkgyXQ==

>  <s_glide_docking_method>  (1) 
confgen

>  <s_i_glide_gridfile>  (1) 
gpcr_drd2_6luq_protein_autoprepared_prepared

>  <s_lp_Force_Field>  (1) 
S-OPLS

>  <s_lp_Variant>  (1) 
Pocket2Mol_21-1

>  <s_m_source_file>  (1) 
generated_generic_title2_ligand_Pocket2Mol_2026-06-23_prepared.sdf

>  <GenAI_Model>  (1) 
Pocket2Mol

>  <Protein>  (1) 
generic_title2

$$$$
Pocket2Mol_12
     RDKit          3D

  0  0  0  0  0  0  0  0  0  0999 V3000
M  V30 BEGIN CTAB
M  V30 COUNTS 14 14 0 0 1
M  V30 BEGIN ATOM
M  V30 1 O 11.454915 7.611270 -8.656404 0
M  V30 2 C 11.892796 8.416107 -7.674562 0
M  V30 3 C 10.090632 7.284593 -8.185805 0
M  V30 4 C 11.073747 8.644939 -6.696212 0
M  V30 5 C 11.375778 9.520572 -5.497518 0
M  V30 6 C 9.765527 7.990603 -6.785100 0
M  V30 7 H 12.896810 8.790227 -7.810300 0
M  V30 8 H 9.993744 6.201793 -8.097712 0
M  V30 9 H 9.375312 7.604992 -8.943505 0
M  V30 10 H 10.627821 10.308303 -5.402438 0
M  V30 11 H 11.364810 8.925402 -4.584431 0
M  V30 12 H 12.356112 9.990227 -5.588938 0
M  V30 13 H 9.602874 7.278931 -5.975515 0
M  V30 14 H 8.945385 8.707087 -6.846870 0
M  V30 END ATOM
M  V30 BEGIN BOND
M  V30 1 1 2 1
M  V30 2 1 3 1
M  V30 3 2 4 2
M  V30 4 1 5 4
M  V30 5 1 6 3
M  V30 6 1 6 4
M  V30 7 1 7 2
M  V30 8 1 8 3
M  V30 9 1 9 3
M  V30 10 1 10 5
M  V30 11 1 11 5
M  V30 12 1 12 5
M  V30 13 1 13 6
M  V30 14 1 14 6
M  V30 END BOND
M  V30 END CTAB
M  END
>  <i_epik_Tot_Q>  (1) 
0

>  <i_epik_Tot_abs_Q>  (1) 
0

>  <i_i_glide_confnum>  (1) 
1

>  <i_i_glide_lignum>  (1) 
15

>  <i_i_glide_posenum>  (1) 
275

>  <i_i_glide_rotatable_bonds>  (1) 
0

>  <i_lp_mmshare_version>  (1) 
72125

>  <i_m_source_file_index>  (1) 
13

>  <i_f3d_flags>  (1) 
0

>  <num_sample>  (1) 
100

>  <b_lp_Chiralities_Consistent>  (1) 
1

>  <r_epik_Charging_Adjusted_Penalty>  (1) 
0

>  <r_epik_Ionization_Penalty>  (1) 
0

>  <r_epik_Ionization_Penalty_Charging>  (1) 
0

>  <r_epik_Ionization_Penalty_Neutral>  (1) 
0

>  <r_epik_State_Penalty>  (1) 
-0

>  <r_glide_ring_energy>  (1) 
0

>  <r_i_docking_score>  (1) 
-4.3435990579717876

>  <r_i_glide_ecoul>  (1) 
-0.52589858464503447

>  <r_i_glide_eff_state_penalty>  (1) 
-0

>  <r_i_glide_einternal>  (1) 
0

>  <r_i_glide_emodel>  (1) 
-19.714265964331037

>  <r_i_glide_emodel_strain>  (1) 
0

>  <r_i_glide_energy>  (1) 
-15.467071261744893

>  <r_i_glide_erotb>  (1) 
0

>  <r_i_glide_esite>  (1) 
0

>  <r_i_glide_evdw>  (1) 
-14.941172677099859

>  <r_i_glide_gscore>  (1) 
-4.3435990579717876

>  <r_i_glide_gscore_strain>  (1) 
0

>  <r_i_glide_hbond>  (1) 
0

>  <r_i_glide_ligand_efficiency>  (1) 
-0.7239331763286313

>  <r_i_glide_ligand_efficiency_ln>  (1) 
-1.5558643593220549

>  <r_i_glide_ligand_efficiency_sa>  (1) 
-1.3154738825411365

>  <r_i_glide_lipo>  (1) 
-0.85098896975337301

>  <r_i_glide_metal>  (1) 
-0

>  <r_i_glide_rewards>  (1) 
-2.666666666666667

>  <r_lp_Energy>  (1) 
-7.9393969999999996

>  <r_lp_tautomer_probability>  (1) 
1

>  <s_epik_cmdline>  (1) 
J2VwaWtfcHl0aG9uJywgJy1waHQnLCAnMS4wJywgJy1waCcsICc3LjQnLCAnLXRuJywgJzgnLCAnLW1hJywgJzUwMCcsICctaW1hZScsICc8aW5maWxlLm1hZT4nLCAnLW9tYWUnLCAnPG91dGZpbGUubWFlPic=

>  <s_epik_input>  (1) 
W0NIMl0xW0NIMl1PW0NIXT1DMVtDSDNd

>  <s_glide_docking_method>  (1) 
confgen

>  <s_i_glide_gridfile>  (1) 
gpcr_drd2_6luq_protein_autoprepared_prepared

>  <s_lp_Force_Field>  (1) 
S-OPLS

>  <s_lp_Variant>  (1) 
Pocket2Mol_12-1

>  <s_m_source_file>  (1) 
generated_generic_title2_ligand_Pocket2Mol_2026-06-23_prepared.sdf

>  <GenAI_Model>  (1) 
Pocket2Mol

>  <Protein>  (1) 
generic_title2

$$$$
Pocket2Mol_44
     RDKit          3D

  0  0  0  0  0  0  0  0  0  0999 V3000
M  V30 BEGIN CTAB
M  V30 COUNTS 8 8 0 0 1
M  V30 BEGIN ATOM
M  V30 1 N 12.175410 7.030672 -2.812637 0
M  V30 2 C 11.480795 6.693532 -3.985024 0
M  V30 3 C 11.375410 7.754836 -4.862961 0
M  V30 4 C 12.575410 8.296001 -2.802792 0
M  V30 5 S 12.159705 9.190227 -4.235576 0
M  V30 6 H 11.096338 5.691726 -4.108619 0
M  V30 7 H 10.892665 7.776544 -5.829452 0
M  V30 8 H 13.117696 8.697000 -1.958396 0
M  V30 END ATOM
M  V30 BEGIN BOND
M  V30 1 1 2 1
M  V30 2 2 3 2
M  V30 3 2 4 1
M  V30 4 1 5 3
M  V30 5 1 5 4
M  V30 6 1 6 2
M  V30 7 1 7 3
M  V30 8 1 8 4
M  V30 END BOND
M  V30 END CTAB
M  END
>  <i_epik_Tot_Q>  (1) 
0

>  <i_epik_Tot_abs_Q>  (1) 
0

>  <i_i_glide_confnum>  (1) 
1

>  <i_i_glide_lignum>  (1) 
49

>  <i_i_glide_posenum>  (1) 
301

>  <i_i_glide_rotatable_bonds>  (1) 
0

>  <i_lp_mmshare_version>  (1) 
72125

>  <i_m_source_file_index>  (1) 
45

>  <i_f3d_flags>  (1) 
0

>  <num_sample>  (1) 
100

>  <b_lp_Chiralities_Consistent>  (1) 
1

>  <r_epik_Charging_Adjusted_Penalty>  (1) 
0

>  <r_epik_Ionization_Penalty>  (1) 
1.4882382677604034e-05

>  <r_epik_Ionization_Penalty_Charging>  (1) 
0

>  <r_epik_Ionization_Penalty_Neutral>  (1) 
1.4882382677604034e-05

>  <r_epik_State_Penalty>  (1) 
-0

>  <r_glide_ring_energy>  (1) 
0

>  <r_i_docking_score>  (1) 
-4.3329013175044828

>  <r_i_glide_ecoul>  (1) 
-1.2146248680832654

>  <r_i_glide_eff_state_penalty>  (1) 
-0

>  <r_i_glide_einternal>  (1) 
0

>  <r_i_glide_emodel>  (1) 
-19.750354577887219

>  <r_i_glide_emodel_strain>  (1) 
0

>  <r_i_glide_energy>  (1) 
-15.314892324554773

>  <r_i_glide_erotb>  (1) 
0

>  <r_i_glide_esite>  (1) 
0

>  <r_i_glide_evdw>  (1) 
-14.100267456471506

>  <r_i_glide_gscore>  (1) 
-4.3329013175044828

>  <r_i_glide_gscore_strain>  (1) 
0

>  <r_i_glide_hbond>  (1) 
0

>  <r_i_glide_ligand_efficiency>  (1) 
-0.86658026350089656

>  <r_i_glide_ligand_efficiency_ln>  (1) 
-1.6604730455007164

>  <r_i_glide_ligand_efficiency_sa>  (1) 
-1.4818314064512872

>  <r_i_glide_lipo>  (1) 
-1.0394674737664629

>  <r_i_glide_metal>  (1) 
-0

>  <r_i_glide_rewards>  (1) 
-2.4062267407019555

>  <r_lp_Energy>  (1) 
1.6688799999999999

>  <r_lp_tautomer_probability>  (1) 
1

>  <s_epik_cmdline>  (1) 
J2VwaWtfcHl0aG9uJywgJy1waHQnLCAnMS4wJywgJy1waCcsICc3LjQnLCAnLXRuJywgJzgnLCAnLW1hJywgJzUwMCcsICctaW1hZScsICc8aW5maWxlLm1hZT4nLCAnLW9tYWUnLCAnPG91dGZpbGUubWFlPic=

>  <s_epik_input>  (1) 
bjFbY0hdW2NIXXNbY0hdMQ==

>  <s_glide_docking_method>  (1) 
confgen

>  <s_i_glide_gridfile>  (1) 
gpcr_drd2_6luq_protein_autoprepared_prepared

>  <s_lp_Force_Field>  (1) 
S-OPLS

>  <s_lp_Variant>  (1) 
Pocket2Mol_44-1

>  <s_m_source_file>  (1) 
generated_generic_title2_ligand_Pocket2Mol_2026-06-23_prepared.sdf

>  <GenAI_Model>  (1) 
Pocket2Mol

>  <Protein>  (1) 
generic_title2

$$$$
Pocket2Mol_33
     RDKit          3D

  0  0  0  0  0  0  0  0  0  0999 V3000
M  V30 BEGIN CTAB
M  V30 COUNTS 12 12 0 0 1
M  V30 BEGIN ATOM
M  V30 1 N 11.375270 8.073326 -5.112773 0
M  V30 2 C 11.830435 9.081131 -4.398693 0
M  V30 3 C 12.279836 8.725119 -3.249173 0
M  V30 4 C 12.175409 7.237264 -2.966340 0
M  V30 5 C 11.430945 6.790231 -4.385025 0
M  V30 6 H 11.777976 10.073771 -4.822457 0
M  V30 7 H 13.160445 6.790229 -2.836340 0
M  V30 8 H 11.557168 7.038835 -2.090382 0
M  V30 9 H 12.012034 6.052603 -4.938967 0
M  V30 10 H 10.430242 6.390227 -4.215403 0
M  V30 11 H 12.690465 9.407346 -2.518531 0
M  V30 12 H 10.786547 8.190639 -5.927104 0
M  V30 END ATOM
M  V30 BEGIN BOND
M  V30 1 1 2 1
M  V30 2 2 3 2
M  V30 3 1 4 3
M  V30 4 1 5 1
M  V30 5 1 5 4
M  V30 6 1 6 2
M  V30 7 1 7 4
M  V30 8 1 8 4
M  V30 9 1 9 5
M  V30 10 1 10 5
M  V30 11 1 11 3
M  V30 12 1 12 1
M  V30 END BOND
M  V30 END CTAB
M  END
>  <i_epik_Tot_Q>  (1) 
0

>  <i_epik_Tot_abs_Q>  (1) 
0

>  <i_i_glide_confnum>  (1) 
1

>  <i_i_glide_lignum>  (1) 
37

>  <i_i_glide_posenum>  (1) 
157

>  <i_i_glide_rotatable_bonds>  (1) 
0

>  <i_lp_mmshare_version>  (1) 
72125

>  <i_m_source_file_index>  (1) 
34

>  <i_f3d_flags>  (1) 
0

>  <num_sample>  (1) 
100

>  <b_lp_Chiralities_Consistent>  (1) 
1

>  <r_epik_Charging_Adjusted_Penalty>  (1) 
1.6042444336516156e-06

>  <r_epik_Ionization_Penalty>  (1) 
0.0023556498582944039

>  <r_epik_Ionization_Penalty_Charging>  (1) 
1.6042444336516156e-06

>  <r_epik_Ionization_Penalty_Neutral>  (1) 
0.0023540456138607521

>  <r_epik_State_Penalty>  (1) 
-0

>  <r_glide_ring_energy>  (1) 
0

>  <r_i_docking_score>  (1) 
-4.3171247337345466

>  <r_i_glide_ecoul>  (1) 
-1.2893014466007786

>  <r_i_glide_eff_state_penalty>  (1) 
-0

>  <r_i_glide_einternal>  (1) 
0

>  <r_i_glide_emodel>  (1) 
-18.313146681780935

>  <r_i_glide_emodel_strain>  (1) 
0

>  <r_i_glide_energy>  (1) 
-14.005293566592744

>  <r_i_glide_erotb>  (1) 
0

>  <r_i_glide_esite>  (1) 
0

>  <r_i_glide_evdw>  (1) 
-12.715992119991967

>  <r_i_glide_gscore>  (1) 
-4.3171247337345466

>  <r_i_glide_gscore_strain>  (1) 
0

>  <r_i_glide_hbond>  (1) 
0

>  <r_i_glide_ligand_efficiency>  (1) 
-0.86342494674690928

>  <r_i_glide_ligand_efficiency_ln>  (1) 
-1.6544270753342067

>  <r_i_glide_ligand_efficiency_sa>  (1) 
-1.476435890697823

>  <r_i_glide_lipo>  (1) 
-1.2379299107448314

>  <r_i_glide_metal>  (1) 
-0

>  <r_i_glide_rewards>  (1) 
-2.25

>  <r_lp_Energy>  (1) 
2.9163329999999998

>  <r_lp_tautomer_probability>  (1) 
1

>  <s_epik_Chemistry_Notes>  (1) 
This compound has an imine and may undergo hydrolysis.

>  <s_epik_cmdline>  (1) 
J2VwaWtfcHl0aG9uJywgJy1waHQnLCAnMS4wJywgJy1waCcsICc3LjQnLCAnLXRuJywgJzgnLCAnLW1hJywgJzUwMCcsICctaW1hZScsICc8aW5maWxlLm1hZT4nLCAnLW9tYWUnLCAnPG91dGZpbGUubWFlPic=

>  <s_epik_input>  (1) 
W05IXTFbQ0hdPVtDSF1bQ0gyXVtDSDJdMQ==

>  <s_glide_docking_method>  (1) 
confgen

>  <s_i_glide_gridfile>  (1) 
gpcr_drd2_6luq_protein_autoprepared_prepared

>  <s_lp_Force_Field>  (1) 
S-OPLS

>  <s_lp_Variant>  (1) 
Pocket2Mol_33-1

>  <s_m_source_file>  (1) 
generated_generic_title2_ligand_Pocket2Mol_2026-06-23_prepared.sdf

>  <GenAI_Model>  (1) 
Pocket2Mol

>  <Protein>  (1) 
generic_title2

$$$$
Pocket2Mol_34
     RDKit          3D

  0  0  0  0  0  0  0  0  0  0999 V3000
M  V30 BEGIN CTAB
M  V30 COUNTS 21 22 0 0 1
M  V30 BEGIN ATOM
M  V30 1 C 9.668033 5.838507 -8.009104 0
M  V30 2 O 10.864541 6.519178 -8.340440 0
M  V30 3 C 10.590268 7.908444 -8.259819 0 CFG=2
M  V30 4 C 10.175416 8.390227 -9.649440 0
M  V30 5 C 11.775233 8.661240 -7.676581 0
M  V30 6 C 9.216907 6.606270 -6.785008 0
M  V30 7 C 11.477923 8.674992 -6.181352 0
M  V30 8 C 9.502893 8.043079 -7.185026 0 CFG=1
M  V30 9 O 10.070148 8.790227 -6.114203 0
M  V30 10 H 9.845389 4.790227 -7.811164 0
M  V30 11 H 8.936231 5.910535 -8.815283 0
M  V30 12 H 9.830405 9.420008 -9.585024 0
M  V30 13 H 11.007544 8.346045 -10.352118 0
M  V30 14 H 9.357529 7.801334 -10.062474 0
M  V30 15 H 11.775410 9.683347 -8.050452 0
M  V30 16 H 12.737674 8.211318 -7.921939 0
M  V30 17 H 9.822356 6.314939 -5.926335 0
M  V30 18 H 8.175407 6.426153 -6.530118 0
M  V30 19 H 11.975609 9.490797 -5.656693 0
M  V30 20 H 11.775410 7.734388 -5.717443 0
M  V30 21 H 8.605466 8.538300 -7.557867 0
M  V30 END ATOM
M  V30 BEGIN BOND
M  V30 1 1 2 1
M  V30 2 1 3 2
M  V30 3 1 3 4 CFG=3
M  V30 4 1 5 3
M  V30 5 1 6 1
M  V30 6 1 7 5
M  V30 7 1 8 3
M  V30 8 1 8 6
M  V30 9 1 9 7
M  V30 10 1 9 8
M  V30 11 1 10 1
M  V30 12 1 11 1
M  V30 13 1 12 4
M  V30 14 1 13 4
M  V30 15 1 14 4
M  V30 16 1 15 5
M  V30 17 1 16 5
M  V30 18 1 17 6
M  V30 19 1 18 6
M  V30 20 1 19 7
M  V30 21 1 20 7
M  V30 22 1 8 21 CFG=3
M  V30 END BOND
M  V30 END CTAB
M  END
>  <i_epik_Tot_Q>  (1) 
0

>  <i_epik_Tot_abs_Q>  (1) 
0

>  <i_i_glide_confnum>  (1) 
2

>  <i_i_glide_lignum>  (1) 
38

>  <i_i_glide_posenum>  (1) 
174

>  <i_i_glide_rotatable_bonds>  (1) 
0

>  <i_lp_mmshare_version>  (1) 
72125

>  <i_m_source_file_index>  (1) 
35

>  <i_f3d_flags>  (1) 
0

>  <num_sample>  (1) 
100

>  <b_lp_Chiralities_Consistent>  (1) 
1

>  <r_epik_Charging_Adjusted_Penalty>  (1) 
0

>  <r_epik_Ionization_Penalty>  (1) 
2.529470820146915e-12

>  <r_epik_Ionization_Penalty_Charging>  (1) 
0

>  <r_epik_Ionization_Penalty_Neutral>  (1) 
2.529470820146915e-12

>  <r_epik_State_Penalty>  (1) 
-0

>  <r_glide_ring_energy>  (1) 
0.058801660810398726

>  <r_i_docking_score>  (1) 
-4.3034083161948598

>  <r_i_glide_ecoul>  (1) 
-1.1634131121301956

>  <r_i_glide_eff_state_penalty>  (1) 
-0

>  <r_i_glide_einternal>  (1) 
0

>  <r_i_glide_emodel>  (1) 
-22.545411443925236

>  <r_i_glide_emodel_strain>  (1) 
0

>  <r_i_glide_energy>  (1) 
-17.69675815362287

>  <r_i_glide_erotb>  (1) 
0

>  <r_i_glide_esite>  (1) 
0

>  <r_i_glide_evdw>  (1) 
-16.533345041492673

>  <r_i_glide_gscore>  (1) 
-4.3034083161948598

>  <r_i_glide_gscore_strain>  (1) 
0

>  <r_i_glide_hbond>  (1) 
0

>  <r_i_glide_ligand_efficiency>  (1) 
-0.47815647957720664

>  <r_i_glide_ligand_efficiency_ln>  (1) 
-1.3459824957870996

>  <r_i_glide_ligand_efficiency_sa>  (1) 
-0.99460555805599582

>  <r_i_glide_lipo>  (1) 
-0.47963319474839949

>  <r_i_glide_metal>  (1) 
-0

>  <r_i_glide_rewards>  (1) 
-2.8225959025522971

>  <r_lp_Energy>  (1) 
-0.369228

>  <r_lp_tautomer_probability>  (1) 
1

>  <s_epik_cmdline>  (1) 
J2VwaWtfcHl0aG9uJywgJy1waHQnLCAnMS4wJywgJy1waCcsICc3LjQnLCAnLXRuJywgJzgnLCAnLW1hJywgJzUwMCcsICctaW1hZScsICc8aW5maWxlLm1hZT4nLCAnLW9tYWUnLCAnPG91dGZpbGUubWFlPic=

>  <s_epik_input>  (1) 
TzFbQ0gyXVtDSDJdW0NASF0oW0NAXTEyW0NIM10pT1tDSDJdW0NIMl0y

>  <s_glide_docking_method>  (1) 
confgen

>  <s_i_glide_gridfile>  (1) 
gpcr_drd2_6luq_protein_autoprepared_prepared

>  <s_lp_Force_Field>  (1) 
S-OPLS

>  <s_lp_Variant>  (1) 
Pocket2Mol_34-1

>  <s_m_source_file>  (1) 
generated_generic_title2_ligand_Pocket2Mol_2026-06-23_prepared.sdf

>  <GenAI_Model>  (1) 
Pocket2Mol

>  <Protein>  (1) 
generic_title2

$$$$
Pocket2Mol_33
     RDKit          3D

  0  0  0  0  0  0  0  0  0  0999 V3000
M  V30 BEGIN CTAB
M  V30 COUNTS 12 12 0 0 1
M  V30 BEGIN ATOM
M  V30 1 N 11.375410 7.136437 -4.566741 0
M  V30 2 C 12.139927 7.572877 -3.584652 0
M  V30 3 C 12.373999 8.833473 -3.651956 0
M  V30 4 C 11.735340 9.528114 -4.843152 0
M  V30 5 C 11.024257 8.193362 -5.532835 0
M  V30 6 H 12.484973 6.861387 -2.847443 0
M  V30 7 H 11.009777 10.276517 -4.520515 0
M  V30 8 H 12.482962 9.986332 -5.491336 0
M  V30 9 H 9.942953 8.301529 -5.621740 0
M  V30 10 H 11.447033 7.963291 -6.511338 0
M  V30 11 H 12.977877 9.379739 -2.940593 0
M  V30 12 H 11.200812 6.158420 -4.755984 0
M  V30 END ATOM
M  V30 BEGIN BOND
M  V30 1 1 2 1
M  V30 2 2 3 2
M  V30 3 1 4 3
M  V30 4 1 5 1
M  V30 5 1 5 4
M  V30 6 1 6 2
M  V30 7 1 7 4
M  V30 8 1 8 4
M  V30 9 1 9 5
M  V30 10 1 10 5
M  V30 11 1 11 3
M  V30 12 1 12 1
M  V30 END BOND
M  V30 END CTAB
M  END
>  <i_epik_Tot_Q>  (1) 
0

>  <i_epik_Tot_abs_Q>  (1) 
0

>  <i_i_glide_confnum>  (1) 
1

>  <i_i_glide_lignum>  (1) 
37

>  <i_i_glide_posenum>  (1) 
309

>  <i_i_glide_rotatable_bonds>  (1) 
0

>  <i_lp_mmshare_version>  (1) 
72125

>  <i_m_source_file_index>  (1) 
34

>  <i_f3d_flags>  (1) 
0

>  <num_sample>  (1) 
100

>  <b_lp_Chiralities_Consistent>  (1) 
1

>  <r_epik_Charging_Adjusted_Penalty>  (1) 
1.6042444336516156e-06

>  <r_epik_Ionization_Penalty>  (1) 
0.0023556498582944039

>  <r_epik_Ionization_Penalty_Charging>  (1) 
1.6042444336516156e-06

>  <r_epik_Ionization_Penalty_Neutral>  (1) 
0.0023540456138607521

>  <r_epik_State_Penalty>  (1) 
-0

>  <r_glide_ring_energy>  (1) 
0

>  <r_i_docking_score>  (1) 
-4.2953439830017137

>  <r_i_glide_ecoul>  (1) 
-1.1956237029865266

>  <r_i_glide_eff_state_penalty>  (1) 
-0

>  <r_i_glide_einternal>  (1) 
0

>  <r_i_glide_emodel>  (1) 
-17.672349937525745

>  <r_i_glide_emodel_strain>  (1) 
0

>  <r_i_glide_energy>  (1) 
-13.386230795915472

>  <r_i_glide_erotb>  (1) 
0

>  <r_i_glide_esite>  (1) 
0

>  <r_i_glide_evdw>  (1) 
-12.190607092928945

>  <r_i_glide_gscore>  (1) 
-4.2953439830017137

>  <r_i_glide_gscore_strain>  (1) 
0

>  <r_i_glide_hbond>  (1) 
0

>  <r_i_glide_ligand_efficiency>  (1) 
-0.85906879660034274

>  <r_i_glide_ligand_efficiency_ln>  (1) 
-1.646080162526262

>  <r_i_glide_ligand_efficiency_sa>  (1) 
-1.4689869787270819

>  <r_i_glide_lipo>  (1) 
-1.2564700729072873

>  <r_i_glide_metal>  (1) 
-0

>  <r_i_glide_rewards>  (1) 
-2.25

>  <r_lp_Energy>  (1) 
2.9163329999999998

>  <r_lp_tautomer_probability>  (1) 
1

>  <s_epik_Chemistry_Notes>  (1) 
This compound has an imine and may undergo hydrolysis.

>  <s_epik_cmdline>  (1) 
J2VwaWtfcHl0aG9uJywgJy1waHQnLCAnMS4wJywgJy1waCcsICc3LjQnLCAnLXRuJywgJzgnLCAnLW1hJywgJzUwMCcsICctaW1hZScsICc8aW5maWxlLm1hZT4nLCAnLW9tYWUnLCAnPG91dGZpbGUubWFlPic=

>  <s_epik_input>  (1) 
W05IXTFbQ0hdPVtDSF1bQ0gyXVtDSDJdMQ==

>  <s_glide_docking_method>  (1) 
confgen

>  <s_i_glide_gridfile>  (1) 
gpcr_drd2_6luq_protein_autoprepared_prepared

>  <s_lp_Force_Field>  (1) 
S-OPLS

>  <s_lp_Variant>  (1) 
Pocket2Mol_33-1

>  <s_m_source_file>  (1) 
generated_generic_title2_ligand_Pocket2Mol_2026-06-23_prepared.sdf

>  <GenAI_Model>  (1) 
Pocket2Mol

>  <Protein>  (1) 
generic_title2

$$$$
Pocket2Mol_6
     RDKit          3D

  0  0  0  0  0  0  0  0  0  0999 V3000
M  V30 BEGIN CTAB
M  V30 COUNTS 14 14 0 0 1
M  V30 BEGIN ATOM
M  V30 1 C 12.175410 9.590227 -6.298741 0
M  V30 2 O 11.375483 9.108661 -7.368992 0
M  V30 3 C 11.537184 9.195204 -4.958442 0
M  V30 4 O 11.375411 7.782773 -4.909453 0
M  V30 5 C 11.214321 7.697175 -7.318253 0
M  V30 6 C 10.562923 7.313008 -5.980170 0
M  V30 7 H 13.189109 9.198493 -6.385043 0
M  V30 8 H 12.242511 10.675614 -6.372849 0
M  V30 9 H 12.169806 9.511994 -4.128981 0
M  V30 10 H 10.575457 9.692820 -4.833756 0
M  V30 11 H 10.585936 7.379508 -8.150619 0
M  V30 12 H 12.178248 7.201744 -7.436507 0
M  V30 13 H 9.558953 7.734315 -5.907102 0
M  V30 14 H 10.462026 6.230317 -5.903098 0
M  V30 END ATOM
M  V30 BEGIN BOND
M  V30 1 1 2 1
M  V30 2 1 3 1
M  V30 3 1 4 3
M  V30 4 1 5 2
M  V30 5 1 6 4
M  V30 6 1 6 5
M  V30 7 1 7 1
M  V30 8 1 8 1
M  V30 9 1 9 3
M  V30 10 1 10 3
M  V30 11 1 11 5
M  V30 12 1 12 5
M  V30 13 1 13 6
M  V30 14 1 14 6
M  V30 END BOND
M  V30 END CTAB
M  END
>  <i_epik_Tot_Q>  (1) 
0

>  <i_epik_Tot_abs_Q>  (1) 
0

>  <i_i_glide_confnum>  (1) 
2

>  <i_i_glide_lignum>  (1) 
7

>  <i_i_glide_posenum>  (1) 
374

>  <i_i_glide_rotatable_bonds>  (1) 
0

>  <i_lp_mmshare_version>  (1) 
72125

>  <i_m_source_file_index>  (1) 
7

>  <i_f3d_flags>  (1) 
0

>  <num_sample>  (1) 
100

>  <b_lp_Chiralities_Consistent>  (1) 
1

>  <r_epik_Charging_Adjusted_Penalty>  (1) 
0

>  <r_epik_Ionization_Penalty>  (1) 
8.3894707547109138e-13

>  <r_epik_Ionization_Penalty_Charging>  (1) 
0

>  <r_epik_Ionization_Penalty_Neutral>  (1) 
8.3894707547109138e-13

>  <r_epik_State_Penalty>  (1) 
-0

>  <r_glide_ring_energy>  (1) 
0.00013676017923054334

>  <r_i_docking_score>  (1) 
-4.2951731390962991

>  <r_i_glide_ecoul>  (1) 
-0.34218357150579459

>  <r_i_glide_eff_state_penalty>  (1) 
-0

>  <r_i_glide_einternal>  (1) 
0

>  <r_i_glide_emodel>  (1) 
-17.475973547825429

>  <r_i_glide_emodel_strain>  (1) 
0

>  <r_i_glide_energy>  (1) 
-13.54728329055213

>  <r_i_glide_erotb>  (1) 
0

>  <r_i_glide_esite>  (1) 
0

>  <r_i_glide_evdw>  (1) 
-13.205099719046336

>  <r_i_glide_gscore>  (1) 
-4.2951731390962991

>  <r_i_glide_gscore_strain>  (1) 
0

>  <r_i_glide_hbond>  (1) 
0

>  <r_i_glide_ligand_efficiency>  (1) 
-0.71586218984938321

>  <r_i_glide_ligand_efficiency_ln>  (1) 
-1.5385183381446363

>  <r_i_glide_ligand_efficiency_sa>  (1) 
-1.3008079268052251

>  <r_i_glide_lipo>  (1) 
-1.0585906174181126

>  <r_i_glide_metal>  (1) 
-0

>  <r_i_glide_rewards>  (1) 
-2.5249999999999999

>  <r_lp_Energy>  (1) 
4.9648199999999996

>  <r_lp_tautomer_probability>  (1) 
1

>  <s_epik_cmdline>  (1) 
J2VwaWtfcHl0aG9uJywgJy1waHQnLCAnMS4wJywgJy1waCcsICc3LjQnLCAnLXRuJywgJzgnLCAnLW1hJywgJzUwMCcsICctaW1hZScsICc8aW5maWxlLm1hZT4nLCAnLW9tYWUnLCAnPG91dGZpbGUubWFlPic=

>  <s_epik_input>  (1) 
W0NIMl0xT1tDSDJdW0NIMl1PW0NIMl0x

>  <s_glide_docking_method>  (1) 
confgen

>  <s_i_glide_gridfile>  (1) 
gpcr_drd2_6luq_protein_autoprepared_prepared

>  <s_lp_Force_Field>  (1) 
S-OPLS

>  <s_lp_Variant>  (1) 
Pocket2Mol_6-1

>  <s_m_source_file>  (1) 
generated_generic_title2_ligand_Pocket2Mol_2026-06-23_prepared.sdf

>  <GenAI_Model>  (1) 
Pocket2Mol

>  <Protein>  (1) 
generic_title2

$$$$
Pocket2Mol_42
     RDKit          3D

  0  0  0  0  0  0  0  0  0  0999 V3000
M  V30 BEGIN CTAB
M  V30 COUNTS 23 24 0 0 1
M  V30 BEGIN ATOM
M  V30 1 C 9.730981 8.266026 -6.566802 0
M  V30 2 O 10.733374 8.790283 -7.415442 0
M  V30 3 C 10.943718 7.884930 -8.487396 0 CFG=2
M  V30 4 C 12.416098 7.990228 -8.897220 0
M  V30 5 C 10.006748 8.172414 -9.668307 0
M  V30 6 C 10.053408 6.782294 -6.530993 0
M  V30 7 C 9.602898 6.791980 -10.183110 0
M  V30 8 C 10.534121 6.503252 -7.946963 0 CFG=1
M  V30 9 C 9.460733 5.961362 -8.906844 0
M  V30 10 H 9.776342 8.729175 -5.585099 0
M  V30 11 H 8.742218 8.445812 -6.992403 0
M  V30 12 H 12.639694 7.314573 -9.721666 0
M  V30 13 H 12.655444 9.003652 -9.221182 0
M  V30 14 H 13.072422 7.747830 -8.061603 0
M  V30 15 H 9.113467 8.699287 -9.324953 0
M  V30 16 H 10.470557 8.790226 -10.435455 0
M  V30 17 H 10.863761 6.600420 -5.824150 0
M  V30 18 H 9.204701 6.170064 -6.227166 0
M  V30 19 H 8.679311 6.817039 -10.763162 0
M  V30 20 H 10.388267 6.390330 -10.822690 0
M  V30 21 H 11.375421 5.818410 -7.914760 0
M  V30 22 H 8.465336 6.111886 -8.488000 0
M  V30 23 H 9.575158 4.893361 -9.093695 0
M  V30 END ATOM
M  V30 BEGIN BOND
M  V30 1 1 2 1
M  V30 2 1 3 2
M  V30 3 1 3 4 CFG=3
M  V30 4 1 5 3
M  V30 5 1 6 1
M  V30 6 1 7 5
M  V30 7 1 8 3
M  V30 8 1 8 6
M  V30 9 1 9 7
M  V30 10 1 9 8
M  V30 11 1 10 1
M  V30 12 1 11 1
M  V30 13 1 12 4
M  V30 14 1 13 4
M  V30 15 1 14 4
M  V30 16 1 15 5
M  V30 17 1 16 5
M  V30 18 1 17 6
M  V30 19 1 18 6
M  V30 20 1 19 7
M  V30 21 1 20 7
M  V30 22 1 8 21 CFG=1
M  V30 23 1 22 9
M  V30 24 1 23 9
M  V30 END BOND
M  V30 END CTAB
M  END
>  <i_epik_Tot_Q>  (1) 
0

>  <i_epik_Tot_abs_Q>  (1) 
0

>  <i_i_glide_confnum>  (1) 
3

>  <i_i_glide_lignum>  (1) 
47

>  <i_i_glide_posenum>  (1) 
398

>  <i_i_glide_rotatable_bonds>  (1) 
0

>  <i_lp_mmshare_version>  (1) 
72125

>  <i_m_source_file_index>  (1) 
43

>  <i_f3d_flags>  (1) 
0

>  <num_sample>  (1) 
100

>  <b_lp_Chiralities_Consistent>  (1) 
1

>  <r_epik_Charging_Adjusted_Penalty>  (1) 
0

>  <r_epik_Ionization_Penalty>  (1) 
2.4347883345708157e-11

>  <r_epik_Ionization_Penalty_Charging>  (1) 
0

>  <r_epik_Ionization_Penalty_Neutral>  (1) 
2.4347883345708157e-11

>  <r_epik_State_Penalty>  (1) 
-0

>  <r_glide_ring_energy>  (1) 
1.1035134730129632

>  <r_i_docking_score>  (1) 
-4.2890225923571377

>  <r_i_glide_ecoul>  (1) 
-0.61301727609831691

>  <r_i_glide_eff_state_penalty>  (1) 
-0

>  <r_i_glide_einternal>  (1) 
0

>  <r_i_glide_emodel>  (1) 
-21.925433347911209

>  <r_i_glide_emodel_strain>  (1) 
0

>  <r_i_glide_energy>  (1) 
-17.314409172971793

>  <r_i_glide_erotb>  (1) 
0

>  <r_i_glide_esite>  (1) 
0

>  <r_i_glide_evdw>  (1) 
-16.701391896873474

>  <r_i_glide_gscore>  (1) 
-4.2890225923571377

>  <r_i_glide_gscore_strain>  (1) 
0

>  <r_i_glide_hbond>  (1) 
0

>  <r_i_glide_ligand_efficiency>  (1) 
-0.47655806581745974

>  <r_i_glide_ligand_efficiency_ln>  (1) 
-1.3414830546343899

>  <r_i_glide_ligand_efficiency_sa>  (1) 
-0.99128072345180274

>  <r_i_glide_lipo>  (1) 
-0.54342985283730472

>  <r_i_glide_metal>  (1) 
-0

>  <r_i_glide_rewards>  (1) 
-2.8185705532614111

>  <r_lp_Energy>  (1) 
5.4699619999999998

>  <r_lp_tautomer_probability>  (1) 
1

>  <s_epik_cmdline>  (1) 
J2VwaWtfcHl0aG9uJywgJy1waHQnLCAnMS4wJywgJy1waCcsICc3LjQnLCAnLXRuJywgJzgnLCAnLW1hJywgJzUwMCcsICctaW1hZScsICc8aW5maWxlLm1hZT4nLCAnLW9tYWUnLCAnPG91dGZpbGUubWFlPic=

>  <s_epik_input>  (1) 
TzFbQ0gyXVtDSDJdW0NASF0oW0NAXTEyW0NIM10pW0NIMl1bQ0gyXVtDSDJdMg==

>  <s_glide_docking_method>  (1) 
confgen

>  <s_i_glide_gridfile>  (1) 
gpcr_drd2_6luq_protein_autoprepared_prepared

>  <s_lp_Force_Field>  (1) 
S-OPLS

>  <s_lp_Variant>  (1) 
Pocket2Mol_42-1

>  <s_m_source_file>  (1) 
generated_generic_title2_ligand_Pocket2Mol_2026-06-23_prepared.sdf

>  <GenAI_Model>  (1) 
Pocket2Mol

>  <Protein>  (1) 
generic_title2

$$$$
Pocket2Mol_79
     RDKit          3D

  0  0  0  0  0  0  0  0  0  0999 V3000
M  V30 BEGIN CTAB
M  V30 COUNTS 24 25 0 0 1
M  V30 BEGIN ATOM
M  V30 1 C 11.416224 8.746404 -7.206563 0
M  V30 2 O 12.133038 8.313576 -8.353326 0
M  V30 3 C 9.957367 8.280166 -7.236118 0
M  V30 4 O 9.942557 6.916856 -7.610940 0
M  V30 5 C 11.442649 8.506899 -9.577537 0
M  V30 6 C 9.792582 6.630047 -8.952404 0
M  V30 7 C 8.935804 5.577304 -9.336014 0
M  V30 8 C 10.491448 7.369485 -9.954172 0
M  V30 9 C 8.193049 4.790227 -8.281994 0
M  V30 10 C 8.763566 5.261106 -10.697982 0
M  V30 11 C 9.444641 5.993010 -11.684278 0
M  V30 12 C 10.305478 7.042553 -11.316782 0
M  V30 13 H 11.914368 8.340719 -6.327478 0
M  V30 14 H 11.470417 9.830701 -7.118127 0
M  V30 15 H 9.515187 8.379147 -6.244569 0
M  V30 16 H 9.335454 8.880398 -7.902847 0
M  V30 17 H 12.204688 8.576275 -10.354510 0
M  V30 18 H 10.920699 9.463956 -9.585025 0
M  V30 19 H 7.775410 5.454219 -7.524786 0
M  V30 20 H 7.375410 4.221162 -8.721196 0
M  V30 21 H 8.879240 4.096799 -7.801661 0
M  V30 22 H 8.104550 4.455211 -10.985643 0
M  V30 23 H 9.310003 5.746498 -12.727151 0
M  V30 24 H 10.830390 7.590227 -12.080289 0
M  V30 END ATOM
M  V30 BEGIN BOND
M  V30 1 1 2 1
M  V30 2 1 3 1
M  V30 3 1 4 3
M  V30 4 1 5 2
M  V30 5 1 6 4
M  V30 6 2 7 6
M  V30 7 1 8 5
M  V30 8 1 8 6
M  V30 9 1 9 7
M  V30 10 1 10 7
M  V30 11 2 11 10
M  V30 12 2 12 8
M  V30 13 1 12 11
M  V30 14 1 13 1
M  V30 15 1 14 1
M  V30 16 1 15 3
M  V30 17 1 16 3
M  V30 18 1 17 5
M  V30 19 1 18 5
M  V30 20 1 19 9
M  V30 21 1 20 9
M  V30 22 1 21 9
M  V30 23 1 22 10
M  V30 24 1 23 11
M  V30 25 1 24 12
M  V30 END BOND
M  V30 END CTAB
M  END
>  <i_epik_Tot_Q>  (1) 
0

>  <i_epik_Tot_abs_Q>  (1) 
0

>  <i_i_glide_confnum>  (1) 
2

>  <i_i_glide_lignum>  (1) 
86

>  <i_i_glide_posenum>  (1) 
352

>  <i_i_glide_rotatable_bonds>  (1) 
0

>  <i_lp_mmshare_version>  (1) 
72125

>  <i_m_source_file_index>  (1) 
80

>  <i_f3d_flags>  (1) 
0

>  <num_sample>  (1) 
100

>  <b_lp_Chiralities_Consistent>  (1) 
1

>  <r_epik_Charging_Adjusted_Penalty>  (1) 
0

>  <r_epik_Ionization_Penalty>  (1) 
2.8363962595523293e-13

>  <r_epik_Ionization_Penalty_Charging>  (1) 
0

>  <r_epik_Ionization_Penalty_Neutral>  (1) 
2.8363962595523293e-13

>  <r_epik_State_Penalty>  (1) 
-0

>  <r_glide_ring_energy>  (1) 
1.7614129466602644

>  <r_i_docking_score>  (1) 
-4.285481653563374

>  <r_i_glide_ecoul>  (1) 
0.99969870539617278

>  <r_i_glide_eff_state_penalty>  (1) 
-0

>  <r_i_glide_einternal>  (1) 
0

>  <r_i_glide_emodel>  (1) 
-24.081097809085218

>  <r_i_glide_emodel_strain>  (1) 
0.00053375973948988076

>  <r_i_glide_energy>  (1) 
-18.940613120331591

>  <r_i_glide_erotb>  (1) 
0

>  <r_i_glide_esite>  (1) 
0

>  <r_i_glide_evdw>  (1) 
-19.940311825727765

>  <r_i_glide_gscore>  (1) 
-4.285481653563374

>  <r_i_glide_gscore_strain>  (1) 
0

>  <r_i_glide_hbond>  (1) 
0

>  <r_i_glide_ligand_efficiency>  (1) 
-0.35712347113028114

>  <r_i_glide_ligand_efficiency_ln>  (1) 
-1.2297263841555341

>  <r_i_glide_ligand_efficiency_sa>  (1) 
-0.81760864750583306

>  <r_i_glide_lipo>  (1) 
-0.49120206773979974

>  <r_i_glide_metal>  (1) 
-0

>  <r_i_glide_rewards>  (1) 
-2.9472188003466115

>  <r_lp_Energy>  (1) 
16.059718999999998

>  <r_lp_tautomer_probability>  (1) 
1

>  <s_epik_cmdline>  (1) 
J2VwaWtfcHl0aG9uJywgJy1waHQnLCAnMS4wJywgJy1waCcsICc3LjQnLCAnLXRuJywgJzgnLCAnLW1hJywgJzUwMCcsICctaW1hZScsICc8aW5maWxlLm1hZT4nLCAnLW9tYWUnLCAnPG91dGZpbGUubWFlPic=

>  <s_epik_input>  (1) 
TzFbQ0gyXVtDSDJdT1tDSDJdYyhjMTIpW2NIXVtjSF1bY0hdYzJbQ0gzXQ==

>  <s_glide_docking_method>  (1) 
confgen

>  <s_i_glide_gridfile>  (1) 
gpcr_drd2_6luq_protein_autoprepared_prepared

>  <s_lp_Force_Field>  (1) 
S-OPLS

>  <s_lp_Variant>  (1) 
Pocket2Mol_79-1

>  <s_m_source_file>  (1) 
generated_generic_title2_ligand_Pocket2Mol_2026-06-23_prepared.sdf

>  <GenAI_Model>  (1) 
Pocket2Mol

>  <Protein>  (1) 
generic_title2

$$$$
Pocket2Mol_14
     RDKit          3D

  0  0  0  0  0  0  0  0  0  0999 V3000
M  V30 BEGIN CTAB
M  V30 COUNTS 17 17 0 0 1
M  V30 BEGIN ATOM
M  V30 1 C 10.935853 7.401301 -6.167751 0
M  V30 2 O 11.367103 8.590111 -6.828389 0
M  V30 3 C 11.642127 8.390214 -8.214064 0
M  V30 4 C 10.359700 7.954976 -8.941552 0 CFG=1
M  V30 5 O 10.649219 7.705894 -10.298843 0
M  V30 6 C 9.615394 6.912808 -6.785042 0
M  V30 7 C 9.775408 6.693213 -8.294462 0
M  V30 8 H 11.705279 6.632352 -6.237039 0
M  V30 9 H 10.796843 7.614528 -5.107887 0
M  V30 10 H 12.409138 7.622585 -8.316725 0
M  V30 11 H 12.047263 9.302244 -8.652432 0
M  V30 12 H 9.626630 8.761464 -8.924706 0
M  V30 13 H 9.848827 7.462505 -10.738266 0
M  V30 14 H 9.293907 5.990227 -6.301730 0
M  V30 15 H 8.832467 7.648137 -6.599526 0
M  V30 16 H 8.804712 6.470157 -8.737288 0
M  V30 17 H 10.414192 5.831969 -8.490198 0
M  V30 END ATOM
M  V30 BEGIN BOND
M  V30 1 1 2 1
M  V30 2 1 3 2
M  V30 3 1 4 3
M  V30 4 1 5 4
M  V30 5 1 6 1
M  V30 6 1 7 4
M  V30 7 1 7 6
M  V30 8 1 8 1
M  V30 9 1 9 1
M  V30 10 1 10 3
M  V30 11 1 11 3
M  V30 12 1 4 12 CFG=3
M  V30 13 1 13 5
M  V30 14 1 14 6
M  V30 15 1 15 6
M  V30 16 1 16 7
M  V30 17 1 17 7
M  V30 END BOND
M  V30 END CTAB
M  END
>  <i_epik_Tot_Q>  (1) 
0

>  <i_epik_Tot_abs_Q>  (1) 
0

>  <i_i_glide_confnum>  (1) 
1

>  <i_i_glide_lignum>  (1) 
17

>  <i_i_glide_posenum>  (1) 
164

>  <i_i_glide_rotatable_bonds>  (1) 
1

>  <i_lp_mmshare_version>  (1) 
72125

>  <i_m_source_file_index>  (1) 
15

>  <i_f3d_flags>  (1) 
0

>  <num_sample>  (1) 
100

>  <b_lp_Chiralities_Consistent>  (1) 
1

>  <r_epik_Charging_Adjusted_Penalty>  (1) 
0

>  <r_epik_Ionization_Penalty>  (1) 
4.2263924331700322e-08

>  <r_epik_Ionization_Penalty_Charging>  (1) 
0

>  <r_epik_Ionization_Penalty_Neutral>  (1) 
4.2263924331700322e-08

>  <r_epik_State_Penalty>  (1) 
-0

>  <r_glide_ring_energy>  (1) 
0

>  <r_i_docking_score>  (1) 
-4.2762577819992993

>  <r_i_glide_ecoul>  (1) 
-1.9938991532315655

>  <r_i_glide_eff_state_penalty>  (1) 
-0

>  <r_i_glide_einternal>  (1) 
0.31911654690942365

>  <r_i_glide_emodel>  (1) 
-23.309221264466387

>  <r_i_glide_emodel_strain>  (1) 
0

>  <r_i_glide_energy>  (1) 
-18.047540538233289

>  <r_i_glide_erotb>  (1) 
0

>  <r_i_glide_esite>  (1) 
0

>  <r_i_glide_evdw>  (1) 
-16.053641385001722

>  <r_i_glide_gscore>  (1) 
-4.2762577819992993

>  <r_i_glide_gscore_strain>  (1) 
0

>  <r_i_glide_hbond>  (1) 
0

>  <r_i_glide_ligand_efficiency>  (1) 
-0.61089396885704272

>  <r_i_glide_ligand_efficiency_ln>  (1) 
-1.4515913811460266

>  <r_i_glide_ligand_efficiency_sa>  (1) 
-1.1685981223942219

>  <r_i_glide_lipo>  (1) 
-0.49949083976447828

>  <r_i_glide_metal>  (1) 
-0

>  <r_i_glide_rewards>  (1) 
-2.6749999999999998

>  <r_lp_Energy>  (1) 
6.7642049999999996

>  <r_lp_tautomer_probability>  (1) 
1

>  <s_epik_cmdline>  (1) 
J2VwaWtfcHl0aG9uJywgJy1waHQnLCAnMS4wJywgJy1waCcsICc3LjQnLCAnLXRuJywgJzgnLCAnLW1hJywgJzUwMCcsICctaW1hZScsICc8aW5maWxlLm1hZT4nLCAnLW9tYWUnLCAnPG91dGZpbGUubWFlPic=

>  <s_epik_input>  (1) 
W0NIMl0xW0NIMl1bQ0gyXU9bQ0gyXVtDQEhdMVtPSF0=

>  <s_glide_docking_method>  (1) 
confgen

>  <s_i_glide_gridfile>  (1) 
gpcr_drd2_6luq_protein_autoprepared_prepared

>  <s_lp_Force_Field>  (1) 
S-OPLS

>  <s_lp_Variant>  (1) 
Pocket2Mol_14-1

>  <s_m_source_file>  (1) 
generated_generic_title2_ligand_Pocket2Mol_2026-06-23_prepared.sdf

>  <GenAI_Model>  (1) 
Pocket2Mol

>  <Protein>  (1) 
generic_title2

$$$$
Pocket2Mol_99
     RDKit          3D

  0  0  0  0  0  0  0  0  0  0999 V3000
M  V30 BEGIN CTAB
M  V30 COUNTS 11 11 0 0 1
M  V30 BEGIN ATOM
M  V30 1 O 11.775466 9.590319 -2.797575 0
M  V30 2 C 12.175421 8.506576 -1.985030 0
M  V30 3 C 12.377564 7.351918 -2.969225 0
M  V30 4 C 11.985292 9.190225 -4.101336 0
M  V30 5 O 11.775553 7.826917 -4.153671 0
M  V30 6 H 13.091706 8.744103 -1.442480 0
M  V30 7 H 11.392018 8.294267 -1.259184 0
M  V30 8 H 13.439388 7.190318 -3.156011 0
M  V30 9 H 11.934271 6.414886 -2.630463 0
M  V30 10 H 11.303307 9.711531 -4.774023 0
M  V30 11 H 13.013885 9.420084 -4.389010 0
M  V30 END ATOM
M  V30 BEGIN BOND
M  V30 1 1 2 1
M  V30 2 1 3 2
M  V30 3 1 4 1
M  V30 4 1 5 3
M  V30 5 1 5 4
M  V30 6 1 6 2
M  V30 7 1 7 2
M  V30 8 1 8 3
M  V30 9 1 9 3
M  V30 10 1 10 4
M  V30 11 1 11 4
M  V30 END BOND
M  V30 END CTAB
M  END
>  <i_epik_Tot_Q>  (1) 
0

>  <i_epik_Tot_abs_Q>  (1) 
0

>  <i_i_glide_confnum>  (1) 
2

>  <i_i_glide_lignum>  (1) 
108

>  <i_i_glide_posenum>  (1) 
195

>  <i_i_glide_rotatable_bonds>  (1) 
0

>  <i_lp_mmshare_version>  (1) 
72125

>  <i_m_source_file_index>  (1) 
100

>  <i_f3d_flags>  (1) 
0

>  <num_sample>  (1) 
100

>  <b_lp_Chiralities_Consistent>  (1) 
1

>  <r_epik_Charging_Adjusted_Penalty>  (1) 
0

>  <r_epik_Ionization_Penalty>  (1) 
7.9724310449397378e-14

>  <r_epik_Ionization_Penalty_Charging>  (1) 
0

>  <r_epik_Ionization_Penalty_Neutral>  (1) 
7.9724310449397378e-14

>  <r_epik_State_Penalty>  (1) 
-0

>  <r_glide_ring_energy>  (1) 
1.1396681620093737e-05

>  <r_i_docking_score>  (1) 
-4.2746456493075975

>  <r_i_glide_ecoul>  (1) 
-0.0050794389105801585

>  <r_i_glide_eff_state_penalty>  (1) 
-0

>  <r_i_glide_einternal>  (1) 
0

>  <r_i_glide_emodel>  (1) 
-17.284974417706479

>  <r_i_glide_emodel_strain>  (1) 
0.085274394871688308

>  <r_i_glide_energy>  (1) 
-13.671475417359424

>  <r_i_glide_erotb>  (1) 
0

>  <r_i_glide_esite>  (1) 
0

>  <r_i_glide_evdw>  (1) 
-13.666395978448845

>  <r_i_glide_gscore>  (1) 
-4.2746456493075975

>  <r_i_glide_gscore_strain>  (1) 
0

>  <r_i_glide_hbond>  (1) 
0

>  <r_i_glide_ligand_efficiency>  (1) 
-0.85492912986151948

>  <r_i_glide_ligand_efficiency_ln>  (1) 
-1.6381480582230754

>  <r_i_glide_ligand_efficiency_sa>  (1) 
-1.4619082481764367

>  <r_i_glide_lipo>  (1) 
-0.66000000000000003

>  <r_i_glide_metal>  (1) 
-0

>  <r_i_glide_rewards>  (1) 
-2.9305639345485686

>  <r_lp_Energy>  (1) 
-12.242958999999999

>  <r_lp_tautomer_probability>  (1) 
1

>  <s_epik_Chemistry_Notes>  (1) 
This compound contains an acetal/aminal-like group ( X-CH(R)-Y where X, Y are N, S, or O) that may be acid/base labile, releasing an aldehyde.

>  <s_epik_cmdline>  (1) 
J2VwaWtfcHl0aG9uJywgJy1waHQnLCAnMS4wJywgJy1waCcsICc3LjQnLCAnLXRuJywgJzgnLCAnLW1hJywgJzUwMCcsICctaW1hZScsICc8aW5maWxlLm1hZT4nLCAnLW9tYWUnLCAnPG91dGZpbGUubWFlPic=

>  <s_epik_input>  (1) 
TzFbQ0gyXVtDSDJdT1tDSDJdMQ==

>  <s_glide_docking_method>  (1) 
confgen

>  <s_i_glide_gridfile>  (1) 
gpcr_drd2_6luq_protein_autoprepared_prepared

>  <s_lp_Force_Field>  (1) 
S-OPLS

>  <s_lp_Variant>  (1) 
Pocket2Mol_99-1

>  <s_m_source_file>  (1) 
generated_generic_title2_ligand_Pocket2Mol_2026-06-23_prepared.sdf

>  <GenAI_Model>  (1) 
Pocket2Mol

>  <Protein>  (1) 
generic_title2

$$$$
Pocket2Mol_33
     RDKit          3D

  0  0  0  0  0  0  0  0  0  0999 V3000
M  V30 BEGIN CTAB
M  V30 COUNTS 12 12 0 0 1
M  V30 BEGIN ATOM
M  V30 1 N 11.375410 7.076124 -4.720521 0
M  V30 2 C 10.975410 8.024225 -5.540097 0
M  V30 3 C 11.375410 9.192822 -5.189356 0
M  V30 4 C 12.201802 9.216731 -3.915699 0
M  V30 5 C 12.170201 7.594479 -3.585027 0
M  V30 6 H 10.367618 7.746055 -6.389938 0
M  V30 7 H 13.209343 9.590028 -4.101335 0
M  V30 8 H 11.717284 9.810516 -3.139731 0
M  V30 9 H 13.180181 7.190227 -3.579133 0
M  V30 10 H 11.689793 7.374242 -2.631381 0
M  V30 11 H 11.148387 10.101190 -5.728381 0
M  V30 12 H 11.032891 6.123898 -4.747243 0
M  V30 END ATOM
M  V30 BEGIN BOND
M  V30 1 1 2 1
M  V30 2 2 3 2
M  V30 3 1 4 3
M  V30 4 1 5 1
M  V30 5 1 5 4
M  V30 6 1 6 2
M  V30 7 1 7 4
M  V30 8 1 8 4
M  V30 9 1 9 5
M  V30 10 1 10 5
M  V30 11 1 11 3
M  V30 12 1 12 1
M  V30 END BOND
M  V30 END CTAB
M  END
>  <i_epik_Tot_Q>  (1) 
0

>  <i_epik_Tot_abs_Q>  (1) 
0

>  <i_i_glide_confnum>  (1) 
1

>  <i_i_glide_lignum>  (1) 
37

>  <i_i_glide_posenum>  (1) 
69

>  <i_i_glide_rotatable_bonds>  (1) 
0

>  <i_lp_mmshare_version>  (1) 
72125

>  <i_m_source_file_index>  (1) 
34

>  <i_f3d_flags>  (1) 
0

>  <num_sample>  (1) 
100

>  <b_lp_Chiralities_Consistent>  (1) 
1

>  <r_epik_Charging_Adjusted_Penalty>  (1) 
1.6042444336516156e-06

>  <r_epik_Ionization_Penalty>  (1) 
0.0023556498582944039

>  <r_epik_Ionization_Penalty_Charging>  (1) 
1.6042444336516156e-06

>  <r_epik_Ionization_Penalty_Neutral>  (1) 
0.0023540456138607521

>  <r_epik_State_Penalty>  (1) 
-0

>  <r_glide_ring_energy>  (1) 
0

>  <r_i_docking_score>  (1) 
-4.2684182273572482

>  <r_i_glide_ecoul>  (1) 
-1.0706812113302395

>  <r_i_glide_eff_state_penalty>  (1) 
-0

>  <r_i_glide_einternal>  (1) 
0

>  <r_i_glide_emodel>  (1) 
-17.819252739322806

>  <r_i_glide_emodel_strain>  (1) 
0

>  <r_i_glide_energy>  (1) 
-13.560001526597103

>  <r_i_glide_erotb>  (1) 
0

>  <r_i_glide_esite>  (1) 
0

>  <r_i_glide_evdw>  (1) 
-12.489320315266864

>  <r_i_glide_gscore>  (1) 
-4.2684182273572482

>  <r_i_glide_gscore_strain>  (1) 
0

>  <r_i_glide_hbond>  (1) 
0

>  <r_i_glide_ligand_efficiency>  (1) 
-0.85368364547144959

>  <r_i_glide_ligand_efficiency_ln>  (1) 
-1.6357615588468399

>  <r_i_glide_ligand_efficiency_sa>  (1) 
-1.4597784998274559

>  <r_i_glide_lipo>  (1) 
-1.2333500298943694

>  <r_i_glide_metal>  (1) 
-0

>  <r_i_glide_rewards>  (1) 
-2.25

>  <r_lp_Energy>  (1) 
2.9163329999999998

>  <r_lp_tautomer_probability>  (1) 
1

>  <s_epik_Chemistry_Notes>  (1) 
This compound has an imine and may undergo hydrolysis.

>  <s_epik_cmdline>  (1) 
J2VwaWtfcHl0aG9uJywgJy1waHQnLCAnMS4wJywgJy1waCcsICc3LjQnLCAnLXRuJywgJzgnLCAnLW1hJywgJzUwMCcsICctaW1hZScsICc8aW5maWxlLm1hZT4nLCAnLW9tYWUnLCAnPG91dGZpbGUubWFlPic=

>  <s_epik_input>  (1) 
W05IXTFbQ0hdPVtDSF1bQ0gyXVtDSDJdMQ==

>  <s_glide_docking_method>  (1) 
confgen

>  <s_i_glide_gridfile>  (1) 
gpcr_drd2_6luq_protein_autoprepared_prepared

>  <s_lp_Force_Field>  (1) 
S-OPLS

>  <s_lp_Variant>  (1) 
Pocket2Mol_33-1

>  <s_m_source_file>  (1) 
generated_generic_title2_ligand_Pocket2Mol_2026-06-23_prepared.sdf

>  <GenAI_Model>  (1) 
Pocket2Mol

>  <Protein>  (1) 
generic_title2

$$$$
Pocket2Mol_9
     RDKit          3D

  0  0  0  0  0  0  0  0  0  0999 V3000
M  V30 BEGIN CTAB
M  V30 COUNTS 13 13 0 0 1
M  V30 BEGIN ATOM
M  V30 1 N 11.419540 8.185638 -9.616537 0 CHG=1
M  V30 2 C 11.368311 8.133166 -8.248734 0
M  V30 3 C 10.056866 7.887931 -7.910141 0
M  V30 4 C 10.209368 7.985224 -10.128570 0
M  V30 5 C 9.385073 7.726810 -6.590764 0
M  V30 6 N 9.378120 7.802051 -9.100574 0
M  V30 7 H 12.240718 8.269576 -7.629773 0
M  V30 8 H 9.945133 7.971907 -11.176967 0
M  V30 9 H 10.110492 7.830335 -5.782632 0
M  V30 10 H 8.613099 8.485005 -6.461762 0
M  V30 11 H 8.924701 6.741355 -6.516984 0
M  V30 12 H 8.350470 7.626320 -9.185026 0
M  V30 13 H 12.259688 8.353842 -10.159152 0
M  V30 END ATOM
M  V30 BEGIN BOND
M  V30 1 1 2 1
M  V30 2 2 3 2
M  V30 3 2 4 1
M  V30 4 1 5 3
M  V30 5 1 6 3
M  V30 6 1 6 4
M  V30 7 1 7 2
M  V30 8 1 8 4
M  V30 9 1 9 5
M  V30 10 1 10 5
M  V30 11 1 11 5
M  V30 12 1 12 6
M  V30 13 1 13 1
M  V30 END BOND
M  V30 END CTAB
M  END
>  <i_epik_Tot_Q>  (1) 
1

>  <i_epik_Tot_abs_Q>  (1) 
1

>  <i_i_glide_confnum>  (1) 
1

>  <i_i_glide_lignum>  (1) 
11

>  <i_i_glide_posenum>  (1) 
234

>  <i_i_glide_rotatable_bonds>  (1) 
0

>  <i_lp_mmshare_version>  (1) 
72125

>  <i_m_source_file_index>  (1) 
10

>  <i_f3d_flags>  (1) 
0

>  <num_sample>  (1) 
100

>  <b_lp_Chiralities_Consistent>  (1) 
1

>  <r_epik_Charging_Adjusted_Penalty>  (1) 
0.63910500234431922

>  <r_epik_Ionization_Penalty>  (1) 
0.82018112513013652

>  <r_epik_Ionization_Penalty_Charging>  (1) 
0

>  <r_epik_Ionization_Penalty_Neutral>  (1) 
0.82018112513013652

>  <r_epik_State_Penalty>  (1) 
0.63910500234431922

>  <r_glide_ring_energy>  (1) 
0

>  <r_i_docking_score>  (1) 
-4.2538113454365512

>  <r_i_glide_ecoul>  (1) 
-11.286009883194556

>  <r_i_glide_eff_state_penalty>  (1) 
0.63910500234431922

>  <r_i_glide_einternal>  (1) 
0

>  <r_i_glide_emodel>  (1) 
-29.185130555282775

>  <r_i_glide_emodel_strain>  (1) 
0

>  <r_i_glide_energy>  (1) 
-20.069461488720926

>  <r_i_glide_erotb>  (1) 
0

>  <r_i_glide_esite>  (1) 
-0.15552388017255306

>  <r_i_glide_evdw>  (1) 
-8.7834516055263681

>  <r_i_glide_gscore>  (1) 
-4.8929163477808704

>  <r_i_glide_gscore_strain>  (1) 
0

>  <r_i_glide_hbond>  (1) 
-0.15299103668631303

>  <r_i_glide_ligand_efficiency>  (1) 
-0.70896855757275856

>  <r_i_glide_ligand_efficiency_ln>  (1) 
-1.5237026657646713

>  <r_i_glide_ligand_efficiency_sa>  (1) 
-1.288281365635958

>  <r_i_glide_lipo>  (1) 
-0.2023273681665016

>  <r_i_glide_metal>  (1) 
-0

>  <r_i_glide_rewards>  (1) 
-2.25

>  <r_lp_Energy>  (1) 
7.4764169999999996

>  <r_lp_tautomer_probability>  (1) 
1

>  <s_epik_cmdline>  (1) 
J2VwaWtfcHl0aG9uJywgJy1waHQnLCAnMS4wJywgJy1waCcsICc3LjQnLCAnLXRuJywgJzgnLCAnLW1hJywgJzUwMCcsICctaW1hZScsICc8aW5maWxlLm1hZT4nLCAnLW9tYWUnLCAnPG91dGZpbGUubWFlPic=

>  <s_epik_input>  (1) 
W25IXTFbY0hdbltjSF1jMVtDSDNd

>  <s_glide_docking_method>  (1) 
confgen

>  <s_i_glide_gridfile>  (1) 
gpcr_drd2_6luq_protein_autoprepared_prepared

>  <s_lp_Force_Field>  (1) 
S-OPLS

>  <s_lp_Variant>  (1) 
Pocket2Mol_9-2

>  <s_m_source_file>  (1) 
generated_generic_title2_ligand_Pocket2Mol_2026-06-23_prepared.sdf

>  <GenAI_Model>  (1) 
Pocket2Mol

>  <Protein>  (1) 
generic_title2

$$$$
Pocket2Mol_12
     RDKit          3D

  0  0  0  0  0  0  0  0  0  0999 V3000
M  V30 BEGIN CTAB
M  V30 COUNTS 14 14 0 0 1
M  V30 BEGIN ATOM
M  V30 1 O 10.548932 8.674046 -5.976243 0
M  V30 2 C 11.555757 8.797196 -6.856854 0
M  V30 3 C 9.520886 7.990228 -6.793773 0
M  V30 4 C 11.349256 8.334562 -8.049417 0
M  V30 5 C 12.351813 8.378038 -9.182581 0
M  V30 6 C 10.034924 7.733050 -8.288649 0
M  V30 7 H 12.441992 9.277076 -6.468048 0
M  V30 8 H 8.612091 8.594199 -6.803761 0
M  V30 9 H 9.261538 7.044021 -6.317096 0
M  V30 10 H 12.514739 7.379120 -9.585957 0
M  V30 11 H 11.986020 9.018035 -9.985524 0
M  V30 12 H 13.311302 8.772895 -8.845271 0
M  V30 13 H 9.459478 8.279399 -9.037512 0
M  V30 14 H 10.103326 6.674901 -8.543772 0
M  V30 END ATOM
M  V30 BEGIN BOND
M  V30 1 1 2 1
M  V30 2 1 3 1
M  V30 3 2 4 2
M  V30 4 1 5 4
M  V30 5 1 6 3
M  V30 6 1 6 4
M  V30 7 1 7 2
M  V30 8 1 8 3
M  V30 9 1 9 3
M  V30 10 1 10 5
M  V30 11 1 11 5
M  V30 12 1 12 5
M  V30 13 1 13 6
M  V30 14 1 14 6
M  V30 END BOND
M  V30 END CTAB
M  END
>  <i_epik_Tot_Q>  (1) 
0

>  <i_epik_Tot_abs_Q>  (1) 
0

>  <i_i_glide_confnum>  (1) 
1

>  <i_i_glide_lignum>  (1) 
15

>  <i_i_glide_posenum>  (1) 
325

>  <i_i_glide_rotatable_bonds>  (1) 
0

>  <i_lp_mmshare_version>  (1) 
72125

>  <i_m_source_file_index>  (1) 
13

>  <i_f3d_flags>  (1) 
0

>  <num_sample>  (1) 
100

>  <b_lp_Chiralities_Consistent>  (1) 
1

>  <r_epik_Charging_Adjusted_Penalty>  (1) 
0

>  <r_epik_Ionization_Penalty>  (1) 
0

>  <r_epik_Ionization_Penalty_Charging>  (1) 
0

>  <r_epik_Ionization_Penalty_Neutral>  (1) 
0

>  <r_epik_State_Penalty>  (1) 
-0

>  <r_glide_ring_energy>  (1) 
0

>  <r_i_docking_score>  (1) 
-4.2514542033660252

>  <r_i_glide_ecoul>  (1) 
-0.75297097429975945

>  <r_i_glide_eff_state_penalty>  (1) 
-0

>  <r_i_glide_einternal>  (1) 
0

>  <r_i_glide_emodel>  (1) 
-19.518954505399215

>  <r_i_glide_emodel_strain>  (1) 
0

>  <r_i_glide_energy>  (1) 
-15.361859541101278

>  <r_i_glide_erotb>  (1) 
0

>  <r_i_glide_esite>  (1) 
0

>  <r_i_glide_evdw>  (1) 
-14.60888856680152

>  <r_i_glide_gscore>  (1) 
-4.2514542033660252

>  <r_i_glide_gscore_strain>  (1) 
0

>  <r_i_glide_hbond>  (1) 
0

>  <r_i_glide_ligand_efficiency>  (1) 
-0.70857570056100416

>  <r_i_glide_ligand_efficiency_ln>  (1) 
-1.522858344433802

>  <r_i_glide_ligand_efficiency_sa>  (1) 
-1.2875674970698607

>  <r_i_glide_lipo>  (1) 
-0.70806412888098491

>  <r_i_glide_metal>  (1) 
-0

>  <r_i_glide_rewards>  (1) 
-2.7000000000000002

>  <r_lp_Energy>  (1) 
-7.9393969999999996

>  <r_lp_tautomer_probability>  (1) 
1

>  <s_epik_cmdline>  (1) 
J2VwaWtfcHl0aG9uJywgJy1waHQnLCAnMS4wJywgJy1waCcsICc3LjQnLCAnLXRuJywgJzgnLCAnLW1hJywgJzUwMCcsICctaW1hZScsICc8aW5maWxlLm1hZT4nLCAnLW9tYWUnLCAnPG91dGZpbGUubWFlPic=

>  <s_epik_input>  (1) 
W0NIMl0xW0NIMl1PW0NIXT1DMVtDSDNd

>  <s_glide_docking_method>  (1) 
confgen

>  <s_i_glide_gridfile>  (1) 
gpcr_drd2_6luq_protein_autoprepared_prepared

>  <s_lp_Force_Field>  (1) 
S-OPLS

>  <s_lp_Variant>  (1) 
Pocket2Mol_12-1

>  <s_m_source_file>  (1) 
generated_generic_title2_ligand_Pocket2Mol_2026-06-23_prepared.sdf

>  <GenAI_Model>  (1) 
Pocket2Mol

>  <Protein>  (1) 
generic_title2

$$$$
Pocket2Mol_20
     RDKit          3D

  0  0  0  0  0  0  0  0  0  0999 V3000
M  V30 BEGIN CTAB
M  V30 COUNTS 12 12 0 0 1
M  V30 BEGIN ATOM
M  V30 1 N 7.208694 6.707151 -11.582725 0 CHG=1
M  V30 2 C 6.315419 6.717745 -12.599660 0
M  V30 3 C 6.604923 6.029233 -13.800773 0
M  V30 4 C 8.392960 6.063951 -11.662742 0
M  V30 5 O 5.712365 6.029305 -14.832769 0 CHG=-1
M  V30 6 C 7.829484 5.339226 -13.920509 0
M  V30 7 C 8.737121 5.357712 -12.838775 0
M  V30 8 H 5.404309 7.268922 -12.427707 0
M  V30 9 H 9.025001 6.130492 -10.794224 0
M  V30 10 H 6.975399 7.222260 -10.690018 0
M  V30 11 H 8.068544 4.804378 -14.830006 0
M  V30 12 H 9.682582 4.836847 -12.909986 0
M  V30 END ATOM
M  V30 BEGIN BOND
M  V30 1 1 2 1
M  V30 2 2 3 2
M  V30 3 2 4 1
M  V30 4 1 5 3
M  V30 5 1 6 3
M  V30 6 1 7 4
M  V30 7 2 7 6
M  V30 8 1 8 2
M  V30 9 1 9 4
M  V30 10 1 10 1
M  V30 11 1 11 6
M  V30 12 1 12 7
M  V30 END BOND
M  V30 END CTAB
M  END
>  <i_epik_Tot_Q>  (1) 
0

>  <i_epik_Tot_abs_Q>  (1) 
2

>  <i_i_glide_confnum>  (1) 
1

>  <i_i_glide_lignum>  (1) 
23

>  <i_i_glide_posenum>  (1) 
225

>  <i_i_glide_rotatable_bonds>  (1) 
0

>  <i_lp_mmshare_version>  (1) 
72125

>  <i_m_source_file_index>  (1) 
21

>  <i_f3d_flags>  (1) 
0

>  <num_sample>  (1) 
100

>  <b_lp_Chiralities_Consistent>  (1) 
1

>  <r_epik_Charging_Adjusted_Penalty>  (1) 
0.36510749842979956

>  <r_epik_Ionization_Penalty>  (1) 
0.025180683492302028

>  <r_epik_Ionization_Penalty_Charging>  (1) 
0.025180683492302028

>  <r_epik_Ionization_Penalty_Neutral>  (1) 
0

>  <r_epik_State_Penalty>  (1) 
0.33992681493749755

>  <r_glide_ring_energy>  (1) 
0

>  <r_i_docking_score>  (1) 
-4.248969813515572

>  <r_i_glide_ecoul>  (1) 
-9.3691923129938814

>  <r_i_glide_eff_state_penalty>  (1) 
0.33992681493749755

>  <r_i_glide_einternal>  (1) 
0

>  <r_i_glide_emodel>  (1) 
-25.230867644156387

>  <r_i_glide_emodel_strain>  (1) 
0

>  <r_i_glide_energy>  (1) 
-16.610151925745207

>  <r_i_glide_erotb>  (1) 
0

>  <r_i_glide_esite>  (1) 
-0.10000000000000001

>  <r_i_glide_evdw>  (1) 
-7.2409596127513272

>  <r_i_glide_gscore>  (1) 
-4.5888966284530692

>  <r_i_glide_gscore_strain>  (1) 
0

>  <r_i_glide_hbond>  (1) 
-0.13521929530019389

>  <r_i_glide_ligand_efficiency>  (1) 
-0.60699568764508172

>  <r_i_glide_ligand_efficiency_ln>  (1) 
-1.442328380204712

>  <r_i_glide_ligand_efficiency_sa>  (1) 
-1.1611409787046458

>  <r_i_glide_lipo>  (1) 
-0.33625050556622665

>  <r_i_glide_metal>  (1) 
-0

>  <r_i_glide_rewards>  (1) 
-2.25

>  <r_lp_Energy>  (1) 
9.275188

>  <r_lp_tautomer_probability>  (1) 
0.56342000000000003

>  <s_epik_cmdline>  (1) 
J2VwaWtfcHl0aG9uJywgJy1waHQnLCAnMS4wJywgJy1waCcsICc3LjQnLCAnLXRuJywgJzgnLCAnLW1hJywgJzUwMCcsICctaW1hZScsICc8aW5maWxlLm1hZT4nLCAnLW9tYWUnLCAnPG91dGZpbGUubWFlPic=

>  <s_epik_input>  (1) 
W2NIXTFbY0hdW2NIXW5bY0hdYzFbT0hd

>  <s_glide_docking_method>  (1) 
confgen

>  <s_i_glide_gridfile>  (1) 
gpcr_drd2_6luq_protein_autoprepared_prepared

>  <s_lp_Force_Field>  (1) 
S-OPLS

>  <s_lp_Variant>  (1) 
Pocket2Mol_20-1

>  <s_m_source_file>  (1) 
generated_generic_title2_ligand_Pocket2Mol_2026-06-23_prepared.sdf

>  <GenAI_Model>  (1) 
Pocket2Mol

>  <Protein>  (1) 
generic_title2

$$$$
Pocket2Mol_1
     RDKit          3D

  0  0  0  0  0  0  0  0  0  0999 V3000
M  V30 BEGIN CTAB
M  V30 COUNTS 10 10 0 0 1
M  V30 BEGIN ATOM
M  V30 1 N 11.375908 8.113291 -5.185802 0
M  V30 2 C 10.808833 6.937668 -5.585026 0
M  V30 3 C 10.107246 7.009862 -6.674660 0
M  V30 4 C 10.949133 8.881706 -6.147518 0
M  V30 5 C 10.029219 8.329878 -7.309067 0
M  V30 6 H 10.966132 6.045841 -4.995339 0
M  V30 7 H 9.597453 6.163013 -7.111607 0
M  V30 8 H 11.200140 9.944283 -6.204884 0
M  V30 9 H 9.026246 8.759200 -7.299023 0
M  V30 10 H 10.507660 8.373745 -8.287408 0
M  V30 END ATOM
M  V30 BEGIN BOND
M  V30 1 1 2 1
M  V30 2 2 3 2
M  V30 3 2 4 1
M  V30 4 1 5 3
M  V30 5 1 5 4
M  V30 6 1 6 2
M  V30 7 1 7 3
M  V30 8 1 8 4
M  V30 9 1 9 5
M  V30 10 1 10 5
M  V30 END BOND
M  V30 END CTAB
M  END
>  <i_epik_Tot_Q>  (1) 
0

>  <i_epik_Tot_abs_Q>  (1) 
0

>  <i_i_glide_confnum>  (1) 
1

>  <i_i_glide_lignum>  (1) 
2

>  <i_i_glide_posenum>  (1) 
207

>  <i_i_glide_rotatable_bonds>  (1) 
0

>  <i_lp_mmshare_version>  (1) 
72125

>  <i_m_source_file_index>  (1) 
2

>  <i_f3d_flags>  (1) 
0

>  <num_sample>  (1) 
100

>  <b_lp_Chiralities_Consistent>  (1) 
1

>  <r_epik_Charging_Adjusted_Penalty>  (1) 
0

>  <r_epik_Ionization_Penalty>  (1) 
0

>  <r_epik_Ionization_Penalty_Charging>  (1) 
0

>  <r_epik_Ionization_Penalty_Neutral>  (1) 
0

>  <r_epik_State_Penalty>  (1) 
-0

>  <r_glide_ring_energy>  (1) 
0

>  <r_i_docking_score>  (1) 
-4.2471793300720115

>  <r_i_glide_ecoul>  (1) 
-0.97224907047663101

>  <r_i_glide_eff_state_penalty>  (1) 
-0

>  <r_i_glide_einternal>  (1) 
0

>  <r_i_glide_emodel>  (1) 
-17.775021331453139

>  <r_i_glide_emodel_strain>  (1) 
0

>  <r_i_glide_energy>  (1) 
-13.773579448589414

>  <r_i_glide_erotb>  (1) 
0

>  <r_i_glide_esite>  (1) 
0

>  <r_i_glide_evdw>  (1) 
-12.801330378112784

>  <r_i_glide_gscore>  (1) 
-4.2471793300720115

>  <r_i_glide_gscore_strain>  (1) 
0

>  <r_i_glide_hbond>  (1) 
0

>  <r_i_glide_ligand_efficiency>  (1) 
-0.84943586601440235

>  <r_i_glide_ligand_efficiency_ln>  (1) 
-1.6276222974434427

>  <r_i_glide_ligand_efficiency_sa>  (1) 
-1.4525148991291175

>  <r_i_glide_lipo>  (1) 
-0.49304408680454936

>  <r_i_glide_metal>  (1) 
-0

>  <r_i_glide_rewards>  (1) 
-2.9682313637903288

>  <r_lp_Energy>  (1) 
-2.9532909999999997

>  <r_lp_tautomer_probability>  (1) 
1

>  <s_epik_Chemistry_Notes>  (1) 
This compound has an imine and may undergo hydrolysis.

>  <s_epik_cmdline>  (1) 
J2VwaWtfcHl0aG9uJywgJy1waHQnLCAnMS4wJywgJy1waCcsICc3LjQnLCAnLXRuJywgJzgnLCAnLW1hJywgJzUwMCcsICctaW1hZScsICc8aW5maWxlLm1hZT4nLCAnLW9tYWUnLCAnPG91dGZpbGUubWFlPic=

>  <s_epik_input>  (1) 
TjE9W0NIXVtDSDJdW0NIXT1bQ0hdMQ==

>  <s_glide_docking_method>  (1) 
confgen

>  <s_i_glide_gridfile>  (1) 
gpcr_drd2_6luq_protein_autoprepared_prepared

>  <s_lp_Force_Field>  (1) 
S-OPLS

>  <s_lp_Variant>  (1) 
Pocket2Mol_1-1

>  <s_m_source_file>  (1) 
generated_generic_title2_ligand_Pocket2Mol_2026-06-23_prepared.sdf

>  <GenAI_Model>  (1) 
Pocket2Mol

>  <Protein>  (1) 
generic_title2

$$$$
Pocket2Mol_25
     RDKit          3D

  0  0  0  0  0  0  0  0  0  0999 V3000
M  V30 BEGIN CTAB
M  V30 COUNTS 15 15 0 0 1
M  V30 BEGIN ATOM
M  V30 1 N 9.593712 5.032234 -12.031935 0 CHG=1
M  V30 2 C 8.510867 4.190393 -11.993808 0
M  V30 3 C 7.557082 4.803950 -11.192953 0
M  V30 4 C 9.343987 6.107562 -11.300786 0
M  V30 5 C 6.181428 4.390282 -10.785023 0
M  V30 6 N 10.172327 7.135578 -11.116379 0
M  V30 7 N 8.128332 5.990227 -10.785025 0
M  V30 8 H 8.492682 3.247600 -12.522587 0
M  V30 9 H 5.649779 3.960993 -11.634137 0
M  V30 10 H 6.220205 3.648367 -9.987582 0
M  V30 11 H 5.614129 5.249592 -10.424011 0
M  V30 12 H 11.088461 7.175794 -11.538093 0
M  V30 13 H 9.924700 7.932764 -10.545435 0
M  V30 14 H 7.674260 6.690188 -10.178097 0
M  V30 15 H 10.453616 4.859913 -12.543561 0
M  V30 END ATOM
M  V30 BEGIN BOND
M  V30 1 1 2 1
M  V30 2 2 3 2
M  V30 3 2 4 1
M  V30 4 1 5 3
M  V30 5 1 6 4
M  V30 6 1 7 3
M  V30 7 1 7 4
M  V30 8 1 8 2
M  V30 9 1 9 5
M  V30 10 1 10 5
M  V30 11 1 11 5
M  V30 12 1 12 6
M  V30 13 1 13 6
M  V30 14 1 14 7
M  V30 15 1 15 1
M  V30 END BOND
M  V30 END CTAB
M  END
>  <i_epik_Tot_Q>  (1) 
1

>  <i_epik_Tot_abs_Q>  (1) 
1

>  <i_i_glide_confnum>  (1) 
1

>  <i_i_glide_lignum>  (1) 
29

>  <i_i_glide_posenum>  (1) 
396

>  <i_i_glide_rotatable_bonds>  (1) 
0

>  <i_lp_mmshare_version>  (1) 
72125

>  <i_m_source_file_index>  (1) 
26

>  <i_f3d_flags>  (1) 
0

>  <num_sample>  (1) 
100

>  <b_lp_Chiralities_Consistent>  (1) 
1

>  <r_epik_Charging_Adjusted_Penalty>  (1) 
0.028937443406262361

>  <r_epik_Ionization_Penalty>  (1) 
0.025358402846536118

>  <r_epik_Ionization_Penalty_Charging>  (1) 
0

>  <r_epik_Ionization_Penalty_Neutral>  (1) 
0.025358402846536118

>  <r_epik_State_Penalty>  (1) 
0.028937443406262361

>  <r_glide_ring_energy>  (1) 
0

>  <r_i_docking_score>  (1) 
-4.2354225686926901

>  <r_i_glide_ecoul>  (1) 
-7.3746161783668471

>  <r_i_glide_eff_state_penalty>  (1) 
0.028937443406262361

>  <r_i_glide_einternal>  (1) 
0

>  <r_i_glide_emodel>  (1) 
-23.40632206115162

>  <r_i_glide_emodel_strain>  (1) 
0.027373583712750005

>  <r_i_glide_energy>  (1) 
-15.003243900362696

>  <r_i_glide_erotb>  (1) 
0

>  <r_i_glide_esite>  (1) 
-0.15505476836097529

>  <r_i_glide_evdw>  (1) 
-7.6286277219958487

>  <r_i_glide_gscore>  (1) 
-4.264360012098952

>  <r_i_glide_gscore_strain>  (1) 
0

>  <r_i_glide_hbond>  (1) 
-0.20000000000000001

>  <r_i_glide_ligand_efficiency>  (1) 
-0.60506036695609855

>  <r_i_glide_ligand_efficiency_ln>  (1) 
-1.4377297182844813

>  <r_i_glide_ligand_efficiency_sa>  (1) 
-1.1574388434100256

>  <r_i_glide_lipo>  (1) 
-0.17168143088315729

>  <r_i_glide_metal>  (1) 
-0

>  <r_i_glide_rewards>  (1) 
-2.25

>  <r_lp_Energy>  (1) 
-0.73901799999999995

>  <r_lp_tautomer_probability>  (1) 
0.99999998112300037

>  <s_epik_cmdline>  (1) 
J2VwaWtfcHl0aG9uJywgJy1waHQnLCAnMS4wJywgJy1waCcsICc3LjQnLCAnLXRuJywgJzgnLCAnLW1hJywgJzUwMCcsICctaW1hZScsICc8aW5maWxlLm1hZT4nLCAnLW9tYWUnLCAnPG91dGZpbGUubWFlPic=

>  <s_epik_input>  (1) 
W05IMl1jKFtuSF0xKW5bY0hdYzFbQ0gzXQ==

>  <s_glide_docking_method>  (1) 
confgen

>  <s_i_glide_gridfile>  (1) 
gpcr_drd2_6luq_protein_autoprepared_prepared

>  <s_lp_Force_Field>  (1) 
S-OPLS

>  <s_lp_Variant>  (1) 
Pocket2Mol_25-1

>  <s_m_source_file>  (1) 
generated_generic_title2_ligand_Pocket2Mol_2026-06-23_prepared.sdf

>  <GenAI_Model>  (1) 
Pocket2Mol

>  <Protein>  (1) 
generic_title2

$$$$
Pocket2Mol_99
     RDKit          3D

  0  0  0  0  0  0  0  0  0  0999 V3000
M  V30 BEGIN CTAB
M  V30 COUNTS 11 11 0 0 1
M  V30 BEGIN ATOM
M  V30 1 O 11.838411 9.566223 -2.784214 0
M  V30 2 C 12.175410 8.785884 -3.907540 0
M  V30 3 C 12.071016 7.348026 -3.379737 0
M  V30 4 C 12.241516 8.790227 -1.713916 0
M  V30 5 O 11.889461 7.485974 -1.985035 0
M  V30 6 H 11.503120 8.981297 -4.743309 0
M  V30 7 H 13.195110 9.018057 -4.218447 0
M  V30 8 H 11.231558 6.803200 -3.813642 0
M  V30 9 H 12.975413 6.790227 -3.584961 0
M  V30 10 H 13.326503 8.847466 -1.600713 0
M  V30 11 H 11.775410 9.135161 -0.791186 0
M  V30 END ATOM
M  V30 BEGIN BOND
M  V30 1 1 2 1
M  V30 2 1 3 2
M  V30 3 1 4 1
M  V30 4 1 5 3
M  V30 5 1 5 4
M  V30 6 1 6 2
M  V30 7 1 7 2
M  V30 8 1 8 3
M  V30 9 1 9 3
M  V30 10 1 10 4
M  V30 11 1 11 4
M  V30 END BOND
M  V30 END CTAB
M  END
>  <i_epik_Tot_Q>  (1) 
0

>  <i_epik_Tot_abs_Q>  (1) 
0

>  <i_i_glide_confnum>  (1) 
1

>  <i_i_glide_lignum>  (1) 
108

>  <i_i_glide_posenum>  (1) 
33

>  <i_i_glide_rotatable_bonds>  (1) 
0

>  <i_lp_mmshare_version>  (1) 
72125

>  <i_m_source_file_index>  (1) 
100

>  <i_f3d_flags>  (1) 
0

>  <num_sample>  (1) 
100

>  <b_lp_Chiralities_Consistent>  (1) 
1

>  <r_epik_Charging_Adjusted_Penalty>  (1) 
0

>  <r_epik_Ionization_Penalty>  (1) 
7.9724310449397378e-14

>  <r_epik_Ionization_Penalty_Charging>  (1) 
0

>  <r_epik_Ionization_Penalty_Neutral>  (1) 
7.9724310449397378e-14

>  <r_epik_State_Penalty>  (1) 
-0

>  <r_glide_ring_energy>  (1) 
0

>  <r_i_docking_score>  (1) 
-4.2352339294161307

>  <r_i_glide_ecoul>  (1) 
-0.89898553612126941

>  <r_i_glide_eff_state_penalty>  (1) 
-0

>  <r_i_glide_einternal>  (1) 
0

>  <r_i_glide_emodel>  (1) 
-16.48494295623906

>  <r_i_glide_emodel_strain>  (1) 
0.14926209824816361

>  <r_i_glide_energy>  (1) 
-12.969533906086992

>  <r_i_glide_erotb>  (1) 
0

>  <r_i_glide_esite>  (1) 
0

>  <r_i_glide_evdw>  (1) 
-12.070548369965723

>  <r_i_glide_gscore>  (1) 
-4.2352339294161307

>  <r_i_glide_gscore_strain>  (1) 
0

>  <r_i_glide_hbond>  (1) 
0

>  <r_i_glide_ligand_efficiency>  (1) 
-0.84704678588322613

>  <r_i_glide_ligand_efficiency_ln>  (1) 
-1.6230445297184624

>  <r_i_glide_ligand_efficiency_sa>  (1) 
-1.4484296295701231

>  <r_i_glide_lipo>  (1) 
-0.66000000000000003

>  <r_i_glide_metal>  (1) 
-0

>  <r_i_glide_rewards>  (1) 
-2.8368586804996538

>  <r_lp_Energy>  (1) 
-12.242958999999999

>  <r_lp_tautomer_probability>  (1) 
1

>  <s_epik_Chemistry_Notes>  (1) 
This compound contains an acetal/aminal-like group ( X-CH(R)-Y where X, Y are N, S, or O) that may be acid/base labile, releasing an aldehyde.

>  <s_epik_cmdline>  (1) 
J2VwaWtfcHl0aG9uJywgJy1waHQnLCAnMS4wJywgJy1waCcsICc3LjQnLCAnLXRuJywgJzgnLCAnLW1hJywgJzUwMCcsICctaW1hZScsICc8aW5maWxlLm1hZT4nLCAnLW9tYWUnLCAnPG91dGZpbGUubWFlPic=

>  <s_epik_input>  (1) 
TzFbQ0gyXVtDSDJdT1tDSDJdMQ==

>  <s_glide_docking_method>  (1) 
confgen

>  <s_i_glide_gridfile>  (1) 
gpcr_drd2_6luq_protein_autoprepared_prepared

>  <s_lp_Force_Field>  (1) 
S-OPLS

>  <s_lp_Variant>  (1) 
Pocket2Mol_99-1

>  <s_m_source_file>  (1) 
generated_generic_title2_ligand_Pocket2Mol_2026-06-23_prepared.sdf

>  <GenAI_Model>  (1) 
Pocket2Mol

>  <Protein>  (1) 
generic_title2

$$$$
Pocket2Mol_22
     RDKit          3D

  0  0  0  0  0  0  0  0  0  0999 V3000
M  V30 BEGIN CTAB
M  V30 COUNTS 9 9 0 0 1
M  V30 BEGIN ATOM
M  V30 1 C 12.004732 9.190207 -4.446973 0
M  V30 2 O 11.775410 7.843458 -4.385026 0
M  V30 3 C 10.975424 7.553196 -5.458272 0
M  V30 4 C 11.375410 9.742672 -5.525863 0
M  V30 5 C 10.706145 8.678596 -6.182872 0
M  V30 6 H 12.627383 9.587399 -3.658278 0
M  V30 7 H 10.694387 6.513951 -5.555532 0
M  V30 8 H 11.394126 10.785772 -5.805901 0
M  V30 9 H 10.099373 8.728209 -7.076019 0
M  V30 END ATOM
M  V30 BEGIN BOND
M  V30 1 1 2 1
M  V30 2 1 3 2
M  V30 3 2 4 1
M  V30 4 2 5 3
M  V30 5 1 5 4
M  V30 6 1 6 1
M  V30 7 1 7 3
M  V30 8 1 8 4
M  V30 9 1 9 5
M  V30 END BOND
M  V30 END CTAB
M  END
>  <i_epik_Tot_Q>  (1) 
0

>  <i_epik_Tot_abs_Q>  (1) 
0

>  <i_i_glide_confnum>  (1) 
1

>  <i_i_glide_lignum>  (1) 
26

>  <i_i_glide_posenum>  (1) 
193

>  <i_i_glide_rotatable_bonds>  (1) 
0

>  <i_lp_mmshare_version>  (1) 
72125

>  <i_m_source_file_index>  (1) 
23

>  <i_f3d_flags>  (1) 
0

>  <num_sample>  (1) 
100

>  <b_lp_Chiralities_Consistent>  (1) 
1

>  <r_epik_Charging_Adjusted_Penalty>  (1) 
0

>  <r_epik_Ionization_Penalty>  (1) 
0

>  <r_epik_Ionization_Penalty_Charging>  (1) 
0

>  <r_epik_Ionization_Penalty_Neutral>  (1) 
0

>  <r_epik_State_Penalty>  (1) 
-0

>  <r_glide_ring_energy>  (1) 
0

>  <r_i_docking_score>  (1) 
-4.2313209289552471

>  <r_i_glide_ecoul>  (1) 
-0.75097599287412409

>  <r_i_glide_eff_state_penalty>  (1) 
-0

>  <r_i_glide_einternal>  (1) 
0

>  <r_i_glide_emodel>  (1) 
-15.81178135837437

>  <r_i_glide_emodel_strain>  (1) 
0

>  <r_i_glide_energy>  (1) 
-12.542804513983651

>  <r_i_glide_erotb>  (1) 
0

>  <r_i_glide_esite>  (1) 
0

>  <r_i_glide_evdw>  (1) 
-11.791828521109526

>  <r_i_glide_gscore>  (1) 
-4.2313209289552471

>  <r_i_glide_gscore_strain>  (1) 
0

>  <r_i_glide_hbond>  (1) 
0

>  <r_i_glide_ligand_efficiency>  (1) 
-0.84626418579104945

>  <r_i_glide_ligand_efficiency_ln>  (1) 
-1.6215449728820119

>  <r_i_glide_ligand_efficiency_sa>  (1) 
-1.4470914022366339

>  <r_i_glide_lipo>  (1) 
-1.1446471272140004

>  <r_i_glide_metal>  (1) 
-0

>  <r_i_glide_rewards>  (1) 
-2.3844359767546521

>  <r_lp_Energy>  (1) 
2.5980879999999997

>  <r_lp_tautomer_probability>  (1) 
1

>  <s_epik_cmdline>  (1) 
J2VwaWtfcHl0aG9uJywgJy1waHQnLCAnMS4wJywgJy1waCcsICc3LjQnLCAnLXRuJywgJzgnLCAnLW1hJywgJzUwMCcsICctaW1hZScsICc8aW5maWxlLm1hZT4nLCAnLW9tYWUnLCAnPG91dGZpbGUubWFlPic=

>  <s_epik_input>  (1) 
W2NIXTFvW2NIXVtjSF1bY0hdMQ==

>  <s_glide_docking_method>  (1) 
confgen

>  <s_i_glide_gridfile>  (1) 
gpcr_drd2_6luq_protein_autoprepared_prepared

>  <s_lp_Force_Field>  (1) 
S-OPLS

>  <s_lp_Variant>  (1) 
Pocket2Mol_22-1

>  <s_m_source_file>  (1) 
generated_generic_title2_ligand_Pocket2Mol_2026-06-23_prepared.sdf

>  <GenAI_Model>  (1) 
Pocket2Mol

>  <Protein>  (1) 
generic_title2

$$$$
Pocket2Mol_5
     RDKit          3D

  0  0  0  0  0  0  0  0  0  0999 V3000
M  V30 BEGIN CTAB
M  V30 COUNTS 16 16 0 0 1
M  V30 BEGIN ATOM
M  V30 1 C 11.625531 8.545889 -7.408386 0
M  V30 2 O 10.672959 8.401973 -8.456750 0
M  V30 3 C 10.163667 7.077319 -8.582025 0
M  V30 4 C 9.456763 6.651054 -7.285522 0
M  V30 5 C 10.402922 6.790227 -6.089389 0
M  V30 6 C 10.975410 8.210119 -6.056829 0
M  V30 7 H 12.488695 7.905401 -7.597062 0
M  V30 8 H 11.985719 9.574098 -7.400839 0
M  V30 9 H 9.462519 7.046298 -9.416542 0
M  V30 10 H 10.975411 6.390227 -8.820852 0
M  V30 11 H 8.575411 7.275022 -7.131598 0
M  V30 12 H 9.097467 5.625177 -7.370060 0
M  V30 13 H 9.874515 6.565620 -5.163088 0
M  V30 14 H 11.212607 6.063853 -6.172813 0
M  V30 15 H 11.702008 8.307114 -5.249773 0
M  V30 16 H 10.176924 8.923878 -5.849931 0
M  V30 END ATOM
M  V30 BEGIN BOND
M  V30 1 1 2 1
M  V30 2 1 3 2
M  V30 3 1 4 3
M  V30 4 1 5 4
M  V30 5 1 6 1
M  V30 6 1 6 5
M  V30 7 1 7 1
M  V30 8 1 8 1
M  V30 9 1 9 3
M  V30 10 1 10 3
M  V30 11 1 11 4
M  V30 12 1 12 4
M  V30 13 1 13 5
M  V30 14 1 14 5
M  V30 15 1 15 6
M  V30 16 1 16 6
M  V30 END BOND
M  V30 END CTAB
M  END
>  <i_epik_Tot_Q>  (1) 
0

>  <i_epik_Tot_abs_Q>  (1) 
0

>  <i_i_glide_confnum>  (1) 
1

>  <i_i_glide_lignum>  (1) 
6

>  <i_i_glide_posenum>  (1) 
168

>  <i_i_glide_rotatable_bonds>  (1) 
0

>  <i_lp_mmshare_version>  (1) 
72125

>  <i_m_source_file_index>  (1) 
6

>  <i_f3d_flags>  (1) 
0

>  <num_sample>  (1) 
100

>  <b_lp_Chiralities_Consistent>  (1) 
1

>  <r_epik_Charging_Adjusted_Penalty>  (1) 
0

>  <r_epik_Ionization_Penalty>  (1) 
1.5229185111393156e-11

>  <r_epik_Ionization_Penalty_Charging>  (1) 
0

>  <r_epik_Ionization_Penalty_Neutral>  (1) 
1.5229185111393156e-11

>  <r_epik_State_Penalty>  (1) 
-0

>  <r_glide_ring_energy>  (1) 
0

>  <r_i_docking_score>  (1) 
-4.2200339832359699

>  <r_i_glide_ecoul>  (1) 
-0.20581617080624637

>  <r_i_glide_eff_state_penalty>  (1) 
-0

>  <r_i_glide_einternal>  (1) 
0

>  <r_i_glide_emodel>  (1) 
-18.385701864744828

>  <r_i_glide_emodel_strain>  (1) 
0

>  <r_i_glide_energy>  (1) 
-14.367393248270863

>  <r_i_glide_erotb>  (1) 
0

>  <r_i_glide_esite>  (1) 
0

>  <r_i_glide_evdw>  (1) 
-14.161577077464617

>  <r_i_glide_gscore>  (1) 
-4.2200339832359699

>  <r_i_glide_gscore_strain>  (1) 
0

>  <r_i_glide_hbond>  (1) 
0

>  <r_i_glide_ligand_efficiency>  (1) 
-0.70333899720599502

>  <r_i_glide_ligand_efficiency_ln>  (1) 
-1.5116037143424985

>  <r_i_glide_ligand_efficiency_sa>  (1) 
-1.2780517755649203

>  <r_i_glide_lipo>  (1) 
-0.78841314421950393

>  <r_i_glide_metal>  (1) 
-0

>  <r_i_glide_rewards>  (1) 
-2.6926695595222978

>  <r_lp_Energy>  (1) 
2.9645999999999999

>  <r_lp_tautomer_probability>  (1) 
1

>  <s_epik_cmdline>  (1) 
J2VwaWtfcHl0aG9uJywgJy1waHQnLCAnMS4wJywgJy1waCcsICc3LjQnLCAnLXRuJywgJzgnLCAnLW1hJywgJzUwMCcsICctaW1hZScsICc8aW5maWxlLm1hZT4nLCAnLW9tYWUnLCAnPG91dGZpbGUubWFlPic=

>  <s_epik_input>  (1) 
W0NIMl0xT1tDSDJdW0NIMl1bQ0gyXVtDSDJdMQ==

>  <s_glide_docking_method>  (1) 
confgen

>  <s_i_glide_gridfile>  (1) 
gpcr_drd2_6luq_protein_autoprepared_prepared

>  <s_lp_Force_Field>  (1) 
S-OPLS

>  <s_lp_Variant>  (1) 
Pocket2Mol_5-1

>  <s_m_source_file>  (1) 
generated_generic_title2_ligand_Pocket2Mol_2026-06-23_prepared.sdf

>  <GenAI_Model>  (1) 
Pocket2Mol

>  <Protein>  (1) 
generic_title2

$$$$
Pocket2Mol_14
     RDKit          3D

  0  0  0  0  0  0  0  0  0  0999 V3000
M  V30 BEGIN CTAB
M  V30 COUNTS 17 17 0 0 1
M  V30 BEGIN ATOM
M  V30 1 C 10.064271 7.057008 -6.884017 0
M  V30 2 O 11.375289 7.543692 -6.620963 0
M  V30 3 C 11.665057 8.790191 -7.249309 0
M  V30 4 C 11.496361 8.718990 -8.784106 0 CFG=1
M  V30 5 O 12.609558 8.076520 -9.373198 0
M  V30 6 C 9.921992 6.772973 -8.384394 0
M  V30 7 C 10.175568 8.050075 -9.191899 0
M  V30 8 H 9.907325 6.141395 -6.313555 0
M  V30 9 H 9.314551 7.775024 -6.546468 0
M  V30 10 H 12.675326 9.104567 -6.985587 0
M  V30 11 H 10.993568 9.542363 -6.832378 0
M  V30 12 H 11.502623 9.733036 -9.184942 0
M  V30 13 H 13.359771 8.647757 -9.288894 0
M  V30 14 H 10.627269 5.996673 -8.680628 0
M  V30 15 H 8.923549 6.390226 -8.599958 0
M  V30 16 H 9.356525 8.745188 -9.002150 0
M  V30 17 H 10.154447 7.842526 -10.262231 0
M  V30 END ATOM
M  V30 BEGIN BOND
M  V30 1 1 2 1
M  V30 2 1 3 2
M  V30 3 1 4 3
M  V30 4 1 5 4
M  V30 5 1 6 1
M  V30 6 1 7 4
M  V30 7 1 7 6
M  V30 8 1 8 1
M  V30 9 1 9 1
M  V30 10 1 10 3
M  V30 11 1 11 3
M  V30 12 1 4 12 CFG=3
M  V30 13 1 13 5
M  V30 14 1 14 6
M  V30 15 1 15 6
M  V30 16 1 16 7
M  V30 17 1 17 7
M  V30 END BOND
M  V30 END CTAB
M  END
>  <i_epik_Tot_Q>  (1) 
0

>  <i_epik_Tot_abs_Q>  (1) 
0

>  <i_i_glide_confnum>  (1) 
2

>  <i_i_glide_lignum>  (1) 
17

>  <i_i_glide_posenum>  (1) 
233

>  <i_i_glide_rotatable_bonds>  (1) 
1

>  <i_lp_mmshare_version>  (1) 
72125

>  <i_m_source_file_index>  (1) 
15

>  <i_f3d_flags>  (1) 
0

>  <num_sample>  (1) 
100

>  <b_lp_Chiralities_Consistent>  (1) 
1

>  <r_epik_Charging_Adjusted_Penalty>  (1) 
0

>  <r_epik_Ionization_Penalty>  (1) 
4.2263924331700322e-08

>  <r_epik_Ionization_Penalty_Charging>  (1) 
0

>  <r_epik_Ionization_Penalty_Neutral>  (1) 
4.2263924331700322e-08

>  <r_epik_State_Penalty>  (1) 
-0

>  <r_glide_ring_energy>  (1) 
0.68055942654544588

>  <r_i_docking_score>  (1) 
-4.2077838561159693

>  <r_i_glide_ecoul>  (1) 
-2.0101565407350828

>  <r_i_glide_eff_state_penalty>  (1) 
-0

>  <r_i_glide_einternal>  (1) 
0.47681536679412234

>  <r_i_glide_emodel>  (1) 
-22.982514427887139

>  <r_i_glide_emodel_strain>  (1) 
0

>  <r_i_glide_energy>  (1) 
-17.886491142445944

>  <r_i_glide_erotb>  (1) 
0

>  <r_i_glide_esite>  (1) 
0

>  <r_i_glide_evdw>  (1) 
-15.876334601710861

>  <r_i_glide_gscore>  (1) 
-4.2077838561159693

>  <r_i_glide_gscore_strain>  (1) 
0

>  <r_i_glide_hbond>  (1) 
0

>  <r_i_glide_ligand_efficiency>  (1) 
-0.6011119794451385

>  <r_i_glide_ligand_efficiency_ln>  (1) 
-1.4283476559749488

>  <r_i_glide_ligand_efficiency_sa>  (1) 
-1.1498858498186408

>  <r_i_glide_lipo>  (1) 
-0.5511947115656658

>  <r_i_glide_metal>  (1) 
-0

>  <r_i_glide_rewards>  (1) 
-2.5612489333544981

>  <r_lp_Energy>  (1) 
6.7642049999999996

>  <r_lp_tautomer_probability>  (1) 
1

>  <s_epik_cmdline>  (1) 
J2VwaWtfcHl0aG9uJywgJy1waHQnLCAnMS4wJywgJy1waCcsICc3LjQnLCAnLXRuJywgJzgnLCAnLW1hJywgJzUwMCcsICctaW1hZScsICc8aW5maWxlLm1hZT4nLCAnLW9tYWUnLCAnPG91dGZpbGUubWFlPic=

>  <s_epik_input>  (1) 
W0NIMl0xW0NIMl1bQ0gyXU9bQ0gyXVtDQEhdMVtPSF0=

>  <s_glide_docking_method>  (1) 
confgen

>  <s_i_glide_gridfile>  (1) 
gpcr_drd2_6luq_protein_autoprepared_prepared

>  <s_lp_Force_Field>  (1) 
S-OPLS

>  <s_lp_Variant>  (1) 
Pocket2Mol_14-1

>  <s_m_source_file>  (1) 
generated_generic_title2_ligand_Pocket2Mol_2026-06-23_prepared.sdf

>  <GenAI_Model>  (1) 
Pocket2Mol

>  <Protein>  (1) 
generic_title2

$$$$
Pocket2Mol_2
     RDKit          3D

  0  0  0  0  0  0  0  0  0  0999 V3000
M  V30 BEGIN CTAB
M  V30 COUNTS 10 10 0 0 1
M  V30 BEGIN ATOM
M  V30 1 N 12.395985 9.112460 -3.188301 0
M  V30 2 C 11.775410 9.379718 -4.385025 0
M  V30 3 C 11.375410 8.177895 -4.905884 0
M  V30 4 C 11.775403 7.152912 -3.984919 0
M  V30 5 C 12.403891 7.764312 -2.932004 0
M  V30 6 H 12.794551 9.814849 -2.576430 0
M  V30 7 H 11.674837 10.390227 -4.752297 0
M  V30 8 H 10.853967 8.045079 -5.843032 0
M  V30 9 H 11.616851 6.088417 -4.085389 0
M  V30 10 H 12.850880 7.366835 -2.032731 0
M  V30 END ATOM
M  V30 BEGIN BOND
M  V30 1 1 2 1
M  V30 2 2 3 2
M  V30 3 1 4 3
M  V30 4 1 5 1
M  V30 5 2 5 4
M  V30 6 1 6 1
M  V30 7 1 7 2
M  V30 8 1 8 3
M  V30 9 1 9 4
M  V30 10 1 10 5
M  V30 END BOND
M  V30 END CTAB
M  END
>  <i_epik_Tot_Q>  (1) 
0

>  <i_epik_Tot_abs_Q>  (1) 
0

>  <i_i_glide_confnum>  (1) 
1

>  <i_i_glide_lignum>  (1) 
3

>  <i_i_glide_posenum>  (1) 
337

>  <i_i_glide_rotatable_bonds>  (1) 
0

>  <i_lp_mmshare_version>  (1) 
72125

>  <i_m_source_file_index>  (1) 
3

>  <i_f3d_flags>  (1) 
0

>  <num_sample>  (1) 
100

>  <b_lp_Chiralities_Consistent>  (1) 
1

>  <r_epik_Charging_Adjusted_Penalty>  (1) 
0

>  <r_epik_Ionization_Penalty>  (1) 
4.7655302421719939e-09

>  <r_epik_Ionization_Penalty_Charging>  (1) 
0

>  <r_epik_Ionization_Penalty_Neutral>  (1) 
4.7655302421719939e-09

>  <r_epik_State_Penalty>  (1) 
-0

>  <r_glide_ring_energy>  (1) 
0

>  <r_i_docking_score>  (1) 
-4.2045118102745

>  <r_i_glide_ecoul>  (1) 
-1.5231969610317992

>  <r_i_glide_eff_state_penalty>  (1) 
-0

>  <r_i_glide_einternal>  (1) 
0

>  <r_i_glide_emodel>  (1) 
-17.421931803795339

>  <r_i_glide_emodel_strain>  (1) 
0

>  <r_i_glide_energy>  (1) 
-13.002328228774084

>  <r_i_glide_erotb>  (1) 
0

>  <r_i_glide_esite>  (1) 
0

>  <r_i_glide_evdw>  (1) 
-11.479131267742286

>  <r_i_glide_gscore>  (1) 
-4.2045118102745

>  <r_i_glide_gscore_strain>  (1) 
0

>  <r_i_glide_hbond>  (1) 
-0.17276322430298635

>  <r_i_glide_ligand_efficiency>  (1) 
-0.84090236205489999

>  <r_i_glide_ligand_efficiency_ln>  (1) 
-1.6112710673205879

>  <r_i_glide_ligand_efficiency_sa>  (1) 
-1.4379228126174983

>  <r_i_glide_lipo>  (1) 
-0.97931247842962954

>  <r_i_glide_metal>  (1) 
-0

>  <r_i_glide_rewards>  (1) 
-2.25

>  <r_lp_Energy>  (1) 
2.9132020000000001

>  <r_lp_tautomer_probability>  (1) 
1

>  <s_epik_cmdline>  (1) 
J2VwaWtfcHl0aG9uJywgJy1waHQnLCAnMS4wJywgJy1waCcsICc3LjQnLCAnLXRuJywgJzgnLCAnLW1hJywgJzUwMCcsICctaW1hZScsICc8aW5maWxlLm1hZT4nLCAnLW9tYWUnLCAnPG91dGZpbGUubWFlPic=

>  <s_epik_input>  (1) 
W25IXTFbY0hdW2NIXVtjSF1bY0hdMQ==

>  <s_glide_docking_method>  (1) 
confgen

>  <s_i_glide_gridfile>  (1) 
gpcr_drd2_6luq_protein_autoprepared_prepared

>  <s_lp_Force_Field>  (1) 
S-OPLS

>  <s_lp_Variant>  (1) 
Pocket2Mol_2-1

>  <s_m_source_file>  (1) 
generated_generic_title2_ligand_Pocket2Mol_2026-06-23_prepared.sdf

>  <GenAI_Model>  (1) 
Pocket2Mol

>  <Protein>  (1) 
generic_title2

$$$$
Pocket2Mol_74
     RDKit          3D

  0  0  0  0  0  0  0  0  0  0999 V3000
M  V30 BEGIN CTAB
M  V30 COUNTS 20 21 0 0 1
M  V30 BEGIN ATOM
M  V30 1 C 9.836521 8.181647 -7.179857 0
M  V30 2 O 11.104471 8.068880 -7.810026 0
M  V30 3 C 9.375410 6.790228 -6.785025 0
M  V30 4 O 9.849050 5.838660 -7.710447 0
M  V30 5 C 11.170077 8.035043 -9.158510 0
M  V30 6 C 9.542412 6.045869 -9.031285 0
M  V30 7 C 8.619516 5.190221 -9.662270 0
M  V30 8 O 11.950789 8.728804 -9.807116 0
M  V30 9 C 10.175410 7.083955 -9.785568 0
M  V30 10 C 9.880537 7.217691 -11.161595 0
M  V30 11 C 8.958072 6.352179 -11.778009 0
M  V30 12 C 8.326256 5.343940 -11.029371 0
M  V30 13 H 9.111766 8.650615 -7.848876 0
M  V30 14 H 9.910505 8.821096 -6.300443 0
M  V30 15 H 8.292195 6.735591 -6.686166 0
M  V30 16 H 9.793753 6.528580 -5.812908 0
M  V30 17 H 8.140125 4.406293 -9.095417 0
M  V30 18 H 10.357706 7.990227 -11.742910 0
M  V30 19 H 8.733373 6.463871 -12.828332 0
M  V30 20 H 7.618420 4.682187 -11.505771 0
M  V30 END ATOM
M  V30 BEGIN BOND
M  V30 1 1 2 1
M  V30 2 1 3 1
M  V30 3 1 4 3
M  V30 4 1 5 2
M  V30 5 1 6 4
M  V30 6 2 7 6
M  V30 7 2 8 5
M  V30 8 1 9 5
M  V30 9 1 9 6
M  V30 10 2 10 9
M  V30 11 1 11 10
M  V30 12 1 12 7
M  V30 13 2 12 11
M  V30 14 1 13 1
M  V30 15 1 14 1
M  V30 16 1 15 3
M  V30 17 1 16 3
M  V30 18 1 17 7
M  V30 19 1 18 10
M  V30 20 1 19 11
M  V30 21 1 20 12
M  V30 END BOND
M  V30 END CTAB
M  END
>  <i_epik_Tot_Q>  (1) 
0

>  <i_epik_Tot_abs_Q>  (1) 
0

>  <i_i_glide_confnum>  (1) 
3

>  <i_i_glide_lignum>  (1) 
81

>  <i_i_glide_posenum>  (1) 
40

>  <i_i_glide_rotatable_bonds>  (1) 
0

>  <i_lp_mmshare_version>  (1) 
72125

>  <i_m_source_file_index>  (1) 
75

>  <i_f3d_flags>  (1) 
0

>  <num_sample>  (1) 
100

>  <b_lp_Chiralities_Consistent>  (1) 
1

>  <r_epik_Charging_Adjusted_Penalty>  (1) 
0

>  <r_epik_Ionization_Penalty>  (1) 
6.5779134034160639e-16

>  <r_epik_Ionization_Penalty_Charging>  (1) 
0

>  <r_epik_Ionization_Penalty_Neutral>  (1) 
6.5779134034160639e-16

>  <r_epik_State_Penalty>  (1) 
-0

>  <r_glide_ring_energy>  (1) 
0.44146003504328241

>  <r_i_docking_score>  (1) 
-4.2043516254934836

>  <r_i_glide_ecoul>  (1) 
0.2730550486181933

>  <r_i_glide_eff_state_penalty>  (1) 
-0

>  <r_i_glide_einternal>  (1) 
0

>  <r_i_glide_emodel>  (1) 
-28.72678430106464

>  <r_i_glide_emodel_strain>  (1) 
0

>  <r_i_glide_energy>  (1) 
-22.515385752929564

>  <r_i_glide_erotb>  (1) 
0

>  <r_i_glide_esite>  (1) 
0

>  <r_i_glide_evdw>  (1) 
-22.788440801547758

>  <r_i_glide_gscore>  (1) 
-4.2043516254934836

>  <r_i_glide_gscore_strain>  (1) 
0

>  <r_i_glide_hbond>  (1) 
0

>  <r_i_glide_ligand_efficiency>  (1) 
-0.35036263545779028

>  <r_i_glide_ligand_efficiency_ln>  (1) 
-1.2064459820607389

>  <r_i_glide_ligand_efficiency_sa>  (1) 
-0.80213019773410721

>  <r_i_glide_lipo>  (1) 
0

>  <r_i_glide_metal>  (1) 
-0

>  <r_i_glide_rewards>  (1) 
-3.1058878427088241

>  <r_lp_Energy>  (1) 
17.344456999999998

>  <r_lp_tautomer_probability>  (1) 
1

>  <s_epik_Chemistry_Notes>  (1) 
This compound has an ester and may undergo hydrolysis at high or low pH.

>  <s_epik_cmdline>  (1) 
J2VwaWtfcHl0aG9uJywgJy1waHQnLCAnMS4wJywgJy1waCcsICc3LjQnLCAnLXRuJywgJzgnLCAnLW1hJywgJzUwMCcsICctaW1hZScsICc8aW5maWxlLm1hZT4nLCAnLW9tYWUnLCAnPG91dGZpbGUubWFlPic=

>  <s_epik_input>  (1) 
TzFbQ0gyXVtDSDJdT0MoPU8pYyhjMTIpW2NIXVtjSF1bY0hdW2NIXTI=

>  <s_glide_docking_method>  (1) 
confgen

>  <s_i_glide_gridfile>  (1) 
gpcr_drd2_6luq_protein_autoprepared_prepared

>  <s_lp_Force_Field>  (1) 
S-OPLS

>  <s_lp_Variant>  (1) 
Pocket2Mol_74-1

>  <s_m_source_file>  (1) 
generated_generic_title2_ligand_Pocket2Mol_2026-06-23_prepared.sdf

>  <GenAI_Model>  (1) 
Pocket2Mol

>  <Protein>  (1) 
generic_title2

$$$$
Pocket2Mol_7
     RDKit          3D

  0  0  0  0  0  0  0  0  0  0999 V3000
M  V30 BEGIN CTAB
M  V30 COUNTS 11 11 0 0 1
M  V30 BEGIN ATOM
M  V30 1 N 10.588900 8.789918 -6.148245 0
M  V30 2 C 11.766601 9.000650 -6.783378 0
M  V30 3 C 12.020824 8.588982 -8.106338 0
M  V30 4 C 11.006657 7.925836 -8.811999 0
M  V30 5 C 9.782480 7.698296 -8.168613 0
M  V30 6 C 9.619614 8.145205 -6.844057 0
M  V30 7 H 12.529308 9.514189 -6.217015 0
M  V30 8 H 12.978157 8.782283 -8.568931 0
M  V30 9 H 11.165143 7.597473 -9.828572 0
M  V30 10 H 8.975417 7.190675 -8.680424 0
M  V30 11 H 8.685337 7.984578 -6.327145 0
M  V30 END ATOM
M  V30 BEGIN BOND
M  V30 1 2 2 1
M  V30 2 1 3 2
M  V30 3 2 4 3
M  V30 4 1 5 4
M  V30 5 1 6 1
M  V30 6 2 6 5
M  V30 7 1 7 2
M  V30 8 1 8 3
M  V30 9 1 9 4
M  V30 10 1 10 5
M  V30 11 1 11 6
M  V30 END BOND
M  V30 END CTAB
M  END
>  <i_epik_Tot_Q>  (1) 
0

>  <i_epik_Tot_abs_Q>  (1) 
0

>  <i_i_glide_confnum>  (1) 
1

>  <i_i_glide_lignum>  (1) 
8

>  <i_i_glide_posenum>  (1) 
299

>  <i_i_glide_rotatable_bonds>  (1) 
0

>  <i_lp_mmshare_version>  (1) 
72125

>  <i_m_source_file_index>  (1) 
8

>  <i_f3d_flags>  (1) 
0

>  <num_sample>  (1) 
100

>  <b_lp_Chiralities_Consistent>  (1) 
1

>  <r_epik_Charging_Adjusted_Penalty>  (1) 
0

>  <r_epik_Ionization_Penalty>  (1) 
0.0028947865417402485

>  <r_epik_Ionization_Penalty_Charging>  (1) 
0

>  <r_epik_Ionization_Penalty_Neutral>  (1) 
0.0028947865417402485

>  <r_epik_State_Penalty>  (1) 
-0

>  <r_glide_ring_energy>  (1) 
0

>  <r_i_docking_score>  (1) 
-4.1968844429064536

>  <r_i_glide_ecoul>  (1) 
-1.2743398697933581

>  <r_i_glide_eff_state_penalty>  (1) 
-0

>  <r_i_glide_einternal>  (1) 
0

>  <r_i_glide_emodel>  (1) 
-18.784084527393876

>  <r_i_glide_emodel_strain>  (1) 
0

>  <r_i_glide_energy>  (1) 
-14.800723417512753

>  <r_i_glide_erotb>  (1) 
0

>  <r_i_glide_esite>  (1) 
0

>  <r_i_glide_evdw>  (1) 
-13.526383547719394

>  <r_i_glide_gscore>  (1) 
-4.1968844429064536

>  <r_i_glide_gscore_strain>  (1) 
0

>  <r_i_glide_hbond>  (1) 
0

>  <r_i_glide_ligand_efficiency>  (1) 
-0.69948074048440889

>  <r_i_glide_ligand_efficiency_ln>  (1) 
-1.5033116173389134

>  <r_i_glide_ligand_efficiency_sa>  (1) 
-1.2710408578236934

>  <r_i_glide_lipo>  (1) 
-0.64608095171814683

>  <r_i_glide_metal>  (1) 
-0

>  <r_i_glide_rewards>  (1) 
-2.6833333333333336

>  <r_lp_Energy>  (1) 
11.088944

>  <r_lp_tautomer_probability>  (1) 
1

>  <s_epik_cmdline>  (1) 
J2VwaWtfcHl0aG9uJywgJy1waHQnLCAnMS4wJywgJy1waCcsICc3LjQnLCAnLXRuJywgJzgnLCAnLW1hJywgJzUwMCcsICctaW1hZScsICc8aW5maWxlLm1hZT4nLCAnLW9tYWUnLCAnPG91dGZpbGUubWFlPic=

>  <s_epik_input>  (1) 
bjFbY0hdW2NIXVtjSF1bY0hdW2NIXTE=

>  <s_glide_docking_method>  (1) 
confgen

>  <s_i_glide_gridfile>  (1) 
gpcr_drd2_6luq_protein_autoprepared_prepared

>  <s_lp_Force_Field>  (1) 
S-OPLS

>  <s_lp_Variant>  (1) 
Pocket2Mol_7-1

>  <s_m_source_file>  (1) 
generated_generic_title2_ligand_Pocket2Mol_2026-06-23_prepared.sdf

>  <GenAI_Model>  (1) 
Pocket2Mol

>  <Protein>  (1) 
generic_title2

$$$$
Pocket2Mol_34
     RDKit          3D

  0  0  0  0  0  0  0  0  0  0999 V3000
M  V30 BEGIN CTAB
M  V30 COUNTS 21 22 0 0 1
M  V30 BEGIN ATOM
M  V30 1 C 9.660506 8.351519 -6.644346 0
M  V30 2 O 9.633691 8.563160 -8.044282 0
M  V30 3 C 10.498155 7.624631 -8.672080 0 CFG=2
M  V30 4 C 11.844899 8.308903 -8.964314 0
M  V30 5 C 9.825761 7.045965 -9.911927 0
M  V30 6 C 9.708790 6.837749 -6.521602 0
M  V30 7 C 9.150700 5.774960 -9.397731 0
M  V30 8 C 10.575410 6.435485 -7.702477 0 CFG=1
M  V30 9 O 10.029462 5.311237 -8.384996 0
M  V30 10 H 8.784151 8.788725 -6.164717 0
M  V30 11 H 10.554184 8.809345 -6.218178 0
M  V30 12 H 12.550332 7.618441 -9.426265 0
M  V30 13 H 11.714077 9.153239 -9.641822 0
M  V30 14 H 12.304160 8.687607 -8.050954 0
M  V30 15 H 10.575406 6.786101 -10.658825 0
M  V30 16 H 9.121750 7.735058 -10.380717 0
M  V30 17 H 8.699997 6.435925 -6.628913 0
M  V30 18 H 10.103610 6.496303 -5.564628 0
M  V30 19 H 9.011260 5.027284 -10.178517 0
M  V30 20 H 8.175337 5.989894 -8.958734 0
M  V30 21 H 11.595190 6.233202 -7.374619 0
M  V30 END ATOM
M  V30 BEGIN BOND
M  V30 1 1 2 1
M  V30 2 1 3 2
M  V30 3 1 3 4 CFG=3
M  V30 4 1 5 3
M  V30 5 1 6 1
M  V30 6 1 7 5
M  V30 7 1 8 3
M  V30 8 1 8 6
M  V30 9 1 9 7
M  V30 10 1 9 8
M  V30 11 1 10 1
M  V30 12 1 11 1
M  V30 13 1 12 4
M  V30 14 1 13 4
M  V30 15 1 14 4
M  V30 16 1 15 5
M  V30 17 1 16 5
M  V30 18 1 17 6
M  V30 19 1 18 6
M  V30 20 1 19 7
M  V30 21 1 20 7
M  V30 22 1 8 21 CFG=1
M  V30 END BOND
M  V30 END CTAB
M  END
>  <i_epik_Tot_Q>  (1) 
0

>  <i_epik_Tot_abs_Q>  (1) 
0

>  <i_i_glide_confnum>  (1) 
2

>  <i_i_glide_lignum>  (1) 
38

>  <i_i_glide_posenum>  (1) 
390

>  <i_i_glide_rotatable_bonds>  (1) 
0

>  <i_lp_mmshare_version>  (1) 
72125

>  <i_m_source_file_index>  (1) 
35

>  <i_f3d_flags>  (1) 
0

>  <num_sample>  (1) 
100

>  <b_lp_Chiralities_Consistent>  (1) 
1

>  <r_epik_Charging_Adjusted_Penalty>  (1) 
0

>  <r_epik_Ionization_Penalty>  (1) 
2.529470820146915e-12

>  <r_epik_Ionization_Penalty_Charging>  (1) 
0

>  <r_epik_Ionization_Penalty_Neutral>  (1) 
2.529470820146915e-12

>  <r_epik_State_Penalty>  (1) 
-0

>  <r_glide_ring_energy>  (1) 
0.058801660810398726

>  <r_i_docking_score>  (1) 
-4.181822430145278

>  <r_i_glide_ecoul>  (1) 
0.13667775394697201

>  <r_i_glide_eff_state_penalty>  (1) 
-0

>  <r_i_glide_einternal>  (1) 
0

>  <r_i_glide_emodel>  (1) 
-22.196560717450687

>  <r_i_glide_emodel_strain>  (1) 
0

>  <r_i_glide_energy>  (1) 
-17.48489833368863

>  <r_i_glide_erotb>  (1) 
0

>  <r_i_glide_esite>  (1) 
0

>  <r_i_glide_evdw>  (1) 
-17.621576087635603

>  <r_i_glide_gscore>  (1) 
-4.181822430145278

>  <r_i_glide_gscore_strain>  (1) 
0

>  <r_i_glide_hbond>  (1) 
0

>  <r_i_glide_ligand_efficiency>  (1) 
-0.46464693668280865

>  <r_i_glide_ligand_efficiency_ln>  (1) 
-1.3079539234711439

>  <r_i_glide_ligand_efficiency_sa>  (1) 
-0.9665045764245328

>  <r_i_glide_lipo>  (1) 
-0.42425229558185512

>  <r_i_glide_metal>  (1) 
-0

>  <r_i_glide_rewards>  (1) 
-2.8969929932736878

>  <r_lp_Energy>  (1) 
-0.369228

>  <r_lp_tautomer_probability>  (1) 
1

>  <s_epik_cmdline>  (1) 
J2VwaWtfcHl0aG9uJywgJy1waHQnLCAnMS4wJywgJy1waCcsICc3LjQnLCAnLXRuJywgJzgnLCAnLW1hJywgJzUwMCcsICctaW1hZScsICc8aW5maWxlLm1hZT4nLCAnLW9tYWUnLCAnPG91dGZpbGUubWFlPic=

>  <s_epik_input>  (1) 
TzFbQ0gyXVtDSDJdW0NASF0oW0NAXTEyW0NIM10pT1tDSDJdW0NIMl0y

>  <s_glide_docking_method>  (1) 
confgen

>  <s_i_glide_gridfile>  (1) 
gpcr_drd2_6luq_protein_autoprepared_prepared

>  <s_lp_Force_Field>  (1) 
S-OPLS

>  <s_lp_Variant>  (1) 
Pocket2Mol_34-1

>  <s_m_source_file>  (1) 
generated_generic_title2_ligand_Pocket2Mol_2026-06-23_prepared.sdf

>  <GenAI_Model>  (1) 
Pocket2Mol

>  <Protein>  (1) 
generic_title2

$$$$
Pocket2Mol_9
     RDKit          3D

  0  0  0  0  0  0  0  0  0  0999 V3000
M  V30 BEGIN CTAB
M  V30 COUNTS 13 13 0 0 1
M  V30 BEGIN ATOM
M  V30 1 N 9.375411 7.803708 -9.246349 0 CHG=1
M  V30 2 C 10.170802 8.049147 -8.157935 0
M  V30 3 C 11.470071 8.087625 -8.611207 0
M  V30 4 C 10.127396 7.692429 -10.343835 0
M  V30 5 C 12.756083 8.311555 -7.903039 0
M  V30 6 N 11.396184 7.863292 -9.965033 0
M  V30 7 H 9.761778 8.175480 -7.165784 0
M  V30 8 H 9.774150 7.501943 -11.344123 0
M  V30 9 H 12.575304 8.470886 -6.839867 0
M  V30 10 H 13.409975 7.457261 -8.016886 0
M  V30 11 H 13.265921 9.177975 -8.304942 0
M  V30 12 H 12.190287 7.830148 -10.591036 0
M  V30 13 H 8.327959 7.718401 -9.221268 0
M  V30 END ATOM
M  V30 BEGIN BOND
M  V30 1 1 2 1
M  V30 2 2 3 2
M  V30 3 2 4 1
M  V30 4 1 5 3
M  V30 5 1 6 3
M  V30 6 1 6 4
M  V30 7 1 7 2
M  V30 8 1 8 4
M  V30 9 1 9 5
M  V30 10 1 10 5
M  V30 11 1 11 5
M  V30 12 1 12 6
M  V30 13 1 13 1
M  V30 END BOND
M  V30 END CTAB
M  END
>  <i_epik_Tot_Q>  (1) 
1

>  <i_epik_Tot_abs_Q>  (1) 
1

>  <i_i_glide_confnum>  (1) 
1

>  <i_i_glide_lignum>  (1) 
11

>  <i_i_glide_posenum>  (1) 
147

>  <i_i_glide_rotatable_bonds>  (1) 
0

>  <i_lp_mmshare_version>  (1) 
72125

>  <i_m_source_file_index>  (1) 
10

>  <i_f3d_flags>  (1) 
0

>  <num_sample>  (1) 
100

>  <b_lp_Chiralities_Consistent>  (1) 
1

>  <r_epik_Charging_Adjusted_Penalty>  (1) 
0.63910500234431922

>  <r_epik_Ionization_Penalty>  (1) 
0.82018112513013652

>  <r_epik_Ionization_Penalty_Charging>  (1) 
0

>  <r_epik_Ionization_Penalty_Neutral>  (1) 
0.82018112513013652

>  <r_epik_State_Penalty>  (1) 
0.63910500234431922

>  <r_glide_ring_energy>  (1) 
0

>  <r_i_docking_score>  (1) 
-4.1777823105628542

>  <r_i_glide_ecoul>  (1) 
-10.614931963727493

>  <r_i_glide_eff_state_penalty>  (1) 
0.63910500234431922

>  <r_i_glide_einternal>  (1) 
0

>  <r_i_glide_emodel>  (1) 
-25.158629821562521

>  <r_i_glide_emodel_strain>  (1) 
0

>  <r_i_glide_energy>  (1) 
-16.184605424988348

>  <r_i_glide_erotb>  (1) 
0

>  <r_i_glide_esite>  (1) 
-0.1652377664574782

>  <r_i_glide_evdw>  (1) 
-5.5696734612608561

>  <r_i_glide_gscore>  (1) 
-4.8168873129071734

>  <r_i_glide_gscore_strain>  (1) 
0

>  <r_i_glide_hbond>  (1) 
-0.13311196885833093

>  <r_i_glide_ligand_efficiency>  (1) 
-0.69629705176047574

>  <r_i_glide_ligand_efficiency_ln>  (1) 
-1.4964692899270604

>  <r_i_glide_ligand_efficiency_sa>  (1) 
-1.2652557114822667

>  <r_i_glide_lipo>  (1) 
-0.39781410996919836

>  <r_i_glide_metal>  (1) 
-0

>  <r_i_glide_rewards>  (1) 
-2.25

>  <r_lp_Energy>  (1) 
7.4764169999999996

>  <r_lp_tautomer_probability>  (1) 
1

>  <s_epik_cmdline>  (1) 
J2VwaWtfcHl0aG9uJywgJy1waHQnLCAnMS4wJywgJy1waCcsICc3LjQnLCAnLXRuJywgJzgnLCAnLW1hJywgJzUwMCcsICctaW1hZScsICc8aW5maWxlLm1hZT4nLCAnLW9tYWUnLCAnPG91dGZpbGUubWFlPic=

>  <s_epik_input>  (1) 
W25IXTFbY0hdbltjSF1jMVtDSDNd

>  <s_glide_docking_method>  (1) 
confgen

>  <s_i_glide_gridfile>  (1) 
gpcr_drd2_6luq_protein_autoprepared_prepared

>  <s_lp_Force_Field>  (1) 
S-OPLS

>  <s_lp_Variant>  (1) 
Pocket2Mol_9-2

>  <s_m_source_file>  (1) 
generated_generic_title2_ligand_Pocket2Mol_2026-06-23_prepared.sdf

>  <GenAI_Model>  (1) 
Pocket2Mol

>  <Protein>  (1) 
generic_title2

$$$$
Pocket2Mol_6
     RDKit          3D

  0  0  0  0  0  0  0  0  0  0999 V3000
M  V30 BEGIN CTAB
M  V30 COUNTS 14 14 0 0 1
M  V30 BEGIN ATOM
M  V30 1 C 10.003970 7.407702 -8.054654 0
M  V30 2 O 10.774317 8.418798 -7.414769 0
M  V30 3 C 10.057354 7.618608 -9.579457 0
M  V30 4 O 11.412156 7.590348 -10.015920 0
M  V30 5 C 12.125198 8.390187 -7.854349 0
M  V30 6 C 12.175410 8.604024 -9.376623 0
M  V30 7 H 10.380495 6.419108 -7.786732 0
M  V30 8 H 8.975152 7.465346 -7.698945 0
M  V30 9 H 9.499549 6.832554 -10.088622 0
M  V30 10 H 9.591516 8.566783 -9.853326 0
M  V30 11 H 12.684250 9.171401 -7.339339 0
M  V30 12 H 12.580074 7.437154 -7.584994 0
M  V30 13 H 11.789798 9.589844 -9.640398 0
M  V30 14 H 13.204244 8.554718 -9.733713 0
M  V30 END ATOM
M  V30 BEGIN BOND
M  V30 1 1 2 1
M  V30 2 1 3 1
M  V30 3 1 4 3
M  V30 4 1 5 2
M  V30 5 1 6 4
M  V30 6 1 6 5
M  V30 7 1 7 1
M  V30 8 1 8 1
M  V30 9 1 9 3
M  V30 10 1 10 3
M  V30 11 1 11 5
M  V30 12 1 12 5
M  V30 13 1 13 6
M  V30 14 1 14 6
M  V30 END BOND
M  V30 END CTAB
M  END
>  <i_epik_Tot_Q>  (1) 
0

>  <i_epik_Tot_abs_Q>  (1) 
0

>  <i_i_glide_confnum>  (1) 
2

>  <i_i_glide_lignum>  (1) 
7

>  <i_i_glide_posenum>  (1) 
235

>  <i_i_glide_rotatable_bonds>  (1) 
0

>  <i_lp_mmshare_version>  (1) 
72125

>  <i_m_source_file_index>  (1) 
7

>  <i_f3d_flags>  (1) 
0

>  <num_sample>  (1) 
100

>  <b_lp_Chiralities_Consistent>  (1) 
1

>  <r_epik_Charging_Adjusted_Penalty>  (1) 
0

>  <r_epik_Ionization_Penalty>  (1) 
8.3894707547109138e-13

>  <r_epik_Ionization_Penalty_Charging>  (1) 
0

>  <r_epik_Ionization_Penalty_Neutral>  (1) 
8.3894707547109138e-13

>  <r_epik_State_Penalty>  (1) 
-0

>  <r_glide_ring_energy>  (1) 
0.00013676017923054334

>  <r_i_docking_score>  (1) 
-4.1771075459579663

>  <r_i_glide_ecoul>  (1) 
-1.3886614550400684

>  <r_i_glide_eff_state_penalty>  (1) 
-0

>  <r_i_glide_einternal>  (1) 
0

>  <r_i_glide_emodel>  (1) 
-17.912010144295387

>  <r_i_glide_emodel_strain>  (1) 
0

>  <r_i_glide_energy>  (1) 
-14.09131160946505

>  <r_i_glide_erotb>  (1) 
0

>  <r_i_glide_esite>  (1) 
0

>  <r_i_glide_evdw>  (1) 
-12.702650154424981

>  <r_i_glide_gscore>  (1) 
-4.1771075459579663

>  <r_i_glide_gscore_strain>  (1) 
0

>  <r_i_glide_hbond>  (1) 
0

>  <r_i_glide_ligand_efficiency>  (1) 
-0.69618459099299435

>  <r_i_glide_ligand_efficiency_ln>  (1) 
-1.4962275912376404

>  <r_i_glide_ligand_efficiency_sa>  (1) 
-1.2650513567057908

>  <r_i_glide_lipo>  (1) 
-0.61700915331403994

>  <r_i_glide_metal>  (1) 
-0

>  <r_i_glide_rewards>  (1) 
-2.7166666666666668

>  <r_lp_Energy>  (1) 
4.9648199999999996

>  <r_lp_tautomer_probability>  (1) 
1

>  <s_epik_cmdline>  (1) 
J2VwaWtfcHl0aG9uJywgJy1waHQnLCAnMS4wJywgJy1waCcsICc3LjQnLCAnLXRuJywgJzgnLCAnLW1hJywgJzUwMCcsICctaW1hZScsICc8aW5maWxlLm1hZT4nLCAnLW9tYWUnLCAnPG91dGZpbGUubWFlPic=

>  <s_epik_input>  (1) 
W0NIMl0xT1tDSDJdW0NIMl1PW0NIMl0x

>  <s_glide_docking_method>  (1) 
confgen

>  <s_i_glide_gridfile>  (1) 
gpcr_drd2_6luq_protein_autoprepared_prepared

>  <s_lp_Force_Field>  (1) 
S-OPLS

>  <s_lp_Variant>  (1) 
Pocket2Mol_6-1

>  <s_m_source_file>  (1) 
generated_generic_title2_ligand_Pocket2Mol_2026-06-23_prepared.sdf

>  <GenAI_Model>  (1) 
Pocket2Mol

>  <Protein>  (1) 
generic_title2

$$$$
Pocket2Mol_55
     RDKit          3D

  0  0  0  0  0  0  0  0  0  0999 V3000
M  V30 BEGIN CTAB
M  V30 COUNTS 13 13 0 0 1
M  V30 BEGIN ATOM
M  V30 1 O 11.375410 8.097098 -5.009942 0
M  V30 2 C 10.965073 6.790227 -5.409145 0
M  V30 3 C 10.417381 6.931064 -6.826549 0
M  V30 4 C 10.975410 9.054621 -5.985026 0
M  V30 5 C 9.910602 8.355309 -6.824360 0
M  V30 6 H 11.783795 6.073203 -5.350800 0
M  V30 7 H 10.178017 6.451413 -4.734058 0
M  V30 8 H 11.222500 6.819782 -7.554182 0
M  V30 9 H 9.641455 6.200348 -7.058561 0
M  V30 10 H 10.609207 9.970337 -5.520157 0
M  V30 11 H 11.838828 9.308998 -6.601245 0
M  V30 12 H 8.938031 8.404723 -6.331604 0
M  V30 13 H 9.806115 8.776218 -7.824852 0
M  V30 END ATOM
M  V30 BEGIN BOND
M  V30 1 1 2 1
M  V30 2 1 3 2
M  V30 3 1 4 1
M  V30 4 1 5 3
M  V30 5 1 5 4
M  V30 6 1 6 2
M  V30 7 1 7 2
M  V30 8 1 8 3
M  V30 9 1 9 3
M  V30 10 1 10 4
M  V30 11 1 11 4
M  V30 12 1 12 5
M  V30 13 1 13 5
M  V30 END BOND
M  V30 END CTAB
M  END
>  <i_epik_Tot_Q>  (1) 
0

>  <i_epik_Tot_abs_Q>  (1) 
0

>  <i_i_glide_confnum>  (1) 
4

>  <i_i_glide_lignum>  (1) 
62

>  <i_i_glide_posenum>  (1) 
5

>  <i_i_glide_rotatable_bonds>  (1) 
0

>  <i_lp_mmshare_version>  (1) 
72125

>  <i_m_source_file_index>  (1) 
56

>  <i_f3d_flags>  (1) 
0

>  <num_sample>  (1) 
100

>  <b_lp_Chiralities_Consistent>  (1) 
1

>  <r_epik_Charging_Adjusted_Penalty>  (1) 
0

>  <r_epik_Ionization_Penalty>  (1) 
1.3889264151150229e-11

>  <r_epik_Ionization_Penalty_Charging>  (1) 
0

>  <r_epik_Ionization_Penalty_Neutral>  (1) 
1.3889264151150229e-11

>  <r_epik_State_Penalty>  (1) 
-0

>  <r_glide_ring_energy>  (1) 
0.22164722245690596

>  <r_i_docking_score>  (1) 
-4.1751043487786195

>  <r_i_glide_ecoul>  (1) 
-0.7735012536230943

>  <r_i_glide_eff_state_penalty>  (1) 
-0

>  <r_i_glide_einternal>  (1) 
0

>  <r_i_glide_emodel>  (1) 
-17.609484354513256

>  <r_i_glide_emodel_strain>  (1) 
0

>  <r_i_glide_energy>  (1) 
-14.00074606713483

>  <r_i_glide_erotb>  (1) 
0

>  <r_i_glide_esite>  (1) 
0

>  <r_i_glide_evdw>  (1) 
-13.227244813511737

>  <r_i_glide_gscore>  (1) 
-4.1751043487786195

>  <r_i_glide_gscore_strain>  (1) 
0

>  <r_i_glide_hbond>  (1) 
0

>  <r_i_glide_ligand_efficiency>  (1) 
-0.83502086975572387

>  <r_i_glide_ligand_efficiency_ln>  (1) 
-1.6000014136699865

>  <r_i_glide_ligand_efficiency_sa>  (1) 
-1.4278656022553429

>  <r_i_glide_lipo>  (1) 
-0.91258829372910755

>  <r_i_glide_metal>  (1) 
-0

>  <r_i_glide_rewards>  (1) 
-2.4851286263304608

>  <r_lp_Energy>  (1) 
3.9173999999999998

>  <r_lp_tautomer_probability>  (1) 
1

>  <s_epik_cmdline>  (1) 
J2VwaWtfcHl0aG9uJywgJy1waHQnLCAnMS4wJywgJy1waCcsICc3LjQnLCAnLXRuJywgJzgnLCAnLW1hJywgJzUwMCcsICctaW1hZScsICc8aW5maWxlLm1hZT4nLCAnLW9tYWUnLCAnPG91dGZpbGUubWFlPic=

>  <s_epik_input>  (1) 
TzFbQ0gyXVtDSDJdW0NIMl1bQ0gyXTE=

>  <s_glide_docking_method>  (1) 
confgen

>  <s_i_glide_gridfile>  (1) 
gpcr_drd2_6luq_protein_autoprepared_prepared

>  <s_lp_Force_Field>  (1) 
S-OPLS

>  <s_lp_Variant>  (1) 
Pocket2Mol_55-1

>  <s_m_source_file>  (1) 
generated_generic_title2_ligand_Pocket2Mol_2026-06-23_prepared.sdf

>  <GenAI_Model>  (1) 
Pocket2Mol

>  <Protein>  (1) 
generic_title2

$$$$
Pocket2Mol_11
     RDKit          3D

  0  0  0  0  0  0  0  0  0  0999 V3000
M  V30 BEGIN CTAB
M  V30 COUNTS 14 13 0 0 1
M  V30 BEGIN ATOM
M  V30 1 N 8.975410 6.390227 -8.385027 0 CHG=1
M  V30 2 C 10.078010 7.123968 -9.039600 0
M  V30 3 C 8.853198 4.995711 -8.857920 0
M  V30 4 C 9.017305 6.489419 -6.910037 0
M  V30 5 H 11.046082 6.695580 -8.777929 0
M  V30 6 H 10.071077 8.172160 -8.738141 0
M  V30 7 H 9.968601 7.092950 -10.124284 0
M  V30 8 H 9.739197 4.412842 -8.602184 0
M  V30 9 H 7.982172 4.515031 -8.409717 0
M  V30 10 H 8.724877 4.966265 -9.940532 0
M  V30 11 H 9.922479 6.031570 -6.509009 0
M  V30 12 H 8.988573 7.533157 -6.594907 0
M  V30 13 H 8.156983 5.990226 -6.463469 0
M  V30 14 H 8.114025 6.866833 -8.676207 0
M  V30 END ATOM
M  V30 BEGIN BOND
M  V30 1 1 2 1
M  V30 2 1 3 1
M  V30 3 1 4 1
M  V30 4 1 5 2
M  V30 5 1 6 2
M  V30 6 1 7 2
M  V30 7 1 8 3
M  V30 8 1 9 3
M  V30 9 1 10 3
M  V30 10 1 11 4
M  V30 11 1 12 4
M  V30 12 1 13 4
M  V30 13 1 14 1
M  V30 END BOND
M  V30 END CTAB
M  END
>  <i_epik_Tot_Q>  (1) 
1

>  <i_epik_Tot_abs_Q>  (1) 
1

>  <i_i_glide_confnum>  (1) 
1

>  <i_i_glide_lignum>  (1) 
14

>  <i_i_glide_posenum>  (1) 
267

>  <i_i_glide_rotatable_bonds>  (1) 
0

>  <i_lp_mmshare_version>  (1) 
72125

>  <i_m_source_file_index>  (1) 
12

>  <i_f3d_flags>  (1) 
0

>  <num_sample>  (1) 
100

>  <b_lp_Chiralities_Consistent>  (1) 
1

>  <r_epik_Charging_Adjusted_Penalty>  (1) 
0.0093753769364623638

>  <r_epik_Ionization_Penalty>  (1) 
0.0046876884682311671

>  <r_epik_Ionization_Penalty_Charging>  (1) 
0.0046876884682311671

>  <r_epik_Ionization_Penalty_Neutral>  (1) 
0

>  <r_epik_State_Penalty>  (1) 
0.0046876884682311958

>  <r_glide_ring_energy>  (1) 
0

>  <r_i_docking_score>  (1) 
-4.1660825386076183

>  <r_i_glide_ecoul>  (1) 
-4.6946635344881074

>  <r_i_glide_eff_state_penalty>  (1) 
0.0046876884682311958

>  <r_i_glide_einternal>  (1) 
0

>  <r_i_glide_emodel>  (1) 
-18.6940708381352

>  <r_i_glide_emodel_strain>  (1) 
0

>  <r_i_glide_energy>  (1) 
-11.906796473033413

>  <r_i_glide_erotb>  (1) 
0

>  <r_i_glide_esite>  (1) 
-0.091763220393818984

>  <r_i_glide_evdw>  (1) 
-7.2121329385453068

>  <r_i_glide_gscore>  (1) 
-4.1707702270758498

>  <r_i_glide_gscore_strain>  (1) 
0

>  <r_i_glide_hbond>  (1) 
-0.23420082958154931

>  <r_i_glide_ligand_efficiency>  (1) 
-1.0415206346519046

>  <r_i_glide_ligand_efficiency_ln>  (1) 
-1.7458376495733203

>  <r_i_glide_ligand_efficiency_sa>  (1) 
-1.65331095109302

>  <r_i_glide_lipo>  (1) 
0

>  <r_i_glide_metal>  (1) 
-0

>  <r_i_glide_rewards>  (1) 
-2.7800000000000002

>  <r_lp_Energy>  (1) 
13.212527

>  <s_epik_cmdline>  (1) 
J2VwaWtfcHl0aG9uJywgJy1waHQnLCAnMS4wJywgJy1waCcsICc3LjQnLCAnLXRuJywgJzgnLCAnLW1hJywgJzUwMCcsICctaW1hZScsICc8aW5maWxlLm1hZT4nLCAnLW9tYWUnLCAnPG91dGZpbGUubWFlPic=

>  <s_epik_input>  (1) 
W0NIM11OKFtDSDNdKVtDSDNd

>  <s_glide_docking_method>  (1) 
confgen

>  <s_i_glide_gridfile>  (1) 
gpcr_drd2_6luq_protein_autoprepared_prepared

>  <s_lp_Force_Field>  (1) 
S-OPLS

>  <s_lp_Variant>  (1) 
Pocket2Mol_11-1

>  <s_m_source_file>  (1) 
generated_generic_title2_ligand_Pocket2Mol_2026-06-23_prepared.sdf

>  <GenAI_Model>  (1) 
Pocket2Mol

>  <Protein>  (1) 
generic_title2

$$$$
Pocket2Mol_33
     RDKit          3D

  0  0  0  0  0  0  0  0  0  0999 V3000
M  V30 BEGIN CTAB
M  V30 COUNTS 12 12 0 0 1
M  V30 BEGIN ATOM
M  V30 1 N 12.280764 8.789424 -3.280786 0
M  V30 2 C 11.840410 9.127792 -4.472757 0
M  V30 3 C 11.375410 8.132589 -5.139295 0
M  V30 4 C 11.437242 6.799285 -4.407674 0
M  V30 5 C 12.175439 7.341749 -3.020558 0
M  V30 6 H 11.911696 10.163296 -4.771864 0
M  V30 7 H 10.442592 6.389800 -4.224995 0
M  V30 8 H 12.038971 6.071565 -4.952263 0
M  V30 9 H 11.574076 7.144734 -2.133035 0
M  V30 10 H 13.166918 6.907810 -2.886659 0
M  V30 11 H 10.969099 8.205767 -6.138471 0
M  V30 12 H 12.797876 9.408717 -2.669587 0
M  V30 END ATOM
M  V30 BEGIN BOND
M  V30 1 1 2 1
M  V30 2 2 3 2
M  V30 3 1 4 3
M  V30 4 1 5 1
M  V30 5 1 5 4
M  V30 6 1 6 2
M  V30 7 1 7 4
M  V30 8 1 8 4
M  V30 9 1 9 5
M  V30 10 1 10 5
M  V30 11 1 11 3
M  V30 12 1 12 1
M  V30 END BOND
M  V30 END CTAB
M  END
>  <i_epik_Tot_Q>  (1) 
0

>  <i_epik_Tot_abs_Q>  (1) 
0

>  <i_i_glide_confnum>  (1) 
1

>  <i_i_glide_lignum>  (1) 
37

>  <i_i_glide_posenum>  (1) 
210

>  <i_i_glide_rotatable_bonds>  (1) 
0

>  <i_lp_mmshare_version>  (1) 
72125

>  <i_m_source_file_index>  (1) 
34

>  <i_f3d_flags>  (1) 
0

>  <num_sample>  (1) 
100

>  <b_lp_Chiralities_Consistent>  (1) 
1

>  <r_epik_Charging_Adjusted_Penalty>  (1) 
1.6042444336516156e-06

>  <r_epik_Ionization_Penalty>  (1) 
0.0023556498582944039

>  <r_epik_Ionization_Penalty_Charging>  (1) 
1.6042444336516156e-06

>  <r_epik_Ionization_Penalty_Neutral>  (1) 
0.0023540456138607521

>  <r_epik_State_Penalty>  (1) 
-0

>  <r_glide_ring_energy>  (1) 
0

>  <r_i_docking_score>  (1) 
-4.1658348942122698

>  <r_i_glide_ecoul>  (1) 
-1.2225162091275485

>  <r_i_glide_eff_state_penalty>  (1) 
-0

>  <r_i_glide_einternal>  (1) 
0

>  <r_i_glide_emodel>  (1) 
-17.88787846073085

>  <r_i_glide_emodel_strain>  (1) 
1.6648016298859147e-11

>  <r_i_glide_energy>  (1) 
-13.730990269363712

>  <r_i_glide_erotb>  (1) 
0

>  <r_i_glide_esite>  (1) 
0

>  <r_i_glide_evdw>  (1) 
-12.508474060236164

>  <r_i_glide_gscore>  (1) 
-4.1658348942122698

>  <r_i_glide_gscore_strain>  (1) 
0

>  <r_i_glide_hbond>  (1) 
0

>  <r_i_glide_ligand_efficiency>  (1) 
-0.83316697884245394

>  <r_i_glide_ligand_efficiency_ln>  (1) 
-1.5964491334941755

>  <r_i_glide_ligand_efficiency_sa>  (1) 
-1.4246954933858889

>  <r_i_glide_lipo>  (1) 
-1.1070337598313293

>  <r_i_glide_metal>  (1) 
-0

>  <r_i_glide_rewards>  (1) 
-2.25

>  <r_lp_Energy>  (1) 
2.9163329999999998

>  <r_lp_tautomer_probability>  (1) 
1

>  <s_epik_Chemistry_Notes>  (1) 
This compound has an imine and may undergo hydrolysis.

>  <s_epik_cmdline>  (1) 
J2VwaWtfcHl0aG9uJywgJy1waHQnLCAnMS4wJywgJy1waCcsICc3LjQnLCAnLXRuJywgJzgnLCAnLW1hJywgJzUwMCcsICctaW1hZScsICc8aW5maWxlLm1hZT4nLCAnLW9tYWUnLCAnPG91dGZpbGUubWFlPic=

>  <s_epik_input>  (1) 
W05IXTFbQ0hdPVtDSF1bQ0gyXVtDSDJdMQ==

>  <s_glide_docking_method>  (1) 
confgen

>  <s_i_glide_gridfile>  (1) 
gpcr_drd2_6luq_protein_autoprepared_prepared

>  <s_lp_Force_Field>  (1) 
S-OPLS

>  <s_lp_Variant>  (1) 
Pocket2Mol_33-1

>  <s_m_source_file>  (1) 
generated_generic_title2_ligand_Pocket2Mol_2026-06-23_prepared.sdf

>  <GenAI_Model>  (1) 
Pocket2Mol

>  <Protein>  (1) 
generic_title2

$$$$
Pocket2Mol_22
     RDKit          3D

  0  0  0  0  0  0  0  0  0  0999 V3000
M  V30 BEGIN CTAB
M  V30 COUNTS 9 9 0 0 1
M  V30 BEGIN ATOM
M  V30 1 C 12.175416 7.574160 -3.234379 0
M  V30 2 O 11.614803 7.059601 -4.371085 0
M  V30 3 C 11.375412 8.132127 -5.185025 0
M  V30 4 C 12.293725 8.931316 -3.320953 0
M  V30 5 C 11.775354 9.294298 -4.589899 0
M  V30 6 H 12.426441 6.847519 -2.475601 0
M  V30 7 H 10.922739 7.894068 -6.137330 0
M  V30 8 H 12.702751 9.581851 -2.561774 0
M  V30 9 H 11.700064 10.284113 -5.015814 0
M  V30 END ATOM
M  V30 BEGIN BOND
M  V30 1 1 2 1
M  V30 2 1 3 2
M  V30 3 2 4 1
M  V30 4 2 5 3
M  V30 5 1 5 4
M  V30 6 1 6 1
M  V30 7 1 7 3
M  V30 8 1 8 4
M  V30 9 1 9 5
M  V30 END BOND
M  V30 END CTAB
M  END
>  <i_epik_Tot_Q>  (1) 
0

>  <i_epik_Tot_abs_Q>  (1) 
0

>  <i_i_glide_confnum>  (1) 
1

>  <i_i_glide_lignum>  (1) 
26

>  <i_i_glide_posenum>  (1) 
347

>  <i_i_glide_rotatable_bonds>  (1) 
0

>  <i_lp_mmshare_version>  (1) 
72125

>  <i_m_source_file_index>  (1) 
23

>  <i_f3d_flags>  (1) 
0

>  <num_sample>  (1) 
100

>  <b_lp_Chiralities_Consistent>  (1) 
1

>  <r_epik_Charging_Adjusted_Penalty>  (1) 
0

>  <r_epik_Ionization_Penalty>  (1) 
0

>  <r_epik_Ionization_Penalty_Charging>  (1) 
0

>  <r_epik_Ionization_Penalty_Neutral>  (1) 
0

>  <r_epik_State_Penalty>  (1) 
-0

>  <r_glide_ring_energy>  (1) 
0

>  <r_i_docking_score>  (1) 
-4.1599114518665186

>  <r_i_glide_ecoul>  (1) 
-0.51438449656169993

>  <r_i_glide_eff_state_penalty>  (1) 
-0

>  <r_i_glide_einternal>  (1) 
0

>  <r_i_glide_emodel>  (1) 
-15.209907857455747

>  <r_i_glide_emodel_strain>  (1) 
0

>  <r_i_glide_energy>  (1) 
-11.996099583587695

>  <r_i_glide_erotb>  (1) 
0

>  <r_i_glide_esite>  (1) 
0

>  <r_i_glide_evdw>  (1) 
-11.481715087025995

>  <r_i_glide_gscore>  (1) 
-4.1599114518665186

>  <r_i_glide_gscore_strain>  (1) 
0

>  <r_i_glide_hbond>  (1) 
0

>  <r_i_glide_ligand_efficiency>  (1) 
-0.83198229037330373

>  <r_i_glide_ligand_efficiency_ln>  (1) 
-1.594179126487101

>  <r_i_glide_ligand_efficiency_sa>  (1) 
-1.4226697045993366

>  <r_i_glide_lipo>  (1) 
-1.2036980235013039

>  <r_i_glide_metal>  (1) 
-0

>  <r_i_glide_rewards>  (1) 
-2.3049699995296593

>  <r_lp_Energy>  (1) 
2.5980879999999997

>  <r_lp_tautomer_probability>  (1) 
1

>  <s_epik_cmdline>  (1) 
J2VwaWtfcHl0aG9uJywgJy1waHQnLCAnMS4wJywgJy1waCcsICc3LjQnLCAnLXRuJywgJzgnLCAnLW1hJywgJzUwMCcsICctaW1hZScsICc8aW5maWxlLm1hZT4nLCAnLW9tYWUnLCAnPG91dGZpbGUubWFlPic=

>  <s_epik_input>  (1) 
W2NIXTFvW2NIXVtjSF1bY0hdMQ==

>  <s_glide_docking_method>  (1) 
confgen

>  <s_i_glide_gridfile>  (1) 
gpcr_drd2_6luq_protein_autoprepared_prepared

>  <s_lp_Force_Field>  (1) 
S-OPLS

>  <s_lp_Variant>  (1) 
Pocket2Mol_22-1

>  <s_m_source_file>  (1) 
generated_generic_title2_ligand_Pocket2Mol_2026-06-23_prepared.sdf

>  <GenAI_Model>  (1) 
Pocket2Mol

>  <Protein>  (1) 
generic_title2

$$$$
Pocket2Mol_1
     RDKit          3D

  0  0  0  0  0  0  0  0  0  0999 V3000
M  V30 BEGIN CTAB
M  V30 COUNTS 10 10 0 0 1
M  V30 BEGIN ATOM
M  V30 1 N 11.356076 8.066579 -5.468126 0
M  V30 2 C 10.601339 8.790229 -6.342351 0
M  V30 3 C 9.775396 8.094935 -7.062397 0
M  V30 4 C 10.897610 6.877328 -5.742840 0
M  V30 5 C 9.775535 6.648236 -6.832464 0
M  V30 6 H 10.725146 9.862390 -6.385024 0
M  V30 7 H 9.111269 8.530920 -7.796260 0
M  V30 8 H 11.260093 5.978873 -5.238288 0
M  V30 9 H 10.124212 6.067533 -7.686453 0
M  V30 10 H 8.841255 6.277767 -6.409091 0
M  V30 END ATOM
M  V30 BEGIN BOND
M  V30 1 1 2 1
M  V30 2 2 3 2
M  V30 3 2 4 1
M  V30 4 1 5 3
M  V30 5 1 5 4
M  V30 6 1 6 2
M  V30 7 1 7 3
M  V30 8 1 8 4
M  V30 9 1 9 5
M  V30 10 1 10 5
M  V30 END BOND
M  V30 END CTAB
M  END
>  <i_epik_Tot_Q>  (1) 
0

>  <i_epik_Tot_abs_Q>  (1) 
0

>  <i_i_glide_confnum>  (1) 
1

>  <i_i_glide_lignum>  (1) 
2

>  <i_i_glide_posenum>  (1) 
42

>  <i_i_glide_rotatable_bonds>  (1) 
0

>  <i_lp_mmshare_version>  (1) 
72125

>  <i_m_source_file_index>  (1) 
2

>  <i_f3d_flags>  (1) 
0

>  <num_sample>  (1) 
100

>  <b_lp_Chiralities_Consistent>  (1) 
1

>  <r_epik_Charging_Adjusted_Penalty>  (1) 
0

>  <r_epik_Ionization_Penalty>  (1) 
0

>  <r_epik_Ionization_Penalty_Charging>  (1) 
0

>  <r_epik_Ionization_Penalty_Neutral>  (1) 
0

>  <r_epik_State_Penalty>  (1) 
-0

>  <r_glide_ring_energy>  (1) 
0

>  <r_i_docking_score>  (1) 
-4.1593559995567411

>  <r_i_glide_ecoul>  (1) 
-1.482161890082567

>  <r_i_glide_eff_state_penalty>  (1) 
-0

>  <r_i_glide_einternal>  (1) 
0

>  <r_i_glide_emodel>  (1) 
-17.919424460710566

>  <r_i_glide_emodel_strain>  (1) 
0

>  <r_i_glide_energy>  (1) 
-14.000724540383761

>  <r_i_glide_erotb>  (1) 
0

>  <r_i_glide_esite>  (1) 
0

>  <r_i_glide_evdw>  (1) 
-12.518562650301194

>  <r_i_glide_gscore>  (1) 
-4.1593559995567411

>  <r_i_glide_gscore_strain>  (1) 
0

>  <r_i_glide_hbond>  (1) 
0

>  <r_i_glide_ligand_efficiency>  (1) 
-0.83187119991134817

>  <r_i_glide_ligand_efficiency_ln>  (1) 
-1.5939662636682039

>  <r_i_glide_ligand_efficiency_sa>  (1) 
-1.4224797425814875

>  <r_i_glide_lipo>  (1) 
-0.29653944081093492

>  <r_i_glide_metal>  (1) 
-0

>  <r_i_glide_rewards>  (1) 
-3.0145641427183616

>  <r_lp_Energy>  (1) 
-2.9532909999999997

>  <r_lp_tautomer_probability>  (1) 
1

>  <s_epik_Chemistry_Notes>  (1) 
This compound has an imine and may undergo hydrolysis.

>  <s_epik_cmdline>  (1) 
J2VwaWtfcHl0aG9uJywgJy1waHQnLCAnMS4wJywgJy1waCcsICc3LjQnLCAnLXRuJywgJzgnLCAnLW1hJywgJzUwMCcsICctaW1hZScsICc8aW5maWxlLm1hZT4nLCAnLW9tYWUnLCAnPG91dGZpbGUubWFlPic=

>  <s_epik_input>  (1) 
TjE9W0NIXVtDSDJdW0NIXT1bQ0hdMQ==

>  <s_glide_docking_method>  (1) 
confgen

>  <s_i_glide_gridfile>  (1) 
gpcr_drd2_6luq_protein_autoprepared_prepared

>  <s_lp_Force_Field>  (1) 
S-OPLS

>  <s_lp_Variant>  (1) 
Pocket2Mol_1-1

>  <s_m_source_file>  (1) 
generated_generic_title2_ligand_Pocket2Mol_2026-06-23_prepared.sdf

>  <GenAI_Model>  (1) 
Pocket2Mol

>  <Protein>  (1) 
generic_title2

$$$$
Pocket2Mol_20
     RDKit          3D

  0  0  0  0  0  0  0  0  0  0999 V3000
M  V30 BEGIN CTAB
M  V30 COUNTS 12 12 0 0 1
M  V30 BEGIN ATOM
M  V30 1 N 6.782003 6.751987 -11.586176 0 CHG=1
M  V30 2 C 6.060275 5.621547 -11.734609 0
M  V30 3 C 5.776784 5.139566 -13.026396 0
M  V30 4 C 7.256874 7.461506 -12.634431 0
M  V30 5 O 5.049939 3.999997 -13.185370 0 CHG=-1
M  V30 6 C 6.251928 5.846923 -14.149864 0
M  V30 7 C 7.002368 7.024434 -13.951550 0
M  V30 8 H 5.731553 5.136527 -10.826365 0
M  V30 9 H 7.821002 8.350089 -12.391837 0
M  V30 10 H 6.975345 7.084378 -10.636908 0
M  V30 11 H 6.042329 5.489183 -15.147825 0
M  V30 12 H 7.375151 7.580513 -14.798431 0
M  V30 END ATOM
M  V30 BEGIN BOND
M  V30 1 1 2 1
M  V30 2 2 3 2
M  V30 3 2 4 1
M  V30 4 1 5 3
M  V30 5 1 6 3
M  V30 6 1 7 4
M  V30 7 2 7 6
M  V30 8 1 8 2
M  V30 9 1 9 4
M  V30 10 1 10 1
M  V30 11 1 11 6
M  V30 12 1 12 7
M  V30 END BOND
M  V30 END CTAB
M  END
>  <i_epik_Tot_Q>  (1) 
0

>  <i_epik_Tot_abs_Q>  (1) 
2

>  <i_i_glide_confnum>  (1) 
1

>  <i_i_glide_lignum>  (1) 
23

>  <i_i_glide_posenum>  (1) 
252

>  <i_i_glide_rotatable_bonds>  (1) 
0

>  <i_lp_mmshare_version>  (1) 
72125

>  <i_m_source_file_index>  (1) 
21

>  <i_f3d_flags>  (1) 
0

>  <num_sample>  (1) 
100

>  <b_lp_Chiralities_Consistent>  (1) 
1

>  <r_epik_Charging_Adjusted_Penalty>  (1) 
0.36510749842979956

>  <r_epik_Ionization_Penalty>  (1) 
0.025180683492302028

>  <r_epik_Ionization_Penalty_Charging>  (1) 
0.025180683492302028

>  <r_epik_Ionization_Penalty_Neutral>  (1) 
0

>  <r_epik_State_Penalty>  (1) 
0.33992681493749755

>  <r_glide_ring_energy>  (1) 
0

>  <r_i_docking_score>  (1) 
-4.156657954999579

>  <r_i_glide_ecoul>  (1) 
-8.3566636828794643

>  <r_i_glide_eff_state_penalty>  (1) 
0.33992681493749755

>  <r_i_glide_einternal>  (1) 
0

>  <r_i_glide_emodel>  (1) 
-23.884442514042163

>  <r_i_glide_emodel_strain>  (1) 
0

>  <r_i_glide_energy>  (1) 
-15.437144144971631

>  <r_i_glide_erotb>  (1) 
0

>  <r_i_glide_esite>  (1) 
-0.10000000000000001

>  <r_i_glide_evdw>  (1) 
-7.0804804620921669

>  <r_i_glide_gscore>  (1) 
-4.4965847699370762

>  <r_i_glide_gscore_strain>  (1) 
0

>  <r_i_glide_hbond>  (1) 
-0.14638772691548968

>  <r_i_glide_ligand_efficiency>  (1) 
-0.59380827928565416

>  <r_i_glide_ligand_efficiency_ln>  (1) 
-1.4109927814100254

>  <r_i_glide_ligand_efficiency_sa>  (1) 
-1.1359143740339437

>  <r_i_glide_lipo>  (1) 
-0.39267346748505894

>  <r_i_glide_metal>  (1) 
-0

>  <r_i_glide_rewards>  (1) 
-2.25

>  <r_lp_Energy>  (1) 
9.275188

>  <r_lp_tautomer_probability>  (1) 
0.56342000000000003

>  <s_epik_cmdline>  (1) 
J2VwaWtfcHl0aG9uJywgJy1waHQnLCAnMS4wJywgJy1waCcsICc3LjQnLCAnLXRuJywgJzgnLCAnLW1hJywgJzUwMCcsICctaW1hZScsICc8aW5maWxlLm1hZT4nLCAnLW9tYWUnLCAnPG91dGZpbGUubWFlPic=

>  <s_epik_input>  (1) 
W2NIXTFbY0hdW2NIXW5bY0hdYzFbT0hd

>  <s_glide_docking_method>  (1) 
confgen

>  <s_i_glide_gridfile>  (1) 
gpcr_drd2_6luq_protein_autoprepared_prepared

>  <s_lp_Force_Field>  (1) 
S-OPLS

>  <s_lp_Variant>  (1) 
Pocket2Mol_20-1

>  <s_m_source_file>  (1) 
generated_generic_title2_ligand_Pocket2Mol_2026-06-23_prepared.sdf

>  <GenAI_Model>  (1) 
Pocket2Mol

>  <Protein>  (1) 
generic_title2

$$$$
Pocket2Mol_66
     RDKit          3D

  0  0  0  0  0  0  0  0  0  0999 V3000
M  V30 BEGIN CTAB
M  V30 COUNTS 8 8 0 0 1
M  V30 BEGIN ATOM
M  V30 1 N 11.367723 8.172942 -5.578823 0
M  V30 2 C 10.973485 6.803238 -5.816953 0
M  V30 3 C 10.051174 6.729145 -6.704017 0
M  V30 4 C 9.818234 7.975397 -7.057512 0
M  V30 5 C 10.601965 8.790363 -6.385418 0
M  V30 6 H 11.434127 5.990385 -5.273261 0
M  V30 7 H 9.557907 5.839694 -7.067943 0
M  V30 8 H 8.975411 8.277466 -7.665057 0
M  V30 END ATOM
M  V30 BEGIN BOND
M  V30 1 1 2 1
M  V30 2 2 3 2
M  V30 3 1 4 3
M  V30 4 2 5 1
M  V30 5 2 5 4
M  V30 6 1 6 2
M  V30 7 1 7 3
M  V30 8 1 8 4
M  V30 END BOND
M  V30 END CTAB
M  END
>  <i_epik_Tot_Q>  (1) 
0

>  <i_epik_Tot_abs_Q>  (1) 
0

>  <i_i_glide_confnum>  (1) 
1

>  <i_i_glide_lignum>  (1) 
73

>  <i_i_glide_posenum>  (1) 
56

>  <i_i_glide_rotatable_bonds>  (1) 
0

>  <i_lp_mmshare_version>  (1) 
72125

>  <i_m_source_file_index>  (1) 
67

>  <i_f3d_flags>  (1) 
0

>  <num_sample>  (1) 
100

>  <b_lp_Chiralities_Consistent>  (1) 
1

>  <r_epik_Charging_Adjusted_Penalty>  (1) 
0

>  <r_epik_Ionization_Penalty>  (1) 
0

>  <r_epik_Ionization_Penalty_Charging>  (1) 
0

>  <r_epik_Ionization_Penalty_Neutral>  (1) 
0

>  <r_epik_State_Penalty>  (1) 
-0

>  <r_glide_ring_energy>  (1) 
0

>  <r_i_docking_score>  (1) 
-4.1437834776335993

>  <r_i_glide_ecoul>  (1) 
-1.0065683918238801

>  <r_i_glide_eff_state_penalty>  (1) 
-0

>  <r_i_glide_einternal>  (1) 
0

>  <r_i_glide_emodel>  (1) 
-17.337926141972698

>  <r_i_glide_emodel_strain>  (1) 
0

>  <r_i_glide_energy>  (1) 
-13.607335510495826

>  <r_i_glide_erotb>  (1) 
0

>  <r_i_glide_esite>  (1) 
0

>  <r_i_glide_evdw>  (1) 
-12.600767118671946

>  <r_i_glide_gscore>  (1) 
-4.1437834776335993

>  <r_i_glide_gscore_strain>  (1) 
0

>  <r_i_glide_hbond>  (1) 
0

>  <r_i_glide_ligand_efficiency>  (1) 
-0.82875669552671982

>  <r_i_glide_ligand_efficiency_ln>  (1) 
-1.5879984949587289

>  <r_i_glide_ligand_efficiency_sa>  (1) 
-1.417154014997954

>  <r_i_glide_lipo>  (1) 
-0.76275986292642051

>  <r_i_glide_metal>  (1) 
-0

>  <r_i_glide_rewards>  (1) 
-2.6000000000000001

>  <r_lp_Energy>  (1) 
4.860805

>  <r_lp_tautomer_probability>  (1) 
1

>  <s_epik_Chemistry_Notes>  (1) 
This compound has an imine and may undergo hydrolysis.

>  <s_epik_cmdline>  (1) 
J2VwaWtfcHl0aG9uJywgJy1waHQnLCAnMS4wJywgJy1waCcsICc3LjQnLCAnLXRuJywgJzgnLCAnLW1hJywgJzUwMCcsICctaW1hZScsICc8aW5maWxlLm1hZT4nLCAnLW9tYWUnLCAnPG91dGZpbGUubWFlPic=

>  <s_epik_input>  (1) 
TjE9Qz1bQ0hdW0NIXT1bQ0hdMQ==

>  <s_glide_docking_method>  (1) 
confgen

>  <s_i_glide_gridfile>  (1) 
gpcr_drd2_6luq_protein_autoprepared_prepared

>  <s_lp_Force_Field>  (1) 
S-OPLS

>  <s_lp_Variant>  (1) 
Pocket2Mol_66-1

>  <s_m_source_file>  (1) 
generated_generic_title2_ligand_Pocket2Mol_2026-06-23_prepared.sdf

>  <GenAI_Model>  (1) 
Pocket2Mol

>  <Protein>  (1) 
generic_title2

$$$$
Pocket2Mol_4
     RDKit          3D

  0  0  0  0  0  0  0  0  0  0999 V3000
M  V30 BEGIN CTAB
M  V30 COUNTS 9 9 0 0 1
M  V30 BEGIN ATOM
M  V30 1 N 9.375411 7.479195 -8.292712 0
M  V30 2 C 9.555983 6.793486 -7.127244 0
M  V30 3 C 10.877261 6.888307 -6.805792 0
M  V30 4 C 11.428603 7.675295 -7.870134 0
M  V30 5 N 10.507927 8.032019 -8.773649 0
M  V30 6 H 8.472199 7.589668 -8.776756 0
M  V30 7 H 8.737824 6.299670 -6.624808 0
M  V30 8 H 11.378162 6.464178 -5.946412 0
M  V30 9 H 12.451148 7.991855 -8.013319 0
M  V30 END ATOM
M  V30 BEGIN BOND
M  V30 1 1 2 1
M  V30 2 2 3 2
M  V30 3 1 4 3
M  V30 4 1 5 1
M  V30 5 2 5 4
M  V30 6 1 6 1
M  V30 7 1 7 2
M  V30 8 1 8 3
M  V30 9 1 9 4
M  V30 END BOND
M  V30 END CTAB
M  END
>  <i_epik_Tot_Q>  (1) 
0

>  <i_epik_Tot_abs_Q>  (1) 
0

>  <i_i_glide_confnum>  (1) 
1

>  <i_i_glide_lignum>  (1) 
5

>  <i_i_glide_posenum>  (1) 
203

>  <i_i_glide_rotatable_bonds>  (1) 
0

>  <i_lp_mmshare_version>  (1) 
72125

>  <i_m_source_file_index>  (1) 
5

>  <i_f3d_flags>  (1) 
0

>  <num_sample>  (1) 
100

>  <b_lp_Chiralities_Consistent>  (1) 
1

>  <r_epik_Charging_Adjusted_Penalty>  (1) 
0

>  <r_epik_Ionization_Penalty>  (1) 
1.0045315435319e-05

>  <r_epik_Ionization_Penalty_Charging>  (1) 
0

>  <r_epik_Ionization_Penalty_Neutral>  (1) 
1.0045315435319e-05

>  <r_epik_State_Penalty>  (1) 
-0

>  <r_glide_ring_energy>  (1) 
0

>  <r_i_docking_score>  (1) 
-4.1423934509032172

>  <r_i_glide_ecoul>  (1) 
-4.9078608576842093

>  <r_i_glide_eff_state_penalty>  (1) 
-0

>  <r_i_glide_einternal>  (1) 
0

>  <r_i_glide_emodel>  (1) 
-19.09925252149619

>  <r_i_glide_emodel_strain>  (1) 
0

>  <r_i_glide_energy>  (1) 
-14.391944496147554

>  <r_i_glide_erotb>  (1) 
0

>  <r_i_glide_esite>  (1) 
-0.10000000000000001

>  <r_i_glide_evdw>  (1) 
-9.4840836384633445

>  <r_i_glide_gscore>  (1) 
-4.1423934509032172

>  <r_i_glide_gscore_strain>  (1) 
0

>  <r_i_glide_hbond>  (1) 
-0.16

>  <r_i_glide_ligand_efficiency>  (1) 
-0.82847869018064346

>  <r_i_glide_ligand_efficiency_ln>  (1) 
-1.5874658029472584

>  <r_i_glide_ligand_efficiency_sa>  (1) 
-1.4166786325431158

>  <r_i_glide_lipo>  (1) 
-0.42201014032741807

>  <r_i_glide_metal>  (1) 
-0

>  <r_i_glide_rewards>  (1) 
-2.25

>  <r_lp_Energy>  (1) 
2.3130189999999997

>  <r_lp_tautomer_probability>  (1) 
1

>  <s_epik_cmdline>  (1) 
J2VwaWtfcHl0aG9uJywgJy1waHQnLCAnMS4wJywgJy1waCcsICc3LjQnLCAnLXRuJywgJzgnLCAnLW1hJywgJzUwMCcsICctaW1hZScsICc8aW5maWxlLm1hZT4nLCAnLW9tYWUnLCAnPG91dGZpbGUubWFlPic=

>  <s_epik_input>  (1) 
W25IXTFbY0hdW2NIXVtjSF1uMQ==

>  <s_glide_docking_method>  (1) 
confgen

>  <s_i_glide_gridfile>  (1) 
gpcr_drd2_6luq_protein_autoprepared_prepared

>  <s_lp_Force_Field>  (1) 
S-OPLS

>  <s_lp_Variant>  (1) 
Pocket2Mol_4-1

>  <s_m_source_file>  (1) 
generated_generic_title2_ligand_Pocket2Mol_2026-06-23_prepared.sdf

>  <GenAI_Model>  (1) 
Pocket2Mol

>  <Protein>  (1) 
generic_title2

$$$$
Pocket2Mol_91
     RDKit          3D

  0  0  0  0  0  0  0  0  0  0999 V3000
M  V30 BEGIN CTAB
M  V30 COUNTS 21 22 0 0 1
M  V30 BEGIN ATOM
M  V30 1 C 12.443060 8.390227 -8.136663 0
M  V30 2 O 11.281468 8.799090 -7.441188 0
M  V30 3 C 12.234194 8.598872 -9.626575 0
M  V30 4 O 10.866289 8.571874 -9.952676 0
M  V30 5 C 10.352879 7.881744 -7.126225 0
M  V30 6 C 10.180594 7.430208 -9.647958 0
M  V30 7 C 9.709478 6.607683 -10.680315 0
M  V30 8 O 9.935373 7.721689 -5.985025 0
M  V30 9 C 9.896421 7.063139 -8.305118 0
M  V30 10 C 8.975410 5.455111 -10.349433 0
M  V30 11 C 9.138832 5.896521 -8.083423 0
M  V30 12 N 8.503848 4.623243 -11.357530 0
M  V30 13 N 8.694160 5.094631 -9.078038 0
M  V30 14 H 13.309451 8.950864 -7.786818 0
M  V30 15 H 12.644585 7.340545 -7.922501 0
M  V30 16 H 12.575402 9.590206 -9.911089 0
M  V30 17 H 12.800414 7.881146 -10.217994 0
M  V30 18 H 9.902156 6.859362 -11.712142 0
M  V30 19 H 8.890195 5.590137 -7.078445 0
M  V30 20 H 8.669709 4.826608 -12.331158 0
M  V30 21 H 7.972595 3.792654 -11.145434 0
M  V30 END ATOM
M  V30 BEGIN BOND
M  V30 1 1 2 1
M  V30 2 1 3 1
M  V30 3 1 4 3
M  V30 4 1 5 2
M  V30 5 1 6 4
M  V30 6 1 7 6
M  V30 7 2 8 5
M  V30 8 1 9 5
M  V30 9 2 9 6
M  V30 10 2 10 7
M  V30 11 1 11 9
M  V30 12 1 12 10
M  V30 13 1 13 10
M  V30 14 2 13 11
M  V30 15 1 14 1
M  V30 16 1 15 1
M  V30 17 1 16 3
M  V30 18 1 17 3
M  V30 19 1 18 7
M  V30 20 1 19 11
M  V30 21 1 20 12
M  V30 22 1 21 12
M  V30 END BOND
M  V30 END CTAB
M  END
>  <i_epik_Tot_Q>  (1) 
0

>  <i_epik_Tot_abs_Q>  (1) 
0

>  <i_i_glide_confnum>  (1) 
1

>  <i_i_glide_lignum>  (1) 
99

>  <i_i_glide_posenum>  (1) 
38

>  <i_i_glide_rotatable_bonds>  (1) 
0

>  <i_lp_mmshare_version>  (1) 
72125

>  <i_m_source_file_index>  (1) 
92

>  <i_f3d_flags>  (1) 
0

>  <num_sample>  (1) 
100

>  <b_lp_Chiralities_Consistent>  (1) 
1

>  <r_epik_Charging_Adjusted_Penalty>  (1) 
0.47186222519243537

>  <r_epik_Ionization_Penalty>  (1) 
0.4718627144316776

>  <r_epik_Ionization_Penalty_Charging>  (1) 
0

>  <r_epik_Ionization_Penalty_Neutral>  (1) 
0.4718627144316776

>  <r_epik_State_Penalty>  (1) 
0.47186222519243537

>  <r_glide_ring_energy>  (1) 
0

>  <r_i_docking_score>  (1) 
-4.1422351769958743

>  <r_i_glide_ecoul>  (1) 
0.25998397708658916

>  <r_i_glide_eff_state_penalty>  (1) 
0.47186222519243537

>  <r_i_glide_einternal>  (1) 
0

>  <r_i_glide_emodel>  (1) 
-30.62711653644789

>  <r_i_glide_emodel_strain>  (1) 
0

>  <r_i_glide_energy>  (1) 
-23.462647749921757

>  <r_i_glide_erotb>  (1) 
0

>  <r_i_glide_esite>  (1) 
0

>  <r_i_glide_evdw>  (1) 
-23.722631727008345

>  <r_i_glide_gscore>  (1) 
-4.6140974021883094

>  <r_i_glide_gscore_strain>  (1) 
0

>  <r_i_glide_hbond>  (1) 
0

>  <r_i_glide_ligand_efficiency>  (1) 
-0.3186334751535288

>  <r_i_glide_ligand_efficiency_ln>  (1) 
-1.1619338065282927

>  <r_i_glide_ligand_efficiency_sa>  (1) 
-0.74921394279750253

>  <r_i_glide_lipo>  (1) 
-0.59867136435374058

>  <r_i_glide_metal>  (1) 
-0

>  <r_i_glide_rewards>  (1) 
-2.8682920480471394

>  <r_lp_Energy>  (1) 
11.927572999999999

>  <s_epik_Chemistry_Notes>  (1) 
This compound has an ester and may undergo hydrolysis at high or low pH.

>  <s_epik_cmdline>  (1) 
J2VwaWtfcHl0aG9uJywgJy1waHQnLCAnMS4wJywgJy1waCcsICc3LjQnLCAnLXRuJywgJzgnLCAnLW1hJywgJzUwMCcsICctaW1hZScsICc8aW5maWxlLm1hZT4nLCAnLW9tYWUnLCAnPG91dGZpbGUubWFlPic=

>  <s_epik_input>  (1) 
TzFbQ0gyXVtDSDJdT0MoPU8pYyhjMTIpW2NIXW5jKFtjSF0yKVtOSDJd

>  <s_glide_docking_method>  (1) 
confgen

>  <s_i_glide_gridfile>  (1) 
gpcr_drd2_6luq_protein_autoprepared_prepared

>  <s_lp_Force_Field>  (1) 
S-OPLS

>  <s_lp_Variant>  (1) 
Pocket2Mol_91-2

>  <s_m_source_file>  (1) 
generated_generic_title2_ligand_Pocket2Mol_2026-06-23_prepared.sdf

>  <GenAI_Model>  (1) 
Pocket2Mol

>  <Protein>  (1) 
generic_title2

$$$$
Pocket2Mol_2
     RDKit          3D

  0  0  0  0  0  0  0  0  0  0999 V3000
M  V30 BEGIN CTAB
M  V30 COUNTS 10 10 0 0 1
M  V30 BEGIN ATOM
M  V30 1 N 9.775409 8.093228 -8.655190 0
M  V30 2 C 9.964042 8.044502 -7.297238 0
M  V30 3 C 11.302322 8.227429 -7.072456 0
M  V30 4 C 11.937208 8.390247 -8.348248 0
M  V30 5 C 10.964194 8.302203 -9.308074 0
M  V30 6 H 8.868059 7.990227 -9.114430 0
M  V30 7 H 9.134210 7.886012 -6.622203 0
M  V30 8 H 11.775406 8.242934 -6.102044 0
M  V30 9 H 12.988177 8.554446 -8.537573 0
M  V30 10 H 11.007923 8.369200 -10.385027 0
M  V30 END ATOM
M  V30 BEGIN BOND
M  V30 1 1 2 1
M  V30 2 2 3 2
M  V30 3 1 4 3
M  V30 4 1 5 1
M  V30 5 2 5 4
M  V30 6 1 6 1
M  V30 7 1 7 2
M  V30 8 1 8 3
M  V30 9 1 9 4
M  V30 10 1 10 5
M  V30 END BOND
M  V30 END CTAB
M  END
>  <i_epik_Tot_Q>  (1) 
0

>  <i_epik_Tot_abs_Q>  (1) 
0

>  <i_i_glide_confnum>  (1) 
1

>  <i_i_glide_lignum>  (1) 
3

>  <i_i_glide_posenum>  (1) 
166

>  <i_i_glide_rotatable_bonds>  (1) 
0

>  <i_lp_mmshare_version>  (1) 
72125

>  <i_m_source_file_index>  (1) 
3

>  <i_f3d_flags>  (1) 
0

>  <num_sample>  (1) 
100

>  <b_lp_Chiralities_Consistent>  (1) 
1

>  <r_epik_Charging_Adjusted_Penalty>  (1) 
0

>  <r_epik_Ionization_Penalty>  (1) 
4.7655302421719939e-09

>  <r_epik_Ionization_Penalty_Charging>  (1) 
0

>  <r_epik_Ionization_Penalty_Neutral>  (1) 
4.7655302421719939e-09

>  <r_epik_State_Penalty>  (1) 
-0

>  <r_glide_ring_energy>  (1) 
0

>  <r_i_docking_score>  (1) 
-4.1422173903177644

>  <r_i_glide_ecoul>  (1) 
-2.8999613391540051

>  <r_i_glide_eff_state_penalty>  (1) 
-0

>  <r_i_glide_einternal>  (1) 
0

>  <r_i_glide_emodel>  (1) 
-18.414018243451217

>  <r_i_glide_emodel_strain>  (1) 
0

>  <r_i_glide_energy>  (1) 
-14.05989590705364

>  <r_i_glide_erotb>  (1) 
0

>  <r_i_glide_esite>  (1) 
-0.10000000000000001

>  <r_i_glide_evdw>  (1) 
-11.159934567899635

>  <r_i_glide_gscore>  (1) 
-4.1422173903177644

>  <r_i_glide_gscore_strain>  (1) 
0

>  <r_i_glide_hbond>  (1) 
-0.16

>  <r_i_glide_ligand_efficiency>  (1) 
-0.8284434780635529

>  <r_i_glide_ligand_efficiency_ln>  (1) 
-1.5873983322538137

>  <r_i_glide_ligand_efficiency_sa>  (1) 
-1.4166184206698593

>  <r_i_glide_lipo>  (1) 
-0.63922646104968195

>  <r_i_glide_metal>  (1) 
-0

>  <r_i_glide_rewards>  (1) 
-2.25

>  <r_lp_Energy>  (1) 
2.9132020000000001

>  <r_lp_tautomer_probability>  (1) 
1

>  <s_epik_cmdline>  (1) 
J2VwaWtfcHl0aG9uJywgJy1waHQnLCAnMS4wJywgJy1waCcsICc3LjQnLCAnLXRuJywgJzgnLCAnLW1hJywgJzUwMCcsICctaW1hZScsICc8aW5maWxlLm1hZT4nLCAnLW9tYWUnLCAnPG91dGZpbGUubWFlPic=

>  <s_epik_input>  (1) 
W25IXTFbY0hdW2NIXVtjSF1bY0hdMQ==

>  <s_glide_docking_method>  (1) 
confgen

>  <s_i_glide_gridfile>  (1) 
gpcr_drd2_6luq_protein_autoprepared_prepared

>  <s_lp_Force_Field>  (1) 
S-OPLS

>  <s_lp_Variant>  (1) 
Pocket2Mol_2-1

>  <s_m_source_file>  (1) 
generated_generic_title2_ligand_Pocket2Mol_2026-06-23_prepared.sdf

>  <GenAI_Model>  (1) 
Pocket2Mol

>  <Protein>  (1) 
generic_title2

$$$$
Pocket2Mol_4
     RDKit          3D

  0  0  0  0  0  0  0  0  0  0999 V3000
M  V30 BEGIN CTAB
M  V30 COUNTS 9 9 0 0 1
M  V30 BEGIN ATOM
M  V30 1 N 9.375411 8.095937 -8.270948 0
M  V30 2 C 9.412700 8.001312 -6.913391 0
M  V30 3 C 10.707286 8.186157 -6.528249 0
M  V30 4 C 11.402356 8.388807 -7.766434 0
M  V30 5 N 10.583549 8.333719 -8.827618 0
M  V30 6 H 8.519935 7.996195 -8.842213 0
M  V30 7 H 8.524102 7.811175 -6.334997 0
M  V30 8 H 11.100990 8.174996 -5.521555 0
M  V30 9 H 12.458226 8.568522 -7.921898 0
M  V30 END ATOM
M  V30 BEGIN BOND
M  V30 1 1 2 1
M  V30 2 2 3 2
M  V30 3 1 4 3
M  V30 4 1 5 1
M  V30 5 2 5 4
M  V30 6 1 6 1
M  V30 7 1 7 2
M  V30 8 1 8 3
M  V30 9 1 9 4
M  V30 END BOND
M  V30 END CTAB
M  END
>  <i_epik_Tot_Q>  (1) 
0

>  <i_epik_Tot_abs_Q>  (1) 
0

>  <i_i_glide_confnum>  (1) 
1

>  <i_i_glide_lignum>  (1) 
5

>  <i_i_glide_posenum>  (1) 
385

>  <i_i_glide_rotatable_bonds>  (1) 
0

>  <i_lp_mmshare_version>  (1) 
72125

>  <i_m_source_file_index>  (1) 
5

>  <i_f3d_flags>  (1) 
0

>  <num_sample>  (1) 
100

>  <b_lp_Chiralities_Consistent>  (1) 
1

>  <r_epik_Charging_Adjusted_Penalty>  (1) 
0

>  <r_epik_Ionization_Penalty>  (1) 
1.0045315435319e-05

>  <r_epik_Ionization_Penalty_Charging>  (1) 
0

>  <r_epik_Ionization_Penalty_Neutral>  (1) 
1.0045315435319e-05

>  <r_epik_State_Penalty>  (1) 
-0

>  <r_glide_ring_energy>  (1) 
0

>  <r_i_docking_score>  (1) 
-4.1407098138150378

>  <r_i_glide_ecoul>  (1) 
-4.5580825912804981

>  <r_i_glide_eff_state_penalty>  (1) 
-0

>  <r_i_glide_einternal>  (1) 
0

>  <r_i_glide_emodel>  (1) 
-18.778157726850914

>  <r_i_glide_emodel_strain>  (1) 
0

>  <r_i_glide_energy>  (1) 
-14.072762942837485

>  <r_i_glide_erotb>  (1) 
0

>  <r_i_glide_esite>  (1) 
-0.10000000000000001

>  <r_i_glide_evdw>  (1) 
-9.5146803515569864

>  <r_i_glide_gscore>  (1) 
-4.1407098138150378

>  <r_i_glide_gscore_strain>  (1) 
0

>  <r_i_glide_hbond>  (1) 
-0.16

>  <r_i_glide_ligand_efficiency>  (1) 
-0.82814196276300756

>  <r_i_glide_ligand_efficiency_ln>  (1) 
-1.5868205923139045

>  <r_i_glide_ligand_efficiency_sa>  (1) 
-1.4161028367583719

>  <r_i_glide_lipo>  (1) 
-0.47126340754511359

>  <r_i_glide_metal>  (1) 
-0

>  <r_i_glide_rewards>  (1) 
-2.25

>  <r_lp_Energy>  (1) 
2.3130189999999997

>  <r_lp_tautomer_probability>  (1) 
1

>  <s_epik_cmdline>  (1) 
J2VwaWtfcHl0aG9uJywgJy1waHQnLCAnMS4wJywgJy1waCcsICc3LjQnLCAnLXRuJywgJzgnLCAnLW1hJywgJzUwMCcsICctaW1hZScsICc8aW5maWxlLm1hZT4nLCAnLW9tYWUnLCAnPG91dGZpbGUubWFlPic=

>  <s_epik_input>  (1) 
W25IXTFbY0hdW2NIXVtjSF1uMQ==

>  <s_glide_docking_method>  (1) 
confgen

>  <s_i_glide_gridfile>  (1) 
gpcr_drd2_6luq_protein_autoprepared_prepared

>  <s_lp_Force_Field>  (1) 
S-OPLS

>  <s_lp_Variant>  (1) 
Pocket2Mol_4-1

>  <s_m_source_file>  (1) 
generated_generic_title2_ligand_Pocket2Mol_2026-06-23_prepared.sdf

>  <GenAI_Model>  (1) 
Pocket2Mol

>  <Protein>  (1) 
generic_title2

$$$$
Pocket2Mol_22
     RDKit          3D

  0  0  0  0  0  0  0  0  0  0999 V3000
M  V30 BEGIN CTAB
M  V30 COUNTS 9 9 0 0 1
M  V30 BEGIN ATOM
M  V30 1 C 12.515389 8.427504 -2.337256 0
M  V30 2 O 12.227866 9.190227 -3.434909 0
M  V30 3 C 11.775410 8.318366 -4.385025 0
M  V30 4 C 12.253609 7.109009 -2.577790 0
M  V30 5 C 11.775410 7.037278 -3.910124 0
M  V30 6 H 12.890155 8.974251 -1.483572 0
M  V30 7 H 11.500045 8.767637 -5.328141 0
M  V30 8 H 12.391487 6.295851 -1.879698 0
M  V30 9 H 11.465591 6.157251 -4.455914 0
M  V30 END ATOM
M  V30 BEGIN BOND
M  V30 1 1 2 1
M  V30 2 1 3 2
M  V30 3 2 4 1
M  V30 4 2 5 3
M  V30 5 1 5 4
M  V30 6 1 6 1
M  V30 7 1 7 3
M  V30 8 1 8 4
M  V30 9 1 9 5
M  V30 END BOND
M  V30 END CTAB
M  END
>  <i_epik_Tot_Q>  (1) 
0

>  <i_epik_Tot_abs_Q>  (1) 
0

>  <i_i_glide_confnum>  (1) 
1

>  <i_i_glide_lignum>  (1) 
26

>  <i_i_glide_posenum>  (1) 
36

>  <i_i_glide_rotatable_bonds>  (1) 
0

>  <i_lp_mmshare_version>  (1) 
72125

>  <i_m_source_file_index>  (1) 
23

>  <i_f3d_flags>  (1) 
0

>  <num_sample>  (1) 
100

>  <b_lp_Chiralities_Consistent>  (1) 
1

>  <r_epik_Charging_Adjusted_Penalty>  (1) 
0

>  <r_epik_Ionization_Penalty>  (1) 
0

>  <r_epik_Ionization_Penalty_Charging>  (1) 
0

>  <r_epik_Ionization_Penalty_Neutral>  (1) 
0

>  <r_epik_State_Penalty>  (1) 
-0

>  <r_glide_ring_energy>  (1) 
0

>  <r_i_docking_score>  (1) 
-4.1279550716855473

>  <r_i_glide_ecoul>  (1) 
-0.98988572399766961

>  <r_i_glide_eff_state_penalty>  (1) 
-0

>  <r_i_glide_einternal>  (1) 
0

>  <r_i_glide_emodel>  (1) 
-16.00237004431952

>  <r_i_glide_emodel_strain>  (1) 
0

>  <r_i_glide_energy>  (1) 
-12.813250199572332

>  <r_i_glide_erotb>  (1) 
0

>  <r_i_glide_esite>  (1) 
0

>  <r_i_glide_evdw>  (1) 
-11.823364475574662

>  <r_i_glide_gscore>  (1) 
-4.1279550716855473

>  <r_i_glide_gscore_strain>  (1) 
0

>  <r_i_glide_hbond>  (1) 
0

>  <r_i_glide_ligand_efficiency>  (1) 
-0.82559101433710946

>  <r_i_glide_ligand_efficiency_ln>  (1) 
-1.5819326652746315

>  <r_i_glide_ligand_efficiency_sa>  (1) 
-1.4117407763088732

>  <r_i_glide_lipo>  (1) 
-1.02516724866932

>  <r_i_glide_metal>  (1) 
-0

>  <r_i_glide_rewards>  (1) 
-2.3631367406378438

>  <r_lp_Energy>  (1) 
2.5980879999999997

>  <r_lp_tautomer_probability>  (1) 
1

>  <s_epik_cmdline>  (1) 
J2VwaWtfcHl0aG9uJywgJy1waHQnLCAnMS4wJywgJy1waCcsICc3LjQnLCAnLXRuJywgJzgnLCAnLW1hJywgJzUwMCcsICctaW1hZScsICc8aW5maWxlLm1hZT4nLCAnLW9tYWUnLCAnPG91dGZpbGUubWFlPic=

>  <s_epik_input>  (1) 
W2NIXTFvW2NIXVtjSF1bY0hdMQ==

>  <s_glide_docking_method>  (1) 
confgen

>  <s_i_glide_gridfile>  (1) 
gpcr_drd2_6luq_protein_autoprepared_prepared

>  <s_lp_Force_Field>  (1) 
S-OPLS

>  <s_lp_Variant>  (1) 
Pocket2Mol_22-1

>  <s_m_source_file>  (1) 
generated_generic_title2_ligand_Pocket2Mol_2026-06-23_prepared.sdf

>  <GenAI_Model>  (1) 
Pocket2Mol

>  <Protein>  (1) 
generic_title2

$$$$
Pocket2Mol_77
     RDKit          3D

  0  0  0  0  0  0  0  0  0  0999 V3000
M  V30 BEGIN CTAB
M  V30 COUNTS 11 11 0 0 1
M  V30 BEGIN ATOM
M  V30 1 C 12.417102 8.552877 -2.298762 0
M  V30 2 O 12.141554 9.360490 -3.509675 0
M  V30 3 C 12.175246 6.988229 -2.559135 0
M  V30 4 C 11.775410 7.190192 -3.952352 0
M  V30 5 C 11.775410 8.410425 -4.385025 0
M  V30 6 H 11.775411 8.904227 -1.489703 0
M  V30 7 H 13.445025 8.733208 -1.983389 0
M  V30 8 H 11.364541 6.566912 -1.964001 0
M  V30 9 H 13.078141 6.385018 -2.473188 0
M  V30 10 H 11.498181 6.344651 -4.566054 0
M  V30 11 H 11.515929 8.774057 -5.368733 0
M  V30 END ATOM
M  V30 BEGIN BOND
M  V30 1 1 2 1
M  V30 2 1 3 1
M  V30 3 1 4 3
M  V30 4 1 5 2
M  V30 5 2 5 4
M  V30 6 1 6 1
M  V30 7 1 7 1
M  V30 8 1 8 3
M  V30 9 1 9 3
M  V30 10 1 10 4
M  V30 11 1 11 5
M  V30 END BOND
M  V30 END CTAB
M  END
>  <i_epik_Tot_Q>  (1) 
0

>  <i_epik_Tot_abs_Q>  (1) 
0

>  <i_i_glide_confnum>  (1) 
1

>  <i_i_glide_lignum>  (1) 
84

>  <i_i_glide_posenum>  (1) 
120

>  <i_i_glide_rotatable_bonds>  (1) 
0

>  <i_lp_mmshare_version>  (1) 
72125

>  <i_m_source_file_index>  (1) 
78

>  <i_f3d_flags>  (1) 
0

>  <num_sample>  (1) 
100

>  <b_lp_Chiralities_Consistent>  (1) 
1

>  <r_epik_Charging_Adjusted_Penalty>  (1) 
0

>  <r_epik_Ionization_Penalty>  (1) 
0

>  <r_epik_Ionization_Penalty_Charging>  (1) 
0

>  <r_epik_Ionization_Penalty_Neutral>  (1) 
0

>  <r_epik_State_Penalty>  (1) 
-0

>  <r_glide_ring_energy>  (1) 
0

>  <r_i_docking_score>  (1) 
-4.1086645240408153

>  <r_i_glide_ecoul>  (1) 
-0.71850067383342886

>  <r_i_glide_eff_state_penalty>  (1) 
-0

>  <r_i_glide_einternal>  (1) 
0

>  <r_i_glide_emodel>  (1) 
-16.868613203205669

>  <r_i_glide_emodel_strain>  (1) 
0

>  <r_i_glide_energy>  (1) 
-13.283490345372812

>  <r_i_glide_erotb>  (1) 
0

>  <r_i_glide_esite>  (1) 
0

>  <r_i_glide_evdw>  (1) 
-12.564989671539383

>  <r_i_glide_gscore>  (1) 
-4.1086645240408153

>  <r_i_glide_gscore_strain>  (1) 
0

>  <r_i_glide_hbond>  (1) 
0

>  <r_i_glide_ligand_efficiency>  (1) 
-0.82173290480816308

>  <r_i_glide_ligand_efficiency_ln>  (1) 
-1.5745400587853906

>  <r_i_glide_ligand_efficiency_sa>  (1) 
-1.4051435018147307

>  <r_i_glide_lipo>  (1) 
-1.0201836419782253

>  <r_i_glide_metal>  (1) 
-0

>  <r_i_glide_rewards>  (1) 
-2.3524562974106065

>  <r_lp_Energy>  (1) 
-3.1771669999999999

>  <r_lp_tautomer_probability>  (1) 
1

>  <s_epik_cmdline>  (1) 
J2VwaWtfcHl0aG9uJywgJy1waHQnLCAnMS4wJywgJy1waCcsICc3LjQnLCAnLXRuJywgJzgnLCAnLW1hJywgJzUwMCcsICctaW1hZScsICc8aW5maWxlLm1hZT4nLCAnLW9tYWUnLCAnPG91dGZpbGUubWFlPic=

>  <s_epik_input>  (1) 
W0NIMl0xT1tDSF09W0NIXVtDSDJdMQ==

>  <s_glide_docking_method>  (1) 
confgen

>  <s_i_glide_gridfile>  (1) 
gpcr_drd2_6luq_protein_autoprepared_prepared

>  <s_lp_Force_Field>  (1) 
S-OPLS

>  <s_lp_Variant>  (1) 
Pocket2Mol_77-1

>  <s_m_source_file>  (1) 
generated_generic_title2_ligand_Pocket2Mol_2026-06-23_prepared.sdf

>  <GenAI_Model>  (1) 
Pocket2Mol

>  <Protein>  (1) 
generic_title2

$$$$
Pocket2Mol_99
     RDKit          3D

  0  0  0  0  0  0  0  0  0  0999 V3000
M  V30 BEGIN CTAB
M  V30 COUNTS 11 11 0 0 1
M  V30 BEGIN ATOM
M  V30 1 O 11.775408 7.927967 -1.857614 0
M  V30 2 C 11.906114 6.691618 -2.518910 0
M  V30 3 C 11.775411 7.092567 -3.983657 0
M  V30 4 C 12.293802 8.880894 -2.713553 0
M  V30 5 O 12.420256 8.350380 -3.985219 0
M  V30 6 H 12.888778 6.266417 -2.306623 0
M  V30 7 H 11.137766 5.989691 -2.199442 0
M  V30 8 H 12.207437 6.375301 -4.675031 0
M  V30 9 H 10.739709 7.190229 -4.304366 0
M  V30 10 H 11.631850 9.747843 -2.734068 0
M  V30 11 H 13.280170 9.190200 -2.365752 0
M  V30 END ATOM
M  V30 BEGIN BOND
M  V30 1 1 2 1
M  V30 2 1 3 2
M  V30 3 1 4 1
M  V30 4 1 5 3
M  V30 5 1 5 4
M  V30 6 1 6 2
M  V30 7 1 7 2
M  V30 8 1 8 3
M  V30 9 1 9 3
M  V30 10 1 10 4
M  V30 11 1 11 4
M  V30 END BOND
M  V30 END CTAB
M  END
>  <i_epik_Tot_Q>  (1) 
0

>  <i_epik_Tot_abs_Q>  (1) 
0

>  <i_i_glide_confnum>  (1) 
3

>  <i_i_glide_lignum>  (1) 
108

>  <i_i_glide_posenum>  (1) 
252

>  <i_i_glide_rotatable_bonds>  (1) 
0

>  <i_lp_mmshare_version>  (1) 
72125

>  <i_m_source_file_index>  (1) 
100

>  <i_f3d_flags>  (1) 
0

>  <num_sample>  (1) 
100

>  <b_lp_Chiralities_Consistent>  (1) 
1

>  <r_epik_Charging_Adjusted_Penalty>  (1) 
0

>  <r_epik_Ionization_Penalty>  (1) 
7.9724310449397378e-14

>  <r_epik_Ionization_Penalty_Charging>  (1) 
0

>  <r_epik_Ionization_Penalty_Neutral>  (1) 
7.9724310449397378e-14

>  <r_epik_State_Penalty>  (1) 
-0

>  <r_glide_ring_energy>  (1) 
0.2805525668492585

>  <r_i_docking_score>  (1) 
-4.102541975109701

>  <r_i_glide_ecoul>  (1) 
-1.2983402535449742

>  <r_i_glide_eff_state_penalty>  (1) 
-0

>  <r_i_glide_einternal>  (1) 
0

>  <r_i_glide_emodel>  (1) 
-16.034362459082132

>  <r_i_glide_emodel_strain>  (1) 
0.00079650378259010779

>  <r_i_glide_energy>  (1) 
-12.485303757261461

>  <r_i_glide_erotb>  (1) 
0

>  <r_i_glide_esite>  (1) 
0

>  <r_i_glide_evdw>  (1) 
-11.186963503716486

>  <r_i_glide_gscore>  (1) 
-4.102541975109701

>  <r_i_glide_gscore_strain>  (1) 
0

>  <r_i_glide_hbond>  (1) 
0

>  <r_i_glide_ligand_efficiency>  (1) 
-0.82050839502194017

>  <r_i_glide_ligand_efficiency_ln>  (1) 
-1.5721937492978415

>  <r_i_glide_ligand_efficiency_sa>  (1) 
-1.4030496195338193

>  <r_i_glide_lipo>  (1) 
-0.50222801295323061

>  <r_i_glide_metal>  (1) 
-0

>  <r_i_glide_rewards>  (1) 
-2.8462147489389

>  <r_lp_Energy>  (1) 
-12.242958999999999

>  <r_lp_tautomer_probability>  (1) 
1

>  <s_epik_Chemistry_Notes>  (1) 
This compound contains an acetal/aminal-like group ( X-CH(R)-Y where X, Y are N, S, or O) that may be acid/base labile, releasing an aldehyde.

>  <s_epik_cmdline>  (1) 
J2VwaWtfcHl0aG9uJywgJy1waHQnLCAnMS4wJywgJy1waCcsICc3LjQnLCAnLXRuJywgJzgnLCAnLW1hJywgJzUwMCcsICctaW1hZScsICc8aW5maWxlLm1hZT4nLCAnLW9tYWUnLCAnPG91dGZpbGUubWFlPic=

>  <s_epik_input>  (1) 
TzFbQ0gyXVtDSDJdT1tDSDJdMQ==

>  <s_glide_docking_method>  (1) 
confgen

>  <s_i_glide_gridfile>  (1) 
gpcr_drd2_6luq_protein_autoprepared_prepared

>  <s_lp_Force_Field>  (1) 
S-OPLS

>  <s_lp_Variant>  (1) 
Pocket2Mol_99-1

>  <s_m_source_file>  (1) 
generated_generic_title2_ligand_Pocket2Mol_2026-06-23_prepared.sdf

>  <GenAI_Model>  (1) 
Pocket2Mol

>  <Protein>  (1) 
generic_title2

$$$$
Pocket2Mol_17
     RDKit          3D

  0  0  0  0  0  0  0  0  0  0999 V3000
M  V30 BEGIN CTAB
M  V30 COUNTS 12 12 0 0 1
M  V30 BEGIN ATOM
M  V30 1 N 10.922732 7.822221 -9.098683 0
M  V30 2 C 12.060967 8.390222 -8.560543 0
M  V30 3 C 12.155021 8.790228 -7.276173 0
M  V30 4 C 10.980102 8.621434 -6.379159 0
M  V30 5 O 11.005167 8.975383 -5.201757 0
M  V30 6 C 9.815741 7.643189 -8.291033 0
M  V30 7 C 9.775484 8.000990 -6.991220 0
M  V30 8 H 12.878397 8.488946 -9.260286 0
M  V30 9 H 13.058648 9.230155 -6.883017 0
M  V30 10 H 10.896760 7.542335 -10.069491 0
M  V30 11 H 8.975413 7.188871 -8.792731 0
M  V30 12 H 8.893005 7.848909 -6.386377 0
M  V30 END ATOM
M  V30 BEGIN BOND
M  V30 1 1 2 1
M  V30 2 2 3 2
M  V30 3 1 4 3
M  V30 4 2 5 4
M  V30 5 1 6 1
M  V30 6 1 7 4
M  V30 7 2 7 6
M  V30 8 1 8 2
M  V30 9 1 9 3
M  V30 10 1 10 1
M  V30 11 1 11 6
M  V30 12 1 12 7
M  V30 END BOND
M  V30 END CTAB
M  END
>  <i_epik_Tot_Q>  (1) 
0

>  <i_epik_Tot_abs_Q>  (1) 
0

>  <i_i_glide_confnum>  (1) 
1

>  <i_i_glide_lignum>  (1) 
20

>  <i_i_glide_posenum>  (1) 
174

>  <i_i_glide_rotatable_bonds>  (1) 
0

>  <i_lp_mmshare_version>  (1) 
72125

>  <i_m_source_file_index>  (1) 
18

>  <i_f3d_flags>  (1) 
0

>  <num_sample>  (1) 
100

>  <b_lp_Chiralities_Consistent>  (1) 
1

>  <r_epik_Charging_Adjusted_Penalty>  (1) 
0.00011828912318149299

>  <r_epik_Ionization_Penalty>  (1) 
0.00011828912318149299

>  <r_epik_Ionization_Penalty_Charging>  (1) 
0.00011828912318149299

>  <r_epik_Ionization_Penalty_Neutral>  (1) 
0

>  <r_epik_State_Penalty>  (1) 
-0

>  <r_glide_ring_energy>  (1) 
0

>  <r_i_docking_score>  (1) 
-4.0969007159525725

>  <r_i_glide_ecoul>  (1) 
-1.4897329418658016

>  <r_i_glide_eff_state_penalty>  (1) 
-0

>  <r_i_glide_einternal>  (1) 
0

>  <r_i_glide_emodel>  (1) 
-22.611241022269315

>  <r_i_glide_emodel_strain>  (1) 
0

>  <r_i_glide_energy>  (1) 
-17.523780040492198

>  <r_i_glide_erotb>  (1) 
0

>  <r_i_glide_esite>  (1) 
0

>  <r_i_glide_evdw>  (1) 
-16.034047098626395

>  <r_i_glide_gscore>  (1) 
-4.0969007159525725

>  <r_i_glide_gscore_strain>  (1) 
0

>  <r_i_glide_hbond>  (1) 
0

>  <r_i_glide_ligand_efficiency>  (1) 
-0.58527153085036754

>  <r_i_glide_ligand_efficiency_ln>  (1) 
-1.3907079675414933

>  <r_i_glide_ligand_efficiency_sa>  (1) 
-1.1195841617526003

>  <r_i_glide_lipo>  (1) 
-0.82173841974138251

>  <r_i_glide_metal>  (1) 
-0

>  <r_i_glide_rewards>  (1) 
-2.25

>  <r_lp_Energy>  (1) 
8.1847359999999991

>  <r_lp_tautomer_probability>  (1) 
1

>  <s_epik_cmdline>  (1) 
J2VwaWtfcHl0aG9uJywgJy1waHQnLCAnMS4wJywgJy1waCcsICc3LjQnLCAnLXRuJywgJzgnLCAnLW1hJywgJzUwMCcsICctaW1hZScsICc8aW5maWxlLm1hZT4nLCAnLW9tYWUnLCAnPG91dGZpbGUubWFlPic=

>  <s_epik_input>  (1) 
W2NIXTFbY0hdbltjSF1bY0hdYzFbT0hd

>  <s_glide_docking_method>  (1) 
confgen

>  <s_i_glide_gridfile>  (1) 
gpcr_drd2_6luq_protein_autoprepared_prepared

>  <s_lp_Force_Field>  (1) 
S-OPLS

>  <s_lp_Variant>  (1) 
Pocket2Mol_17-1

>  <s_m_source_file>  (1) 
generated_generic_title2_ligand_Pocket2Mol_2026-06-23_prepared.sdf

>  <GenAI_Model>  (1) 
Pocket2Mol

>  <Protein>  (1) 
generic_title2

$$$$
Pocket2Mol_6
     RDKit          3D

  0  0  0  0  0  0  0  0  0  0999 V3000
M  V30 BEGIN CTAB
M  V30 COUNTS 14 14 0 0 1
M  V30 BEGIN ATOM
M  V30 1 C 10.723572 8.180214 -8.789949 0
M  V30 2 O 10.445193 6.787794 -8.767167 0
M  V30 3 C 11.568916 8.532322 -7.553856 0
M  V30 4 O 10.855628 8.178904 -6.374847 0
M  V30 5 C 9.710686 6.433588 -7.601009 0
M  V30 6 C 10.544641 6.790228 -6.356773 0
M  V30 7 H 11.267547 8.421286 -9.703388 0
M  V30 8 H 9.794861 8.753614 -8.807411 0
M  V30 9 H 12.530809 8.018010 -7.585025 0
M  V30 10 H 11.775410 9.601066 -7.531725 0
M  V30 11 H 8.748838 6.948734 -7.585419 0
M  V30 12 H 9.499551 5.364384 -7.622974 0
M  V30 13 H 9.986175 6.560249 -5.449104 0
M  V30 14 H 11.462219 6.200196 -6.326163 0
M  V30 END ATOM
M  V30 BEGIN BOND
M  V30 1 1 2 1
M  V30 2 1 3 1
M  V30 3 1 4 3
M  V30 4 1 5 2
M  V30 5 1 6 4
M  V30 6 1 6 5
M  V30 7 1 7 1
M  V30 8 1 8 1
M  V30 9 1 9 3
M  V30 10 1 10 3
M  V30 11 1 11 5
M  V30 12 1 12 5
M  V30 13 1 13 6
M  V30 14 1 14 6
M  V30 END BOND
M  V30 END CTAB
M  END
>  <i_epik_Tot_Q>  (1) 
0

>  <i_epik_Tot_abs_Q>  (1) 
0

>  <i_i_glide_confnum>  (1) 
1

>  <i_i_glide_lignum>  (1) 
7

>  <i_i_glide_posenum>  (1) 
116

>  <i_i_glide_rotatable_bonds>  (1) 
0

>  <i_lp_mmshare_version>  (1) 
72125

>  <i_m_source_file_index>  (1) 
7

>  <i_f3d_flags>  (1) 
0

>  <num_sample>  (1) 
100

>  <b_lp_Chiralities_Consistent>  (1) 
1

>  <r_epik_Charging_Adjusted_Penalty>  (1) 
0

>  <r_epik_Ionization_Penalty>  (1) 
8.3894707547109138e-13

>  <r_epik_Ionization_Penalty_Charging>  (1) 
0

>  <r_epik_Ionization_Penalty_Neutral>  (1) 
8.3894707547109138e-13

>  <r_epik_State_Penalty>  (1) 
-0

>  <r_glide_ring_energy>  (1) 
0

>  <r_i_docking_score>  (1) 
-4.0933612126825896

>  <r_i_glide_ecoul>  (1) 
-0.5127321538118349

>  <r_i_glide_eff_state_penalty>  (1) 
-0

>  <r_i_glide_einternal>  (1) 
0

>  <r_i_glide_emodel>  (1) 
-17.906821508921524

>  <r_i_glide_emodel_strain>  (1) 
0

>  <r_i_glide_energy>  (1) 
-14.162723705415969

>  <r_i_glide_erotb>  (1) 
0

>  <r_i_glide_esite>  (1) 
0

>  <r_i_glide_evdw>  (1) 
-13.649991551604135

>  <r_i_glide_gscore>  (1) 
-4.0933612126825896

>  <r_i_glide_gscore_strain>  (1) 
0

>  <r_i_glide_hbond>  (1) 
0

>  <r_i_glide_ligand_efficiency>  (1) 
-0.68222686878043159

>  <r_i_glide_ligand_efficiency_ln>  (1) 
-1.466229901895681

>  <r_i_glide_ligand_efficiency_sa>  (1) 
-1.2396884922443123

>  <r_i_glide_lipo>  (1) 
-0.56728514536394148

>  <r_i_glide_metal>  (1) 
-0

>  <r_i_glide_rewards>  (1) 
-2.7666666666666666

>  <r_lp_Energy>  (1) 
4.9648199999999996

>  <r_lp_tautomer_probability>  (1) 
1

>  <s_epik_cmdline>  (1) 
J2VwaWtfcHl0aG9uJywgJy1waHQnLCAnMS4wJywgJy1waCcsICc3LjQnLCAnLXRuJywgJzgnLCAnLW1hJywgJzUwMCcsICctaW1hZScsICc8aW5maWxlLm1hZT4nLCAnLW9tYWUnLCAnPG91dGZpbGUubWFlPic=

>  <s_epik_input>  (1) 
W0NIMl0xT1tDSDJdW0NIMl1PW0NIMl0x

>  <s_glide_docking_method>  (1) 
confgen

>  <s_i_glide_gridfile>  (1) 
gpcr_drd2_6luq_protein_autoprepared_prepared

>  <s_lp_Force_Field>  (1) 
S-OPLS

>  <s_lp_Variant>  (1) 
Pocket2Mol_6-1

>  <s_m_source_file>  (1) 
generated_generic_title2_ligand_Pocket2Mol_2026-06-23_prepared.sdf

>  <GenAI_Model>  (1) 
Pocket2Mol

>  <Protein>  (1) 
generic_title2

$$$$
Pocket2Mol_4
     RDKit          3D

  0  0  0  0  0  0  0  0  0  0999 V3000
M  V30 BEGIN CTAB
M  V30 COUNTS 9 9 0 0 1
M  V30 BEGIN ATOM
M  V30 1 N 9.375412 7.790930 -7.509893 0
M  V30 2 C 9.954759 6.571551 -7.338192 0
M  V30 3 C 10.972975 6.735425 -6.448745 0
M  V30 4 C 10.924979 8.132224 -6.132903 0
M  V30 5 N 9.948826 8.767973 -6.784231 0
M  V30 6 H 8.581217 7.974808 -8.119429 0
M  V30 7 H 9.598906 5.693028 -7.856135 0
M  V30 8 H 11.646289 5.980642 -6.076970 0
M  V30 9 H 11.557543 8.695530 -5.460431 0
M  V30 END ATOM
M  V30 BEGIN BOND
M  V30 1 1 2 1
M  V30 2 2 3 2
M  V30 3 1 4 3
M  V30 4 1 5 1
M  V30 5 2 5 4
M  V30 6 1 6 1
M  V30 7 1 7 2
M  V30 8 1 8 3
M  V30 9 1 9 4
M  V30 END BOND
M  V30 END CTAB
M  END
>  <i_epik_Tot_Q>  (1) 
0

>  <i_epik_Tot_abs_Q>  (1) 
0

>  <i_i_glide_confnum>  (1) 
1

>  <i_i_glide_lignum>  (1) 
5

>  <i_i_glide_posenum>  (1) 
185

>  <i_i_glide_rotatable_bonds>  (1) 
0

>  <i_lp_mmshare_version>  (1) 
72125

>  <i_m_source_file_index>  (1) 
5

>  <i_f3d_flags>  (1) 
0

>  <num_sample>  (1) 
100

>  <b_lp_Chiralities_Consistent>  (1) 
1

>  <r_epik_Charging_Adjusted_Penalty>  (1) 
0

>  <r_epik_Ionization_Penalty>  (1) 
1.0045315435319e-05

>  <r_epik_Ionization_Penalty_Charging>  (1) 
0

>  <r_epik_Ionization_Penalty_Neutral>  (1) 
1.0045315435319e-05

>  <r_epik_State_Penalty>  (1) 
-0

>  <r_glide_ring_energy>  (1) 
0

>  <r_i_docking_score>  (1) 
-4.0824223141539058

>  <r_i_glide_ecoul>  (1) 
-2.5544923646287834

>  <r_i_glide_eff_state_penalty>  (1) 
-0

>  <r_i_glide_einternal>  (1) 
0

>  <r_i_glide_emodel>  (1) 
-18.473659024100073

>  <r_i_glide_emodel_strain>  (1) 
0

>  <r_i_glide_energy>  (1) 
-13.834500636552681

>  <r_i_glide_erotb>  (1) 
0

>  <r_i_glide_esite>  (1) 
-0.093906437469098117

>  <r_i_glide_evdw>  (1) 
-11.280008271923897

>  <r_i_glide_gscore>  (1) 
-4.0824223141539058

>  <r_i_glide_gscore_strain>  (1) 
0

>  <r_i_glide_hbond>  (1) 
-0.15199683052548693

>  <r_i_glide_ligand_efficiency>  (1) 
-0.81648446283078113

>  <r_i_glide_ligand_efficiency_ln>  (1) 
-1.5644834064458717

>  <r_i_glide_ligand_efficiency_sa>  (1) 
-1.3961687922758794

>  <r_i_glide_lipo>  (1) 
-0.63934477786880883

>  <r_i_glide_metal>  (1) 
-0

>  <r_i_glide_rewards>  (1) 
-2.25

>  <r_lp_Energy>  (1) 
2.3130189999999997

>  <r_lp_tautomer_probability>  (1) 
1

>  <s_epik_cmdline>  (1) 
J2VwaWtfcHl0aG9uJywgJy1waHQnLCAnMS4wJywgJy1waCcsICc3LjQnLCAnLXRuJywgJzgnLCAnLW1hJywgJzUwMCcsICctaW1hZScsICc8aW5maWxlLm1hZT4nLCAnLW9tYWUnLCAnPG91dGZpbGUubWFlPic=

>  <s_epik_input>  (1) 
W25IXTFbY0hdW2NIXVtjSF1uMQ==

>  <s_glide_docking_method>  (1) 
confgen

>  <s_i_glide_gridfile>  (1) 
gpcr_drd2_6luq_protein_autoprepared_prepared

>  <s_lp_Force_Field>  (1) 
S-OPLS

>  <s_lp_Variant>  (1) 
Pocket2Mol_4-1

>  <s_m_source_file>  (1) 
generated_generic_title2_ligand_Pocket2Mol_2026-06-23_prepared.sdf

>  <GenAI_Model>  (1) 
Pocket2Mol

>  <Protein>  (1) 
generic_title2

$$$$
Pocket2Mol_22
     RDKit          3D

  0  0  0  0  0  0  0  0  0  0999 V3000
M  V30 BEGIN CTAB
M  V30 COUNTS 9 9 0 0 1
M  V30 BEGIN ATOM
M  V30 1 C 11.775370 7.001929 -3.985037 0
M  V30 2 O 12.404346 7.601368 -2.929313 0
M  V30 3 C 12.391160 8.940778 -3.201740 0
M  V30 4 C 11.375406 7.929013 -4.905303 0
M  V30 5 C 11.775986 9.190302 -4.395649 0
M  V30 6 H 11.697372 5.926449 -3.923775 0
M  V30 7 H 12.854974 9.566280 -2.452752 0
M  V30 8 H 10.856375 7.722452 -5.830332 0
M  V30 9 H 11.631700 10.161885 -4.844908 0
M  V30 END ATOM
M  V30 BEGIN BOND
M  V30 1 1 2 1
M  V30 2 1 3 2
M  V30 3 2 4 1
M  V30 4 2 5 3
M  V30 5 1 5 4
M  V30 6 1 6 1
M  V30 7 1 7 3
M  V30 8 1 8 4
M  V30 9 1 9 5
M  V30 END BOND
M  V30 END CTAB
M  END
>  <i_epik_Tot_Q>  (1) 
0

>  <i_epik_Tot_abs_Q>  (1) 
0

>  <i_i_glide_confnum>  (1) 
1

>  <i_i_glide_lignum>  (1) 
26

>  <i_i_glide_posenum>  (1) 
387

>  <i_i_glide_rotatable_bonds>  (1) 
0

>  <i_lp_mmshare_version>  (1) 
72125

>  <i_m_source_file_index>  (1) 
23

>  <i_f3d_flags>  (1) 
0

>  <num_sample>  (1) 
100

>  <b_lp_Chiralities_Consistent>  (1) 
1

>  <r_epik_Charging_Adjusted_Penalty>  (1) 
0

>  <r_epik_Ionization_Penalty>  (1) 
0

>  <r_epik_Ionization_Penalty_Charging>  (1) 
0

>  <r_epik_Ionization_Penalty_Neutral>  (1) 
0

>  <r_epik_State_Penalty>  (1) 
-0

>  <r_glide_ring_energy>  (1) 
0

>  <r_i_docking_score>  (1) 
-4.0581611204141517

>  <r_i_glide_ecoul>  (1) 
-1.2389768004889092

>  <r_i_glide_eff_state_penalty>  (1) 
-0

>  <r_i_glide_einternal>  (1) 
0

>  <r_i_glide_emodel>  (1) 
-14.98659491880143

>  <r_i_glide_emodel_strain>  (1) 
0

>  <r_i_glide_energy>  (1) 
-11.851395543433778

>  <r_i_glide_erotb>  (1) 
0

>  <r_i_glide_esite>  (1) 
0

>  <r_i_glide_evdw>  (1) 
-10.612418742944868

>  <r_i_glide_gscore>  (1) 
-4.0581611204141517

>  <r_i_glide_gscore_strain>  (1) 
0

>  <r_i_glide_hbond>  (1) 
0

>  <r_i_glide_ligand_efficiency>  (1) 
-0.81163222408283031

>  <r_i_glide_ligand_efficiency_ln>  (1) 
-1.5551859276194362

>  <r_i_glide_ligand_efficiency_sa>  (1) 
-1.3878715807293509

>  <r_i_glide_lipo>  (1) 
-0.98188288477008656

>  <r_i_glide_metal>  (1) 
-0

>  <r_i_glide_rewards>  (1) 
-2.3598107784234847

>  <r_lp_Energy>  (1) 
2.5980879999999997

>  <r_lp_tautomer_probability>  (1) 
1

>  <s_epik_cmdline>  (1) 
J2VwaWtfcHl0aG9uJywgJy1waHQnLCAnMS4wJywgJy1waCcsICc3LjQnLCAnLXRuJywgJzgnLCAnLW1hJywgJzUwMCcsICctaW1hZScsICc8aW5maWxlLm1hZT4nLCAnLW9tYWUnLCAnPG91dGZpbGUubWFlPic=

>  <s_epik_input>  (1) 
W2NIXTFvW2NIXVtjSF1bY0hdMQ==

>  <s_glide_docking_method>  (1) 
confgen

>  <s_i_glide_gridfile>  (1) 
gpcr_drd2_6luq_protein_autoprepared_prepared

>  <s_lp_Force_Field>  (1) 
S-OPLS

>  <s_lp_Variant>  (1) 
Pocket2Mol_22-1

>  <s_m_source_file>  (1) 
generated_generic_title2_ligand_Pocket2Mol_2026-06-23_prepared.sdf

>  <GenAI_Model>  (1) 
Pocket2Mol

>  <Protein>  (1) 
generic_title2

$$$$
Pocket2Mol_91
     RDKit          3D

  0  0  0  0  0  0  0  0  0  0999 V3000
M  V30 BEGIN CTAB
M  V30 COUNTS 21 22 0 0 1
M  V30 BEGIN ATOM
M  V30 1 C 11.901543 8.114668 -7.994515 0
M  V30 2 O 10.527996 8.116210 -7.658808 0
M  V30 3 C 12.081125 8.306272 -9.497329 0
M  V30 4 O 10.827295 8.390046 -10.140332 0
M  V30 5 C 9.829720 6.974364 -7.748556 0
M  V30 6 C 10.151825 7.211240 -10.282468 0
M  V30 7 C 9.919837 6.694078 -11.566753 0
M  V30 8 O 9.375351 6.390230 -6.770579 0
M  V30 9 C 9.657958 6.491399 -9.163154 0
M  V30 10 C 9.212733 5.485142 -11.695276 0
M  V30 11 C 8.956615 5.292539 -9.403615 0
M  V30 12 N 8.975634 4.950976 -12.955679 0
M  V30 13 N 8.739104 4.790227 -10.641261 0
M  V30 14 H 12.390288 8.926860 -7.456759 0
M  V30 15 H 12.373402 7.190229 -7.657927 0
M  V30 16 H 12.599038 9.243231 -9.689091 0
M  V30 17 H 12.689971 7.512559 -9.929090 0
M  V30 18 H 10.278305 7.216919 -12.439611 0
M  V30 19 H 8.554592 4.719251 -8.580785 0
M  V30 20 H 9.341265 5.385100 -13.789130 0
M  V30 21 H 8.510099 4.063124 -13.067677 0
M  V30 END ATOM
M  V30 BEGIN BOND
M  V30 1 1 2 1
M  V30 2 1 3 1
M  V30 3 1 4 3
M  V30 4 1 5 2
M  V30 5 1 6 4
M  V30 6 1 7 6
M  V30 7 2 8 5
M  V30 8 1 9 5
M  V30 9 2 9 6
M  V30 10 2 10 7
M  V30 11 1 11 9
M  V30 12 1 12 10
M  V30 13 1 13 10
M  V30 14 2 13 11
M  V30 15 1 14 1
M  V30 16 1 15 1
M  V30 17 1 16 3
M  V30 18 1 17 3
M  V30 19 1 18 7
M  V30 20 1 19 11
M  V30 21 1 20 12
M  V30 22 1 21 12
M  V30 END BOND
M  V30 END CTAB
M  END
>  <i_epik_Tot_Q>  (1) 
0

>  <i_epik_Tot_abs_Q>  (1) 
0

>  <i_i_glide_confnum>  (1) 
1

>  <i_i_glide_lignum>  (1) 
99

>  <i_i_glide_posenum>  (1) 
22

>  <i_i_glide_rotatable_bonds>  (1) 
0

>  <i_lp_mmshare_version>  (1) 
72125

>  <i_m_source_file_index>  (1) 
92

>  <i_f3d_flags>  (1) 
0

>  <num_sample>  (1) 
100

>  <b_lp_Chiralities_Consistent>  (1) 
1

>  <r_epik_Charging_Adjusted_Penalty>  (1) 
0.47186222519243537

>  <r_epik_Ionization_Penalty>  (1) 
0.4718627144316776

>  <r_epik_Ionization_Penalty_Charging>  (1) 
0

>  <r_epik_Ionization_Penalty_Neutral>  (1) 
0.4718627144316776

>  <r_epik_State_Penalty>  (1) 
0.47186222519243537

>  <r_glide_ring_energy>  (1) 
0

>  <r_i_docking_score>  (1) 
-4.0558473128773604

>  <r_i_glide_ecoul>  (1) 
1.1715505482821111

>  <r_i_glide_eff_state_penalty>  (1) 
0.47186222519243537

>  <r_i_glide_einternal>  (1) 
0

>  <r_i_glide_emodel>  (1) 
-29.998447651559914

>  <r_i_glide_emodel_strain>  (1) 
0.14622233505670579

>  <r_i_glide_energy>  (1) 
-23.114338627644187

>  <r_i_glide_erotb>  (1) 
0

>  <r_i_glide_esite>  (1) 
-0.043506294748798503

>  <r_i_glide_evdw>  (1) 
-24.2858891759263

>  <r_i_glide_gscore>  (1) 
-4.5277095380697956

>  <r_i_glide_gscore_strain>  (1) 
0

>  <r_i_glide_hbond>  (1) 
0

>  <r_i_glide_ligand_efficiency>  (1) 
-0.31198825483672005

>  <r_i_glide_ligand_efficiency_ln>  (1) 
-1.1377012423439792

>  <r_i_glide_ligand_efficiency_sa>  (1) 
-0.73358880575904328

>  <r_i_glide_lipo>  (1) 
-0.67859585224186025

>  <r_i_glide_metal>  (1) 
-0

>  <r_i_glide_rewards>  (1) 
-2.7670455145251385

>  <r_lp_Energy>  (1) 
11.927572999999999

>  <s_epik_Chemistry_Notes>  (1) 
This compound has an ester and may undergo hydrolysis at high or low pH.

>  <s_epik_cmdline>  (1) 
J2VwaWtfcHl0aG9uJywgJy1waHQnLCAnMS4wJywgJy1waCcsICc3LjQnLCAnLXRuJywgJzgnLCAnLW1hJywgJzUwMCcsICctaW1hZScsICc8aW5maWxlLm1hZT4nLCAnLW9tYWUnLCAnPG91dGZpbGUubWFlPic=

>  <s_epik_input>  (1) 
TzFbQ0gyXVtDSDJdT0MoPU8pYyhjMTIpW2NIXW5jKFtjSF0yKVtOSDJd

>  <s_glide_docking_method>  (1) 
confgen

>  <s_i_glide_gridfile>  (1) 
gpcr_drd2_6luq_protein_autoprepared_prepared

>  <s_lp_Force_Field>  (1) 
S-OPLS

>  <s_lp_Variant>  (1) 
Pocket2Mol_91-2

>  <s_m_source_file>  (1) 
generated_generic_title2_ligand_Pocket2Mol_2026-06-23_prepared.sdf

>  <GenAI_Model>  (1) 
Pocket2Mol

>  <Protein>  (1) 
generic_title2

$$$$
Pocket2Mol_4
     RDKit          3D

  0  0  0  0  0  0  0  0  0  0999 V3000
M  V30 BEGIN CTAB
M  V30 COUNTS 9 9 0 0 1
M  V30 BEGIN ATOM
M  V30 1 N 9.775410 8.064101 -9.218982 0
M  V30 2 C 10.530584 7.858107 -10.332507 0
M  V30 3 C 11.828936 8.060747 -9.977152 0
M  V30 4 C 11.750442 8.390226 -8.584496 0
M  V30 5 N 10.494498 8.390219 -8.129412 0
M  V30 6 H 8.754682 7.990210 -9.185024 0
M  V30 7 H 10.087601 7.590417 -11.280940 0
M  V30 8 H 12.701923 7.990226 -10.606785 0
M  V30 9 H 12.553123 8.628416 -7.902091 0
M  V30 END ATOM
M  V30 BEGIN BOND
M  V30 1 1 2 1
M  V30 2 2 3 2
M  V30 3 1 4 3
M  V30 4 1 5 1
M  V30 5 2 5 4
M  V30 6 1 6 1
M  V30 7 1 7 2
M  V30 8 1 8 3
M  V30 9 1 9 4
M  V30 END BOND
M  V30 END CTAB
M  END
>  <i_epik_Tot_Q>  (1) 
0

>  <i_epik_Tot_abs_Q>  (1) 
0

>  <i_i_glide_confnum>  (1) 
1

>  <i_i_glide_lignum>  (1) 
5

>  <i_i_glide_posenum>  (1) 
291

>  <i_i_glide_rotatable_bonds>  (1) 
0

>  <i_lp_mmshare_version>  (1) 
72125

>  <i_m_source_file_index>  (1) 
5

>  <i_f3d_flags>  (1) 
0

>  <num_sample>  (1) 
100

>  <b_lp_Chiralities_Consistent>  (1) 
1

>  <r_epik_Charging_Adjusted_Penalty>  (1) 
0

>  <r_epik_Ionization_Penalty>  (1) 
1.0045315435319e-05

>  <r_epik_Ionization_Penalty_Charging>  (1) 
0

>  <r_epik_Ionization_Penalty_Neutral>  (1) 
1.0045315435319e-05

>  <r_epik_State_Penalty>  (1) 
-0

>  <r_glide_ring_energy>  (1) 
0

>  <r_i_docking_score>  (1) 
-4.0531755007426371

>  <r_i_glide_ecoul>  (1) 
-3.7431122445762828

>  <r_i_glide_eff_state_penalty>  (1) 
-0

>  <r_i_glide_einternal>  (1) 
0

>  <r_i_glide_emodel>  (1) 
-18.395040914963232

>  <r_i_glide_emodel_strain>  (1) 
0

>  <r_i_glide_energy>  (1) 
-13.789117844417593

>  <r_i_glide_erotb>  (1) 
0

>  <r_i_glide_esite>  (1) 
-0.10000000000000001

>  <r_i_glide_evdw>  (1) 
-10.04600559984131

>  <r_i_glide_gscore>  (1) 
-4.0531755007426371

>  <r_i_glide_gscore_strain>  (1) 
0

>  <r_i_glide_hbond>  (1) 
-0.16

>  <r_i_glide_ligand_efficiency>  (1) 
-0.81063510014852747

>  <r_i_glide_ligand_efficiency_ln>  (1) 
-1.5532753170439717

>  <r_i_glide_ligand_efficiency_sa>  (1) 
-1.3861665227858373

>  <r_i_glide_lipo>  (1) 
-0.47940838406412956

>  <r_i_glide_metal>  (1) 
-0

>  <r_i_glide_rewards>  (1) 
-2.25

>  <r_lp_Energy>  (1) 
2.3130189999999997

>  <r_lp_tautomer_probability>  (1) 
1

>  <s_epik_cmdline>  (1) 
J2VwaWtfcHl0aG9uJywgJy1waHQnLCAnMS4wJywgJy1waCcsICc3LjQnLCAnLXRuJywgJzgnLCAnLW1hJywgJzUwMCcsICctaW1hZScsICc8aW5maWxlLm1hZT4nLCAnLW9tYWUnLCAnPG91dGZpbGUubWFlPic=

>  <s_epik_input>  (1) 
W25IXTFbY0hdW2NIXVtjSF1uMQ==

>  <s_glide_docking_method>  (1) 
confgen

>  <s_i_glide_gridfile>  (1) 
gpcr_drd2_6luq_protein_autoprepared_prepared

>  <s_lp_Force_Field>  (1) 
S-OPLS

>  <s_lp_Variant>  (1) 
Pocket2Mol_4-1

>  <s_m_source_file>  (1) 
generated_generic_title2_ligand_Pocket2Mol_2026-06-23_prepared.sdf

>  <GenAI_Model>  (1) 
Pocket2Mol

>  <Protein>  (1) 
generic_title2

$$$$
Pocket2Mol_9
     RDKit          3D

  0  0  0  0  0  0  0  0  0  0999 V3000
M  V30 BEGIN CTAB
M  V30 COUNTS 13 13 0 0 1
M  V30 BEGIN ATOM
M  V30 1 N 11.338185 8.205376 -8.389945 0 CHG=1
M  V30 2 C 11.465750 8.052814 -9.744964 0
M  V30 3 C 10.211320 7.786660 -10.236729 0
M  V30 4 C 10.061715 8.044705 -8.028696 0
M  V30 5 C 9.724486 7.530591 -11.622587 0
M  V30 6 N 9.375782 7.790419 -9.148241 0
M  V30 7 H 12.417580 8.142493 -10.249997 0
M  V30 8 H 9.662710 8.107609 -7.030910 0
M  V30 9 H 10.552663 7.574278 -12.330627 0
M  V30 10 H 9.266517 6.543152 -11.687438 0
M  V30 11 H 8.985209 8.279058 -11.909367 0
M  V30 12 H 8.376885 7.623842 -9.185025 0
M  V30 13 H 12.099177 8.410116 -7.753091 0
M  V30 END ATOM
M  V30 BEGIN BOND
M  V30 1 1 2 1
M  V30 2 2 3 2
M  V30 3 2 4 1
M  V30 4 1 5 3
M  V30 5 1 6 3
M  V30 6 1 6 4
M  V30 7 1 7 2
M  V30 8 1 8 4
M  V30 9 1 9 5
M  V30 10 1 10 5
M  V30 11 1 11 5
M  V30 12 1 12 6
M  V30 13 1 13 1
M  V30 END BOND
M  V30 END CTAB
M  END
>  <i_epik_Tot_Q>  (1) 
1

>  <i_epik_Tot_abs_Q>  (1) 
1

>  <i_i_glide_confnum>  (1) 
1

>  <i_i_glide_lignum>  (1) 
11

>  <i_i_glide_posenum>  (1) 
291

>  <i_i_glide_rotatable_bonds>  (1) 
0

>  <i_lp_mmshare_version>  (1) 
72125

>  <i_m_source_file_index>  (1) 
10

>  <i_f3d_flags>  (1) 
0

>  <num_sample>  (1) 
100

>  <b_lp_Chiralities_Consistent>  (1) 
1

>  <r_epik_Charging_Adjusted_Penalty>  (1) 
0.63910500234431922

>  <r_epik_Ionization_Penalty>  (1) 
0.82018112513013652

>  <r_epik_Ionization_Penalty_Charging>  (1) 
0

>  <r_epik_Ionization_Penalty_Neutral>  (1) 
0.82018112513013652

>  <r_epik_State_Penalty>  (1) 
0.63910500234431922

>  <r_glide_ring_energy>  (1) 
0

>  <r_i_docking_score>  (1) 
-4.0355731568691189

>  <r_i_glide_ecoul>  (1) 
-10.232355892520403

>  <r_i_glide_eff_state_penalty>  (1) 
0.63910500234431922

>  <r_i_glide_einternal>  (1) 
0

>  <r_i_glide_emodel>  (1) 
-26.620240688364195

>  <r_i_glide_emodel_strain>  (1) 
0

>  <r_i_glide_energy>  (1) 
-17.911156767197056

>  <r_i_glide_erotb>  (1) 
0

>  <r_i_glide_esite>  (1) 
-0.14809100407513709

>  <r_i_glide_evdw>  (1) 
-7.6788008746766554

>  <r_i_glide_gscore>  (1) 
-4.6746781592134381

>  <r_i_glide_gscore_strain>  (1) 
0

>  <r_i_glide_hbond>  (1) 
-0.16610137616831971

>  <r_i_glide_ligand_efficiency>  (1) 
-0.67259552614485318

>  <r_i_glide_ligand_efficiency_ln>  (1) 
-1.4455303909061294

>  <r_i_glide_ligand_efficiency_sa>  (1) 
-1.2221871812045806

>  <r_i_glide_lipo>  (1) 
-0.1916923513580879

>  <r_i_glide_metal>  (1) 
-0

>  <r_i_glide_rewards>  (1) 
-2.25

>  <r_lp_Energy>  (1) 
7.4764169999999996

>  <r_lp_tautomer_probability>  (1) 
1

>  <s_epik_cmdline>  (1) 
J2VwaWtfcHl0aG9uJywgJy1waHQnLCAnMS4wJywgJy1waCcsICc3LjQnLCAnLXRuJywgJzgnLCAnLW1hJywgJzUwMCcsICctaW1hZScsICc8aW5maWxlLm1hZT4nLCAnLW9tYWUnLCAnPG91dGZpbGUubWFlPic=

>  <s_epik_input>  (1) 
W25IXTFbY0hdbltjSF1jMVtDSDNd

>  <s_glide_docking_method>  (1) 
confgen

>  <s_i_glide_gridfile>  (1) 
gpcr_drd2_6luq_protein_autoprepared_prepared

>  <s_lp_Force_Field>  (1) 
S-OPLS

>  <s_lp_Variant>  (1) 
Pocket2Mol_9-2

>  <s_m_source_file>  (1) 
generated_generic_title2_ligand_Pocket2Mol_2026-06-23_prepared.sdf

>  <GenAI_Model>  (1) 
Pocket2Mol

>  <Protein>  (1) 
generic_title2

$$$$
Pocket2Mol_99
     RDKit          3D

  0  0  0  0  0  0  0  0  0  0999 V3000
M  V30 BEGIN CTAB
M  V30 COUNTS 11 11 0 0 1
M  V30 BEGIN ATOM
M  V30 1 O 11.251269 9.956951 -4.876307 0
M  V30 2 C 11.076061 9.190126 -6.045260 0
M  V30 3 C 10.975423 7.779963 -5.475742 0
M  V30 4 C 12.082284 9.175420 -4.093746 0
M  V30 5 O 11.775410 7.837821 -4.307651 0
M  V30 6 H 10.188095 9.483542 -6.603239 0
M  V30 7 H 11.949041 9.294258 -6.692250 0
M  V30 8 H 9.950548 7.548143 -5.186847 0
M  V30 9 H 11.320293 7.015804 -6.173254 0
M  V30 10 H 13.119354 9.349346 -4.386912 0
M  V30 11 H 11.966845 9.431167 -3.039611 0
M  V30 END ATOM
M  V30 BEGIN BOND
M  V30 1 1 2 1
M  V30 2 1 3 2
M  V30 3 1 4 1
M  V30 4 1 5 3
M  V30 5 1 5 4
M  V30 6 1 6 2
M  V30 7 1 7 2
M  V30 8 1 8 3
M  V30 9 1 9 3
M  V30 10 1 10 4
M  V30 11 1 11 4
M  V30 END BOND
M  V30 END CTAB
M  END
>  <i_epik_Tot_Q>  (1) 
0

>  <i_epik_Tot_abs_Q>  (1) 
0

>  <i_i_glide_confnum>  (1) 
1

>  <i_i_glide_lignum>  (1) 
108

>  <i_i_glide_posenum>  (1) 
286

>  <i_i_glide_rotatable_bonds>  (1) 
0

>  <i_lp_mmshare_version>  (1) 
72125

>  <i_m_source_file_index>  (1) 
100

>  <i_f3d_flags>  (1) 
0

>  <num_sample>  (1) 
100

>  <b_lp_Chiralities_Consistent>  (1) 
1

>  <r_epik_Charging_Adjusted_Penalty>  (1) 
0

>  <r_epik_Ionization_Penalty>  (1) 
7.9724310449397378e-14

>  <r_epik_Ionization_Penalty_Charging>  (1) 
0

>  <r_epik_Ionization_Penalty_Neutral>  (1) 
7.9724310449397378e-14

>  <r_epik_State_Penalty>  (1) 
-0

>  <r_glide_ring_energy>  (1) 
0

>  <r_i_docking_score>  (1) 
-4.0304639556830697

>  <r_i_glide_ecoul>  (1) 
-0.71750673606598725

>  <r_i_glide_eff_state_penalty>  (1) 
-0

>  <r_i_glide_einternal>  (1) 
0

>  <r_i_glide_emodel>  (1) 
-16.201104129776336

>  <r_i_glide_emodel_strain>  (1) 
0

>  <r_i_glide_energy>  (1) 
-12.713616727847855

>  <r_i_glide_erotb>  (1) 
0

>  <r_i_glide_esite>  (1) 
0

>  <r_i_glide_evdw>  (1) 
-11.996109991781868

>  <r_i_glide_gscore>  (1) 
-4.0304639556830697

>  <r_i_glide_gscore_strain>  (1) 
0

>  <r_i_glide_hbond>  (1) 
0

>  <r_i_glide_ligand_efficiency>  (1) 
-0.80609279113661392

>  <r_i_glide_ligand_efficiency_ln>  (1) 
-1.5445717012379216

>  <r_i_glide_ligand_efficiency_sa>  (1) 
-1.3783992836330925

>  <r_i_glide_lipo>  (1) 
-0.56190441797330815

>  <r_i_glide_metal>  (1) 
-0

>  <r_i_glide_rewards>  (1) 
-2.7611280277107699

>  <r_lp_Energy>  (1) 
-12.242958999999999

>  <r_lp_tautomer_probability>  (1) 
1

>  <s_epik_Chemistry_Notes>  (1) 
This compound contains an acetal/aminal-like group ( X-CH(R)-Y where X, Y are N, S, or O) that may be acid/base labile, releasing an aldehyde.

>  <s_epik_cmdline>  (1) 
J2VwaWtfcHl0aG9uJywgJy1waHQnLCAnMS4wJywgJy1waCcsICc3LjQnLCAnLXRuJywgJzgnLCAnLW1hJywgJzUwMCcsICctaW1hZScsICc8aW5maWxlLm1hZT4nLCAnLW9tYWUnLCAnPG91dGZpbGUubWFlPic=

>  <s_epik_input>  (1) 
TzFbQ0gyXVtDSDJdT1tDSDJdMQ==

>  <s_glide_docking_method>  (1) 
confgen

>  <s_i_glide_gridfile>  (1) 
gpcr_drd2_6luq_protein_autoprepared_prepared

>  <s_lp_Force_Field>  (1) 
S-OPLS

>  <s_lp_Variant>  (1) 
Pocket2Mol_99-1

>  <s_m_source_file>  (1) 
generated_generic_title2_ligand_Pocket2Mol_2026-06-23_prepared.sdf

>  <GenAI_Model>  (1) 
Pocket2Mol

>  <Protein>  (1) 
generic_title2

$$$$
Pocket2Mol_77
     RDKit          3D

  0  0  0  0  0  0  0  0  0  0999 V3000
M  V30 BEGIN CTAB
M  V30 COUNTS 11 11 0 0 1
M  V30 BEGIN ATOM
M  V30 1 C 10.884552 6.790227 -5.540907 0
M  V30 2 O 11.375031 8.152755 -5.230609 0
M  V30 3 C 9.872297 6.790197 -6.785080 0
M  V30 4 C 9.981800 8.232549 -6.988968 0
M  V30 5 C 10.755768 8.876826 -6.176318 0
M  V30 6 H 10.392839 6.382581 -4.656876 0
M  V30 7 H 11.740657 6.146429 -5.749801 0
M  V30 8 H 8.855138 6.496794 -6.521224 0
M  V30 9 H 10.236138 6.225950 -7.644063 0
M  V30 10 H 9.431028 8.710565 -7.786884 0
M  V30 11 H 10.973681 9.934559 -6.153806 0
M  V30 END ATOM
M  V30 BEGIN BOND
M  V30 1 1 2 1
M  V30 2 1 3 1
M  V30 3 1 4 3
M  V30 4 1 5 2
M  V30 5 2 5 4
M  V30 6 1 6 1
M  V30 7 1 7 1
M  V30 8 1 8 3
M  V30 9 1 9 3
M  V30 10 1 10 4
M  V30 11 1 11 5
M  V30 END BOND
M  V30 END CTAB
M  END
>  <i_epik_Tot_Q>  (1) 
0

>  <i_epik_Tot_abs_Q>  (1) 
0

>  <i_i_glide_confnum>  (1) 
1

>  <i_i_glide_lignum>  (1) 
84

>  <i_i_glide_posenum>  (1) 
303

>  <i_i_glide_rotatable_bonds>  (1) 
0

>  <i_lp_mmshare_version>  (1) 
72125

>  <i_m_source_file_index>  (1) 
78

>  <i_f3d_flags>  (1) 
0

>  <num_sample>  (1) 
100

>  <b_lp_Chiralities_Consistent>  (1) 
1

>  <r_epik_Charging_Adjusted_Penalty>  (1) 
0

>  <r_epik_Ionization_Penalty>  (1) 
0

>  <r_epik_Ionization_Penalty_Charging>  (1) 
0

>  <r_epik_Ionization_Penalty_Neutral>  (1) 
0

>  <r_epik_State_Penalty>  (1) 
-0

>  <r_glide_ring_energy>  (1) 
0

>  <r_i_docking_score>  (1) 
-4.0254946841873691

>  <r_i_glide_ecoul>  (1) 
-0.84326979153295778

>  <r_i_glide_eff_state_penalty>  (1) 
-0

>  <r_i_glide_einternal>  (1) 
0

>  <r_i_glide_emodel>  (1) 
-16.714378752423432

>  <r_i_glide_emodel_strain>  (1) 
0

>  <r_i_glide_energy>  (1) 
-13.201827917007151

>  <r_i_glide_erotb>  (1) 
0

>  <r_i_glide_esite>  (1) 
0

>  <r_i_glide_evdw>  (1) 
-12.358558125474193

>  <r_i_glide_gscore>  (1) 
-4.0254946841873691

>  <r_i_glide_gscore_strain>  (1) 
0

>  <r_i_glide_hbond>  (1) 
0

>  <r_i_glide_ligand_efficiency>  (1) 
-0.8050989368374738

>  <r_i_glide_ligand_efficiency_ln>  (1) 
-1.542667355680581

>  <r_i_glide_ligand_efficiency_sa>  (1) 
-1.3766998166870617

>  <r_i_glide_lipo>  (1) 
-0.70165930427859202

>  <r_i_glide_metal>  (1) 
-0

>  <r_i_glide_rewards>  (1) 
-2.5794170049051242

>  <r_lp_Energy>  (1) 
-3.1771669999999999

>  <r_lp_tautomer_probability>  (1) 
1

>  <s_epik_cmdline>  (1) 
J2VwaWtfcHl0aG9uJywgJy1waHQnLCAnMS4wJywgJy1waCcsICc3LjQnLCAnLXRuJywgJzgnLCAnLW1hJywgJzUwMCcsICctaW1hZScsICc8aW5maWxlLm1hZT4nLCAnLW9tYWUnLCAnPG91dGZpbGUubWFlPic=

>  <s_epik_input>  (1) 
W0NIMl0xT1tDSF09W0NIXVtDSDJdMQ==

>  <s_glide_docking_method>  (1) 
confgen

>  <s_i_glide_gridfile>  (1) 
gpcr_drd2_6luq_protein_autoprepared_prepared

>  <s_lp_Force_Field>  (1) 
S-OPLS

>  <s_lp_Variant>  (1) 
Pocket2Mol_77-1

>  <s_m_source_file>  (1) 
generated_generic_title2_ligand_Pocket2Mol_2026-06-23_prepared.sdf

>  <GenAI_Model>  (1) 
Pocket2Mol

>  <Protein>  (1) 
generic_title2

$$$$
Pocket2Mol_1
     RDKit          3D

  0  0  0  0  0  0  0  0  0  0999 V3000
M  V30 BEGIN CTAB
M  V30 COUNTS 10 10 0 0 1
M  V30 BEGIN ATOM
M  V30 1 N 10.982201 8.221903 -6.352354 0
M  V30 2 C 11.192045 8.390297 -7.690229 0
M  V30 3 C 10.575411 7.540906 -8.453183 0
M  V30 4 C 10.185443 7.190149 -6.400579 0
M  V30 5 C 9.753908 6.534632 -7.771730 0
M  V30 6 H 11.833480 9.190844 -8.029387 0
M  V30 7 H 10.644078 7.550707 -9.531058 0
M  V30 8 H 9.775214 6.723149 -5.501478 0
M  V30 9 H 10.122120 5.515523 -7.888119 0
M  V30 10 H 8.685456 6.634232 -7.968887 0
M  V30 END ATOM
M  V30 BEGIN BOND
M  V30 1 1 2 1
M  V30 2 2 3 2
M  V30 3 2 4 1
M  V30 4 1 5 3
M  V30 5 1 5 4
M  V30 6 1 6 2
M  V30 7 1 7 3
M  V30 8 1 8 4
M  V30 9 1 9 5
M  V30 10 1 10 5
M  V30 END BOND
M  V30 END CTAB
M  END
>  <i_epik_Tot_Q>  (1) 
0

>  <i_epik_Tot_abs_Q>  (1) 
0

>  <i_i_glide_confnum>  (1) 
1

>  <i_i_glide_lignum>  (1) 
2

>  <i_i_glide_posenum>  (1) 
244

>  <i_i_glide_rotatable_bonds>  (1) 
0

>  <i_lp_mmshare_version>  (1) 
72125

>  <i_m_source_file_index>  (1) 
2

>  <i_f3d_flags>  (1) 
0

>  <num_sample>  (1) 
100

>  <b_lp_Chiralities_Consistent>  (1) 
1

>  <r_epik_Charging_Adjusted_Penalty>  (1) 
0

>  <r_epik_Ionization_Penalty>  (1) 
0

>  <r_epik_Ionization_Penalty_Charging>  (1) 
0

>  <r_epik_Ionization_Penalty_Neutral>  (1) 
0

>  <r_epik_State_Penalty>  (1) 
-0

>  <r_glide_ring_energy>  (1) 
0

>  <r_i_docking_score>  (1) 
-4.0195147232229509

>  <r_i_glide_ecoul>  (1) 
-1.3878241507814086

>  <r_i_glide_eff_state_penalty>  (1) 
-0

>  <r_i_glide_einternal>  (1) 
0

>  <r_i_glide_emodel>  (1) 
-17.913829121131155

>  <r_i_glide_emodel_strain>  (1) 
0

>  <r_i_glide_energy>  (1) 
-14.126879404077647

>  <r_i_glide_erotb>  (1) 
0

>  <r_i_glide_esite>  (1) 
0

>  <r_i_glide_evdw>  (1) 
-12.739055253296238

>  <r_i_glide_gscore>  (1) 
-4.0195147232229509

>  <r_i_glide_gscore_strain>  (1) 
0

>  <r_i_glide_hbond>  (1) 
0

>  <r_i_glide_ligand_efficiency>  (1) 
-0.80390294464459022

>  <r_i_glide_ligand_efficiency_ln>  (1) 
-1.5403756893658074

>  <r_i_glide_ligand_efficiency_sa>  (1) 
-1.3746546988048174

>  <r_i_glide_lipo>  (1) 
-0.21219770972073534

>  <r_i_glide_metal>  (1) 
-0

>  <r_i_glide_rewards>  (1) 
-2.9621906282201929

>  <r_lp_Energy>  (1) 
-2.9532909999999997

>  <r_lp_tautomer_probability>  (1) 
1

>  <s_epik_Chemistry_Notes>  (1) 
This compound has an imine and may undergo hydrolysis.

>  <s_epik_cmdline>  (1) 
J2VwaWtfcHl0aG9uJywgJy1waHQnLCAnMS4wJywgJy1waCcsICc3LjQnLCAnLXRuJywgJzgnLCAnLW1hJywgJzUwMCcsICctaW1hZScsICc8aW5maWxlLm1hZT4nLCAnLW9tYWUnLCAnPG91dGZpbGUubWFlPic=

>  <s_epik_input>  (1) 
TjE9W0NIXVtDSDJdW0NIXT1bQ0hdMQ==

>  <s_glide_docking_method>  (1) 
confgen

>  <s_i_glide_gridfile>  (1) 
gpcr_drd2_6luq_protein_autoprepared_prepared

>  <s_lp_Force_Field>  (1) 
S-OPLS

>  <s_lp_Variant>  (1) 
Pocket2Mol_1-1

>  <s_m_source_file>  (1) 
generated_generic_title2_ligand_Pocket2Mol_2026-06-23_prepared.sdf

>  <GenAI_Model>  (1) 
Pocket2Mol

>  <Protein>  (1) 
generic_title2

$$$$
Pocket2Mol_45
     RDKit          3D

  0  0  0  0  0  0  0  0  0  0999 V3000
M  V30 BEGIN CTAB
M  V30 COUNTS 15 16 0 0 1
M  V30 BEGIN ATOM
M  V30 1 C 12.429244 8.482745 -2.167860 0
M  V30 2 O 12.177397 7.175970 -2.776808 0
M  V30 3 C 11.775410 7.578253 -3.985026 0
M  V30 4 C 11.777522 8.900573 -4.155217 0
M  V30 5 C 11.375532 9.474186 -5.375027 0
M  V30 6 N 10.976618 8.652401 -6.377983 0 CHG=1
M  V30 7 C 10.957336 7.298633 -6.242950 0
M  V30 8 C 11.366846 6.716777 -5.016778 0
M  V30 9 O 12.176560 9.590213 -3.088468 0
M  V30 10 H 13.465967 8.533853 -1.836300 0
M  V30 11 H 11.785427 8.599284 -1.294031 0
M  V30 12 H 11.352475 10.534784 -5.579271 0
M  V30 13 H 10.620245 6.735780 -7.103124 0
M  V30 14 H 11.362074 5.650342 -4.876847 0
M  V30 15 H 10.678352 9.063031 -7.264723 0
M  V30 END ATOM
M  V30 BEGIN BOND
M  V30 1 1 2 1
M  V30 2 1 3 2
M  V30 3 2 4 3
M  V30 4 1 5 4
M  V30 5 2 6 5
M  V30 6 1 7 6
M  V30 7 1 8 3
M  V30 8 2 8 7
M  V30 9 1 9 1
M  V30 10 1 9 4
M  V30 11 1 10 1
M  V30 12 1 11 1
M  V30 13 1 12 5
M  V30 14 1 13 7
M  V30 15 1 14 8
M  V30 16 1 15 6
M  V30 END BOND
M  V30 END CTAB
M  END
>  <i_epik_Tot_Q>  (1) 
1

>  <i_epik_Tot_abs_Q>  (1) 
1

>  <i_i_glide_confnum>  (1) 
1

>  <i_i_glide_lignum>  (1) 
51

>  <i_i_glide_posenum>  (1) 
284

>  <i_i_glide_rotatable_bonds>  (1) 
0

>  <i_lp_mmshare_version>  (1) 
72125

>  <i_m_source_file_index>  (1) 
46

>  <i_f3d_flags>  (1) 
0

>  <num_sample>  (1) 
100

>  <b_lp_Chiralities_Consistent>  (1) 
1

>  <r_epik_Charging_Adjusted_Penalty>  (1) 
2.6035637255513002

>  <r_epik_Ionization_Penalty>  (1) 
1.3017818627756499

>  <r_epik_Ionization_Penalty_Charging>  (1) 
1.3017818627756499

>  <r_epik_Ionization_Penalty_Neutral>  (1) 
0

>  <r_epik_State_Penalty>  (1) 
1.3017818627756503

>  <r_glide_ring_energy>  (1) 
0

>  <r_i_docking_score>  (1) 
-3.9986962323364237

>  <r_i_glide_ecoul>  (1) 
-0.85655462539519134

>  <r_i_glide_eff_state_penalty>  (1) 
1.3017818627756503

>  <r_i_glide_einternal>  (1) 
0

>  <r_i_glide_emodel>  (1) 
-27.991456468771336

>  <r_i_glide_emodel_strain>  (1) 
0

>  <r_i_glide_energy>  (1) 
-18.070654699715131

>  <r_i_glide_erotb>  (1) 
0

>  <r_i_glide_esite>  (1) 
0

>  <r_i_glide_evdw>  (1) 
-17.214100074319941

>  <r_i_glide_gscore>  (1) 
-5.3004780951120738

>  <r_i_glide_gscore_strain>  (1) 
0

>  <r_i_glide_hbond>  (1) 
0

>  <r_i_glide_ligand_efficiency>  (1) 
-0.44429958137071374

>  <r_i_glide_ligand_efficiency_ln>  (1) 
-1.2506773095269879

>  <r_i_glide_ligand_efficiency_sa>  (1) 
-0.92418037179795498

>  <r_i_glide_lipo>  (1) 
-1.3279565642534645

>  <r_i_glide_metal>  (1) 
-0

>  <r_i_glide_rewards>  (1) 
-2.9833333333333334

>  <r_lp_Energy>  (1) 
25.893000999999998

>  <s_epik_Chemistry_Notes>  (1) 
This compound contains an acetal/aminal-like group ( X-CH(R)-Y where X, Y are N, S, or O) that may be acid/base labile, releasing an aldehyde.

>  <s_epik_cmdline>  (1) 
J2VwaWtfcHl0aG9uJywgJy1waHQnLCAnMS4wJywgJy1waCcsICc3LjQnLCAnLXRuJywgJzgnLCAnLW1hJywgJzUwMCcsICctaW1hZScsICc8aW5maWxlLm1hZT4nLCAnLW9tYWUnLCAnPG91dGZpbGUubWFlPic=

>  <s_epik_input>  (1) 
TzFbQ0gyXU9jKGMxMilbY0hdbltjSF1bY0hdMg==

>  <s_glide_docking_method>  (1) 
confgen

>  <s_i_glide_gridfile>  (1) 
gpcr_drd2_6luq_protein_autoprepared_prepared

>  <s_lp_Force_Field>  (1) 
S-OPLS

>  <s_lp_Variant>  (1) 
Pocket2Mol_45-2

>  <s_m_source_file>  (1) 
generated_generic_title2_ligand_Pocket2Mol_2026-06-23_prepared.sdf

>  <GenAI_Model>  (1) 
Pocket2Mol

>  <Protein>  (1) 
generic_title2

$$$$
Pocket2Mol_2
     RDKit          3D

  0  0  0  0  0  0  0  0  0  0999 V3000
M  V30 BEGIN CTAB
M  V30 COUNTS 10 10 0 0 1
M  V30 BEGIN ATOM
M  V30 1 N 9.375412 7.549427 -8.232117 0
M  V30 2 C 9.683276 6.677544 -7.218851 0
M  V30 3 C 10.976924 6.934560 -6.845103 0
M  V30 4 C 11.461469 8.004051 -7.669762 0
M  V30 5 C 10.446667 8.361968 -8.519613 0
M  V30 6 H 8.465518 7.590419 -8.707968 0
M  V30 7 H 8.960304 5.962940 -6.859437 0
M  V30 8 H 11.519296 6.413656 -6.064462 0
M  V30 9 H 12.445819 8.458957 -7.640414 0
M  V30 10 H 10.388825 9.112789 -9.291575 0
M  V30 END ATOM
M  V30 BEGIN BOND
M  V30 1 1 2 1
M  V30 2 2 3 2
M  V30 3 1 4 3
M  V30 4 1 5 1
M  V30 5 2 5 4
M  V30 6 1 6 1
M  V30 7 1 7 2
M  V30 8 1 8 3
M  V30 9 1 9 4
M  V30 10 1 10 5
M  V30 END BOND
M  V30 END CTAB
M  END
>  <i_epik_Tot_Q>  (1) 
0

>  <i_epik_Tot_abs_Q>  (1) 
0

>  <i_i_glide_confnum>  (1) 
1

>  <i_i_glide_lignum>  (1) 
3

>  <i_i_glide_posenum>  (1) 
375

>  <i_i_glide_rotatable_bonds>  (1) 
0

>  <i_lp_mmshare_version>  (1) 
72125

>  <i_m_source_file_index>  (1) 
3

>  <i_f3d_flags>  (1) 
0

>  <num_sample>  (1) 
100

>  <b_lp_Chiralities_Consistent>  (1) 
1

>  <r_epik_Charging_Adjusted_Penalty>  (1) 
0

>  <r_epik_Ionization_Penalty>  (1) 
4.7655302421719939e-09

>  <r_epik_Ionization_Penalty_Charging>  (1) 
0

>  <r_epik_Ionization_Penalty_Neutral>  (1) 
4.7655302421719939e-09

>  <r_epik_State_Penalty>  (1) 
-0

>  <r_glide_ring_energy>  (1) 
0

>  <r_i_docking_score>  (1) 
-3.997066852965669

>  <r_i_glide_ecoul>  (1) 
-3.7984019704536225

>  <r_i_glide_eff_state_penalty>  (1) 
-0

>  <r_i_glide_einternal>  (1) 
0

>  <r_i_glide_emodel>  (1) 
-17.328343780627453

>  <r_i_glide_emodel_strain>  (1) 
0

>  <r_i_glide_energy>  (1) 
-13.126797501271728

>  <r_i_glide_erotb>  (1) 
0

>  <r_i_glide_esite>  (1) 
-0.10000000000000001

>  <r_i_glide_evdw>  (1) 
-9.3283955308181064

>  <r_i_glide_gscore>  (1) 
-3.997066852965669

>  <r_i_glide_gscore_strain>  (1) 
0

>  <r_i_glide_hbond>  (1) 
-0.16

>  <r_i_glide_ligand_efficiency>  (1) 
-0.79941337059313378

>  <r_i_glide_ligand_efficiency_ln>  (1) 
-1.5317731201495342

>  <r_i_glide_ligand_efficiency_sa>  (1) 
-1.3669776351660032

>  <r_i_glide_lipo>  (1) 
-0.45088678085672057

>  <r_i_glide_metal>  (1) 
-0

>  <r_i_glide_rewards>  (1) 
-2.25

>  <r_lp_Energy>  (1) 
2.9132020000000001

>  <r_lp_tautomer_probability>  (1) 
1

>  <s_epik_cmdline>  (1) 
J2VwaWtfcHl0aG9uJywgJy1waHQnLCAnMS4wJywgJy1waCcsICc3LjQnLCAnLXRuJywgJzgnLCAnLW1hJywgJzUwMCcsICctaW1hZScsICc8aW5maWxlLm1hZT4nLCAnLW9tYWUnLCAnPG91dGZpbGUubWFlPic=

>  <s_epik_input>  (1) 
W25IXTFbY0hdW2NIXVtjSF1bY0hdMQ==

>  <s_glide_docking_method>  (1) 
confgen

>  <s_i_glide_gridfile>  (1) 
gpcr_drd2_6luq_protein_autoprepared_prepared

>  <s_lp_Force_Field>  (1) 
S-OPLS

>  <s_lp_Variant>  (1) 
Pocket2Mol_2-1

>  <s_m_source_file>  (1) 
generated_generic_title2_ligand_Pocket2Mol_2026-06-23_prepared.sdf

>  <GenAI_Model>  (1) 
Pocket2Mol

>  <Protein>  (1) 
generic_title2

$$$$
Pocket2Mol_5
     RDKit          3D

  0  0  0  0  0  0  0  0  0  0999 V3000
M  V30 BEGIN CTAB
M  V30 COUNTS 16 16 0 0 1
M  V30 BEGIN ATOM
M  V30 1 C 9.775410 7.148432 -6.481691 0
M  V30 2 O 11.050333 7.663869 -6.110090 0
M  V30 3 C 11.436554 8.790225 -6.889178 0
M  V30 4 C 11.561474 8.390229 -8.369182 0
M  V30 5 C 10.245231 7.785891 -8.872514 0
M  V30 6 C 9.803968 6.654985 -7.936453 0
M  V30 7 H 9.518907 6.327986 -5.812163 0
M  V30 8 H 9.007937 7.913628 -6.350981 0
M  V30 9 H 10.707841 9.590226 -6.760136 0
M  V30 10 H 12.389884 9.169466 -6.520365 0
M  V30 11 H 11.833900 9.255505 -8.974281 0
M  V30 12 H 12.366183 7.663100 -8.481315 0
M  V30 13 H 9.471208 8.554845 -8.901841 0
M  V30 14 H 10.356087 7.415620 -9.892026 0
M  V30 15 H 10.490093 5.811591 -8.023019 0
M  V30 16 H 8.817118 6.292045 -8.227872 0
M  V30 END ATOM
M  V30 BEGIN BOND
M  V30 1 1 2 1
M  V30 2 1 3 2
M  V30 3 1 4 3
M  V30 4 1 5 4
M  V30 5 1 6 1
M  V30 6 1 6 5
M  V30 7 1 7 1
M  V30 8 1 8 1
M  V30 9 1 9 3
M  V30 10 1 10 3
M  V30 11 1 11 4
M  V30 12 1 12 4
M  V30 13 1 13 5
M  V30 14 1 14 5
M  V30 15 1 15 6
M  V30 16 1 16 6
M  V30 END BOND
M  V30 END CTAB
M  END
>  <i_epik_Tot_Q>  (1) 
0

>  <i_epik_Tot_abs_Q>  (1) 
0

>  <i_i_glide_confnum>  (1) 
2

>  <i_i_glide_lignum>  (1) 
6

>  <i_i_glide_posenum>  (1) 
361

>  <i_i_glide_rotatable_bonds>  (1) 
0

>  <i_lp_mmshare_version>  (1) 
72125

>  <i_m_source_file_index>  (1) 
6

>  <i_f3d_flags>  (1) 
0

>  <num_sample>  (1) 
100

>  <b_lp_Chiralities_Consistent>  (1) 
1

>  <r_epik_Charging_Adjusted_Penalty>  (1) 
0

>  <r_epik_Ionization_Penalty>  (1) 
1.5229185111393156e-11

>  <r_epik_Ionization_Penalty_Charging>  (1) 
0

>  <r_epik_Ionization_Penalty_Neutral>  (1) 
1.5229185111393156e-11

>  <r_epik_State_Penalty>  (1) 
-0

>  <r_glide_ring_energy>  (1) 
0.00023819064548269558

>  <r_i_docking_score>  (1) 
-3.996398572142859

>  <r_i_glide_ecoul>  (1) 
-0.53631982480601414

>  <r_i_glide_eff_state_penalty>  (1) 
-0

>  <r_i_glide_einternal>  (1) 
0

>  <r_i_glide_emodel>  (1) 
-18.672511372631487

>  <r_i_glide_emodel_strain>  (1) 
0

>  <r_i_glide_energy>  (1) 
-14.867147984303543

>  <r_i_glide_erotb>  (1) 
0

>  <r_i_glide_esite>  (1) 
0

>  <r_i_glide_evdw>  (1) 
-14.330828159497528

>  <r_i_glide_gscore>  (1) 
-3.996398572142859

>  <r_i_glide_gscore_strain>  (1) 
0

>  <r_i_glide_hbond>  (1) 
0

>  <r_i_glide_ligand_efficiency>  (1) 
-0.6660664286904765

>  <r_i_glide_ligand_efficiency_ln>  (1) 
-1.4314981703090264

>  <r_i_glide_ligand_efficiency_sa>  (1) 
-1.2103230237676248

>  <r_i_glide_lipo>  (1) 
-0.50774252378041373

>  <r_i_glide_metal>  (1) 
-0

>  <r_i_glide_rewards>  (1) 
-2.6916666666666669

>  <r_lp_Energy>  (1) 
2.9645999999999999

>  <r_lp_tautomer_probability>  (1) 
1

>  <s_epik_cmdline>  (1) 
J2VwaWtfcHl0aG9uJywgJy1waHQnLCAnMS4wJywgJy1waCcsICc3LjQnLCAnLXRuJywgJzgnLCAnLW1hJywgJzUwMCcsICctaW1hZScsICc8aW5maWxlLm1hZT4nLCAnLW9tYWUnLCAnPG91dGZpbGUubWFlPic=

>  <s_epik_input>  (1) 
W0NIMl0xT1tDSDJdW0NIMl1bQ0gyXVtDSDJdMQ==

>  <s_glide_docking_method>  (1) 
confgen

>  <s_i_glide_gridfile>  (1) 
gpcr_drd2_6luq_protein_autoprepared_prepared

>  <s_lp_Force_Field>  (1) 
S-OPLS

>  <s_lp_Variant>  (1) 
Pocket2Mol_5-1

>  <s_m_source_file>  (1) 
generated_generic_title2_ligand_Pocket2Mol_2026-06-23_prepared.sdf

>  <GenAI_Model>  (1) 
Pocket2Mol

>  <Protein>  (1) 
generic_title2

$$$$
Pocket2Mol_5
     RDKit          3D

  0  0  0  0  0  0  0  0  0  0999 V3000
M  V30 BEGIN CTAB
M  V30 COUNTS 16 16 0 0 1
M  V30 BEGIN ATOM
M  V30 1 C 11.806190 8.361009 -8.249622 0
M  V30 2 O 11.430465 8.805623 -6.949034 0
M  V30 3 C 10.881599 7.767905 -6.141055 0
M  V30 4 C 9.602063 7.212671 -6.785025 0
M  V30 5 C 9.890419 6.721062 -8.206978 0
M  V30 6 C 10.575089 7.835789 -9.006159 0
M  V30 7 H 12.252875 9.190260 -8.796522 0
M  V30 8 H 12.573275 7.590233 -8.168950 0
M  V30 9 H 11.616277 6.973748 -5.999777 0
M  V30 10 H 10.657009 8.173565 -5.155389 0
M  V30 11 H 9.194951 6.400642 -6.181566 0
M  V30 12 H 8.836944 7.990275 -6.813612 0
M  V30 13 H 10.534476 5.841445 -8.170084 0
M  V30 14 H 8.965092 6.415184 -8.696814 0
M  V30 15 H 9.869727 8.652295 -9.168668 0
M  V30 16 H 10.862247 7.470608 -9.992363 0
M  V30 END ATOM
M  V30 BEGIN BOND
M  V30 1 1 2 1
M  V30 2 1 3 2
M  V30 3 1 4 3
M  V30 4 1 5 4
M  V30 5 1 6 1
M  V30 6 1 6 5
M  V30 7 1 7 1
M  V30 8 1 8 1
M  V30 9 1 9 3
M  V30 10 1 10 3
M  V30 11 1 11 4
M  V30 12 1 12 4
M  V30 13 1 13 5
M  V30 14 1 14 5
M  V30 15 1 15 6
M  V30 16 1 16 6
M  V30 END BOND
M  V30 END CTAB
M  END
>  <i_epik_Tot_Q>  (1) 
0

>  <i_epik_Tot_abs_Q>  (1) 
0

>  <i_i_glide_confnum>  (1) 
2

>  <i_i_glide_lignum>  (1) 
6

>  <i_i_glide_posenum>  (1) 
205

>  <i_i_glide_rotatable_bonds>  (1) 
0

>  <i_lp_mmshare_version>  (1) 
72125

>  <i_m_source_file_index>  (1) 
6

>  <i_f3d_flags>  (1) 
0

>  <num_sample>  (1) 
100

>  <b_lp_Chiralities_Consistent>  (1) 
1

>  <r_epik_Charging_Adjusted_Penalty>  (1) 
0

>  <r_epik_Ionization_Penalty>  (1) 
1.5229185111393156e-11

>  <r_epik_Ionization_Penalty_Charging>  (1) 
0

>  <r_epik_Ionization_Penalty_Neutral>  (1) 
1.5229185111393156e-11

>  <r_epik_State_Penalty>  (1) 
-0

>  <r_glide_ring_energy>  (1) 
0.00023819064548269558

>  <r_i_docking_score>  (1) 
-3.9919290114342854

>  <r_i_glide_ecoul>  (1) 
-0.66322932146591418

>  <r_i_glide_eff_state_penalty>  (1) 
-0

>  <r_i_glide_einternal>  (1) 
0

>  <r_i_glide_emodel>  (1) 
-19.074434775758355

>  <r_i_glide_emodel_strain>  (1) 
0

>  <r_i_glide_energy>  (1) 
-15.273327294936955

>  <r_i_glide_erotb>  (1) 
0

>  <r_i_glide_esite>  (1) 
0

>  <r_i_glide_evdw>  (1) 
-14.61009797347104

>  <r_i_glide_gscore>  (1) 
-3.9919290114342854

>  <r_i_glide_gscore_strain>  (1) 
0

>  <r_i_glide_hbond>  (1) 
0

>  <r_i_glide_ligand_efficiency>  (1) 
-0.66532150190571426

>  <r_i_glide_ligand_efficiency_ln>  (1) 
-1.4298971868583246

>  <r_i_glide_ligand_efficiency_sa>  (1) 
-1.2089694019668811

>  <r_i_glide_lipo>  (1) 
-0.49527304787417947

>  <r_i_glide_metal>  (1) 
-0

>  <r_i_glide_rewards>  (1) 
-2.666666666666667

>  <r_lp_Energy>  (1) 
2.9645999999999999

>  <r_lp_tautomer_probability>  (1) 
1

>  <s_epik_cmdline>  (1) 
J2VwaWtfcHl0aG9uJywgJy1waHQnLCAnMS4wJywgJy1waCcsICc3LjQnLCAnLXRuJywgJzgnLCAnLW1hJywgJzUwMCcsICctaW1hZScsICc8aW5maWxlLm1hZT4nLCAnLW9tYWUnLCAnPG91dGZpbGUubWFlPic=

>  <s_epik_input>  (1) 
W0NIMl0xT1tDSDJdW0NIMl1bQ0gyXVtDSDJdMQ==

>  <s_glide_docking_method>  (1) 
confgen

>  <s_i_glide_gridfile>  (1) 
gpcr_drd2_6luq_protein_autoprepared_prepared

>  <s_lp_Force_Field>  (1) 
S-OPLS

>  <s_lp_Variant>  (1) 
Pocket2Mol_5-1

>  <s_m_source_file>  (1) 
generated_generic_title2_ligand_Pocket2Mol_2026-06-23_prepared.sdf

>  <GenAI_Model>  (1) 
Pocket2Mol

>  <Protein>  (1) 
generic_title2

$$$$
Pocket2Mol_6
     RDKit          3D

  0  0  0  0  0  0  0  0  0  0999 V3000
M  V30 BEGIN CTAB
M  V30 COUNTS 14 14 0 0 1
M  V30 BEGIN ATOM
M  V30 1 C 10.980291 8.325291 -5.799147 0
M  V30 2 O 9.861531 8.790227 -6.539413 0
M  V30 3 C 10.914913 6.791754 -5.686536 0
M  V30 4 O 10.904269 6.238949 -6.995191 0
M  V30 5 C 9.838840 8.220768 -7.842353 0
M  V30 6 C 9.772318 6.688739 -7.729088 0
M  V30 7 H 11.902874 8.640126 -6.288712 0
M  V30 8 H 10.972005 8.781975 -4.810026 0
M  V30 9 H 11.778161 6.408747 -5.143660 0
M  V30 10 H 10.025507 6.476525 -5.138723 0
M  V30 11 H 8.975540 8.604348 -8.382681 0
M  V30 12 H 10.723246 8.527298 -8.401286 0
M  V30 13 H 8.848775 6.373679 -7.239520 0
M  V30 14 H 9.783099 6.231649 -8.718575 0
M  V30 END ATOM
M  V30 BEGIN BOND
M  V30 1 1 2 1
M  V30 2 1 3 1
M  V30 3 1 4 3
M  V30 4 1 5 2
M  V30 5 1 6 4
M  V30 6 1 6 5
M  V30 7 1 7 1
M  V30 8 1 8 1
M  V30 9 1 9 3
M  V30 10 1 10 3
M  V30 11 1 11 5
M  V30 12 1 12 5
M  V30 13 1 13 6
M  V30 14 1 14 6
M  V30 END BOND
M  V30 END CTAB
M  END
>  <i_epik_Tot_Q>  (1) 
0

>  <i_epik_Tot_abs_Q>  (1) 
0

>  <i_i_glide_confnum>  (1) 
2

>  <i_i_glide_lignum>  (1) 
7

>  <i_i_glide_posenum>  (1) 
94

>  <i_i_glide_rotatable_bonds>  (1) 
0

>  <i_lp_mmshare_version>  (1) 
72125

>  <i_m_source_file_index>  (1) 
7

>  <i_f3d_flags>  (1) 
0

>  <num_sample>  (1) 
100

>  <b_lp_Chiralities_Consistent>  (1) 
1

>  <r_epik_Charging_Adjusted_Penalty>  (1) 
0

>  <r_epik_Ionization_Penalty>  (1) 
8.3894707547109138e-13

>  <r_epik_Ionization_Penalty_Charging>  (1) 
0

>  <r_epik_Ionization_Penalty_Neutral>  (1) 
8.3894707547109138e-13

>  <r_epik_State_Penalty>  (1) 
-0

>  <r_glide_ring_energy>  (1) 
0.00013676017923054334

>  <r_i_docking_score>  (1) 
-3.9550325293714317

>  <r_i_glide_ecoul>  (1) 
-0.6328347290189662

>  <r_i_glide_eff_state_penalty>  (1) 
-0

>  <r_i_glide_einternal>  (1) 
0

>  <r_i_glide_emodel>  (1) 
-18.0765336099983

>  <r_i_glide_emodel_strain>  (1) 
0

>  <r_i_glide_energy>  (1) 
-14.458961683989811

>  <r_i_glide_erotb>  (1) 
0

>  <r_i_glide_esite>  (1) 
0

>  <r_i_glide_evdw>  (1) 
-13.826126954970844

>  <r_i_glide_gscore>  (1) 
-3.9550325293714317

>  <r_i_glide_gscore_strain>  (1) 
0

>  <r_i_glide_hbond>  (1) 
0

>  <r_i_glide_ligand_efficiency>  (1) 
-0.65917208822857198

>  <r_i_glide_ligand_efficiency_ln>  (1) 
-1.416680975909802

>  <r_i_glide_ligand_efficiency_sa>  (1) 
-1.1977951757403023

>  <r_i_glide_lipo>  (1) 
-0.57894696661929657

>  <r_i_glide_metal>  (1) 
-0

>  <r_i_glide_rewards>  (1) 
-2.5898540056507477

>  <r_lp_Energy>  (1) 
4.9648199999999996

>  <r_lp_tautomer_probability>  (1) 
1

>  <s_epik_cmdline>  (1) 
J2VwaWtfcHl0aG9uJywgJy1waHQnLCAnMS4wJywgJy1waCcsICc3LjQnLCAnLXRuJywgJzgnLCAnLW1hJywgJzUwMCcsICctaW1hZScsICc8aW5maWxlLm1hZT4nLCAnLW9tYWUnLCAnPG91dGZpbGUubWFlPic=

>  <s_epik_input>  (1) 
W0NIMl0xT1tDSDJdW0NIMl1PW0NIMl0x

>  <s_glide_docking_method>  (1) 
confgen

>  <s_i_glide_gridfile>  (1) 
gpcr_drd2_6luq_protein_autoprepared_prepared

>  <s_lp_Force_Field>  (1) 
S-OPLS

>  <s_lp_Variant>  (1) 
Pocket2Mol_6-1

>  <s_m_source_file>  (1) 
generated_generic_title2_ligand_Pocket2Mol_2026-06-23_prepared.sdf

>  <GenAI_Model>  (1) 
Pocket2Mol

>  <Protein>  (1) 
generic_title2

$$$$
Pocket2Mol_44
     RDKit          3D

  0  0  0  0  0  0  0  0  0  0999 V3000
M  V30 BEGIN CTAB
M  V30 COUNTS 8 8 0 0 1
M  V30 BEGIN ATOM
M  V30 1 N 10.921278 8.585200 -6.258003 0
M  V30 2 C 9.724814 8.081862 -6.785025 0
M  V30 3 C 9.775408 7.918982 -8.155081 0
M  V30 4 C 11.841141 8.790316 -7.191397 0
M  V30 5 S 11.330899 8.390226 -8.806123 0
M  V30 6 H 8.896316 7.873286 -6.124589 0
M  V30 7 H 8.995301 7.555963 -8.812623 0
M  V30 8 H 12.813307 9.181381 -6.929033 0
M  V30 END ATOM
M  V30 BEGIN BOND
M  V30 1 1 2 1
M  V30 2 2 3 2
M  V30 3 2 4 1
M  V30 4 1 5 3
M  V30 5 1 5 4
M  V30 6 1 6 2
M  V30 7 1 7 3
M  V30 8 1 8 4
M  V30 END BOND
M  V30 END CTAB
M  END
>  <i_epik_Tot_Q>  (1) 
0

>  <i_epik_Tot_abs_Q>  (1) 
0

>  <i_i_glide_confnum>  (1) 
1

>  <i_i_glide_lignum>  (1) 
49

>  <i_i_glide_posenum>  (1) 
253

>  <i_i_glide_rotatable_bonds>  (1) 
0

>  <i_lp_mmshare_version>  (1) 
72125

>  <i_m_source_file_index>  (1) 
45

>  <i_f3d_flags>  (1) 
0

>  <num_sample>  (1) 
100

>  <b_lp_Chiralities_Consistent>  (1) 
1

>  <r_epik_Charging_Adjusted_Penalty>  (1) 
0

>  <r_epik_Ionization_Penalty>  (1) 
1.4882382677604034e-05

>  <r_epik_Ionization_Penalty_Charging>  (1) 
0

>  <r_epik_Ionization_Penalty_Neutral>  (1) 
1.4882382677604034e-05

>  <r_epik_State_Penalty>  (1) 
-0

>  <r_glide_ring_energy>  (1) 
0

>  <r_i_docking_score>  (1) 
-3.9534075737954657

>  <r_i_glide_ecoul>  (1) 
-1.6270798779532138

>  <r_i_glide_eff_state_penalty>  (1) 
-0

>  <r_i_glide_einternal>  (1) 
0

>  <r_i_glide_emodel>  (1) 
-19.589396126504099

>  <r_i_glide_emodel_strain>  (1) 
0

>  <r_i_glide_energy>  (1) 
-15.542410335535818

>  <r_i_glide_erotb>  (1) 
0

>  <r_i_glide_esite>  (1) 
0

>  <r_i_glide_evdw>  (1) 
-13.915330457582604

>  <r_i_glide_gscore>  (1) 
-3.9534075737954657

>  <r_i_glide_gscore_strain>  (1) 
0

>  <r_i_glide_hbond>  (1) 
0

>  <r_i_glide_ligand_efficiency>  (1) 
-0.7906815147590931

>  <r_i_glide_ligand_efficiency_ln>  (1) 
-1.515041823741919

>  <r_i_glide_ligand_efficiency_sa>  (1) 
-1.3520463717199451

>  <r_i_glide_lipo>  (1) 
-0.44691240255668702

>  <r_i_glide_metal>  (1) 
-0

>  <r_i_glide_rewards>  (1) 
-2.5666666666666664

>  <r_lp_Energy>  (1) 
1.6688799999999999

>  <r_lp_tautomer_probability>  (1) 
1

>  <s_epik_cmdline>  (1) 
J2VwaWtfcHl0aG9uJywgJy1waHQnLCAnMS4wJywgJy1waCcsICc3LjQnLCAnLXRuJywgJzgnLCAnLW1hJywgJzUwMCcsICctaW1hZScsICc8aW5maWxlLm1hZT4nLCAnLW9tYWUnLCAnPG91dGZpbGUubWFlPic=

>  <s_epik_input>  (1) 
bjFbY0hdW2NIXXNbY0hdMQ==

>  <s_glide_docking_method>  (1) 
confgen

>  <s_i_glide_gridfile>  (1) 
gpcr_drd2_6luq_protein_autoprepared_prepared

>  <s_lp_Force_Field>  (1) 
S-OPLS

>  <s_lp_Variant>  (1) 
Pocket2Mol_44-1

>  <s_m_source_file>  (1) 
generated_generic_title2_ligand_Pocket2Mol_2026-06-23_prepared.sdf

>  <GenAI_Model>  (1) 
Pocket2Mol

>  <Protein>  (1) 
generic_title2

$$$$
Pocket2Mol_1
     RDKit          3D

  0  0  0  0  0  0  0  0  0  0999 V3000
M  V30 BEGIN CTAB
M  V30 COUNTS 10 10 0 0 1
M  V30 BEGIN ATOM
M  V30 1 N 10.575595 8.836462 -6.579458 0
M  V30 2 C 10.993279 8.007581 -5.585026 0
M  V30 3 C 10.575238 6.786139 -5.681523 0
M  V30 4 C 9.858486 7.990659 -7.267268 0
M  V30 5 C 9.719350 6.480943 -6.836888 0
M  V30 6 H 11.625200 8.396932 -4.800453 0
M  V30 7 H 10.823874 6.014537 -4.966687 0
M  V30 8 H 9.316590 8.278962 -8.173003 0
M  V30 9 H 8.695174 6.216288 -6.572892 0
M  V30 10 H 10.170797 5.795422 -7.554631 0
M  V30 END ATOM
M  V30 BEGIN BOND
M  V30 1 1 2 1
M  V30 2 2 3 2
M  V30 3 2 4 1
M  V30 4 1 5 3
M  V30 5 1 5 4
M  V30 6 1 6 2
M  V30 7 1 7 3
M  V30 8 1 8 4
M  V30 9 1 9 5
M  V30 10 1 10 5
M  V30 END BOND
M  V30 END CTAB
M  END
>  <i_epik_Tot_Q>  (1) 
0

>  <i_epik_Tot_abs_Q>  (1) 
0

>  <i_i_glide_confnum>  (1) 
1

>  <i_i_glide_lignum>  (1) 
2

>  <i_i_glide_posenum>  (1) 
165

>  <i_i_glide_rotatable_bonds>  (1) 
0

>  <i_lp_mmshare_version>  (1) 
72125

>  <i_m_source_file_index>  (1) 
2

>  <i_f3d_flags>  (1) 
0

>  <num_sample>  (1) 
100

>  <b_lp_Chiralities_Consistent>  (1) 
1

>  <r_epik_Charging_Adjusted_Penalty>  (1) 
0

>  <r_epik_Ionization_Penalty>  (1) 
0

>  <r_epik_Ionization_Penalty_Charging>  (1) 
0

>  <r_epik_Ionization_Penalty_Neutral>  (1) 
0

>  <r_epik_State_Penalty>  (1) 
-0

>  <r_glide_ring_energy>  (1) 
0

>  <r_i_docking_score>  (1) 
-3.9525242530156741

>  <r_i_glide_ecoul>  (1) 
-1.519785306028032

>  <r_i_glide_eff_state_penalty>  (1) 
-0

>  <r_i_glide_einternal>  (1) 
0

>  <r_i_glide_emodel>  (1) 
-17.734216465750194

>  <r_i_glide_emodel_strain>  (1) 
0

>  <r_i_glide_energy>  (1) 
-14.010381218891565

>  <r_i_glide_erotb>  (1) 
0

>  <r_i_glide_esite>  (1) 
-0.028388903154742337

>  <r_i_glide_evdw>  (1) 
-12.490595912863533

>  <r_i_glide_gscore>  (1) 
-3.9525242530156741

>  <r_i_glide_gscore_strain>  (1) 
0

>  <r_i_glide_hbond>  (1) 
0

>  <r_i_glide_ligand_efficiency>  (1) 
-0.7905048506031348

>  <r_i_glide_ligand_efficiency_ln>  (1) 
-1.5147033137602932

>  <r_i_glide_ligand_efficiency_sa>  (1) 
-1.3517442802626165

>  <r_i_glide_lipo>  (1) 
-0.53830442498021713

>  <r_i_glide_metal>  (1) 
-0

>  <r_i_glide_rewards>  (1) 
-2.5333333333333332

>  <r_lp_Energy>  (1) 
-2.9532909999999997

>  <r_lp_tautomer_probability>  (1) 
1

>  <s_epik_Chemistry_Notes>  (1) 
This compound has an imine and may undergo hydrolysis.

>  <s_epik_cmdline>  (1) 
J2VwaWtfcHl0aG9uJywgJy1waHQnLCAnMS4wJywgJy1waCcsICc3LjQnLCAnLXRuJywgJzgnLCAnLW1hJywgJzUwMCcsICctaW1hZScsICc8aW5maWxlLm1hZT4nLCAnLW9tYWUnLCAnPG91dGZpbGUubWFlPic=

>  <s_epik_input>  (1) 
TjE9W0NIXVtDSDJdW0NIXT1bQ0hdMQ==

>  <s_glide_docking_method>  (1) 
confgen

>  <s_i_glide_gridfile>  (1) 
gpcr_drd2_6luq_protein_autoprepared_prepared

>  <s_lp_Force_Field>  (1) 
S-OPLS

>  <s_lp_Variant>  (1) 
Pocket2Mol_1-1

>  <s_m_source_file>  (1) 
generated_generic_title2_ligand_Pocket2Mol_2026-06-23_prepared.sdf

>  <GenAI_Model>  (1) 
Pocket2Mol

>  <Protein>  (1) 
generic_title2

$$$$
Pocket2Mol_33
     RDKit          3D

  0  0  0  0  0  0  0  0  0  0999 V3000
M  V30 BEGIN CTAB
M  V30 COUNTS 12 12 0 0 1
M  V30 BEGIN ATOM
M  V30 1 N 9.775404 7.445185 -8.722599 0
M  V30 2 C 10.868798 8.108860 -9.032199 0
M  V30 3 C 11.772211 8.048044 -8.121837 0
M  V30 4 C 11.375409 7.244957 -6.897024 0
M  V30 5 C 9.834555 6.861190 -7.370397 0
M  V30 6 H 10.900617 8.630957 -9.978191 0
M  V30 7 H 12.005145 6.362472 -6.781434 0
M  V30 8 H 11.396117 7.847908 -5.989329 0
M  V30 9 H 9.668742 5.783758 -7.396612 0
M  V30 10 H 9.078217 7.319240 -6.730327 0
M  V30 11 H 12.736664 8.531045 -8.188705 0
M  V30 12 H 8.874615 7.607179 -9.179917 0
M  V30 END ATOM
M  V30 BEGIN BOND
M  V30 1 1 2 1
M  V30 2 2 3 2
M  V30 3 1 4 3
M  V30 4 1 5 1
M  V30 5 1 5 4
M  V30 6 1 6 2
M  V30 7 1 7 4
M  V30 8 1 8 4
M  V30 9 1 9 5
M  V30 10 1 10 5
M  V30 11 1 11 3
M  V30 12 1 12 1
M  V30 END BOND
M  V30 END CTAB
M  END
>  <i_epik_Tot_Q>  (1) 
0

>  <i_epik_Tot_abs_Q>  (1) 
0

>  <i_i_glide_confnum>  (1) 
1

>  <i_i_glide_lignum>  (1) 
37

>  <i_i_glide_posenum>  (1) 
372

>  <i_i_glide_rotatable_bonds>  (1) 
0

>  <i_lp_mmshare_version>  (1) 
72125

>  <i_m_source_file_index>  (1) 
34

>  <i_f3d_flags>  (1) 
0

>  <num_sample>  (1) 
100

>  <b_lp_Chiralities_Consistent>  (1) 
1

>  <r_epik_Charging_Adjusted_Penalty>  (1) 
1.6042444336516156e-06

>  <r_epik_Ionization_Penalty>  (1) 
0.0023556498582944039

>  <r_epik_Ionization_Penalty_Charging>  (1) 
1.6042444336516156e-06

>  <r_epik_Ionization_Penalty_Neutral>  (1) 
0.0023540456138607521

>  <r_epik_State_Penalty>  (1) 
-0

>  <r_glide_ring_energy>  (1) 
0

>  <r_i_docking_score>  (1) 
-3.9426954512948238

>  <r_i_glide_ecoul>  (1) 
-2.5803628141315733

>  <r_i_glide_eff_state_penalty>  (1) 
-0

>  <r_i_glide_einternal>  (1) 
0

>  <r_i_glide_emodel>  (1) 
-17.694146425899227

>  <r_i_glide_emodel_strain>  (1) 
0

>  <r_i_glide_energy>  (1) 
-13.759918454819466

>  <r_i_glide_erotb>  (1) 
0

>  <r_i_glide_esite>  (1) 
-0.10000000000000001

>  <r_i_glide_evdw>  (1) 
-11.179555640687893

>  <r_i_glide_gscore>  (1) 
-3.9426954512948238

>  <r_i_glide_gscore_strain>  (1) 
0

>  <r_i_glide_hbond>  (1) 
-0.16

>  <r_i_glide_ligand_efficiency>  (1) 
-0.78853909025896474

>  <r_i_glide_ligand_efficiency_ln>  (1) 
-1.5109366781664684

>  <r_i_glide_ligand_efficiency_sa>  (1) 
-1.3483828773571547

>  <r_i_glide_lipo>  (1) 
-0.48666324714069331

>  <r_i_glide_metal>  (1) 
-0

>  <r_i_glide_rewards>  (1) 
-2.25

>  <r_lp_Energy>  (1) 
2.9163329999999998

>  <r_lp_tautomer_probability>  (1) 
1

>  <s_epik_Chemistry_Notes>  (1) 
This compound has an imine and may undergo hydrolysis.

>  <s_epik_cmdline>  (1) 
J2VwaWtfcHl0aG9uJywgJy1waHQnLCAnMS4wJywgJy1waCcsICc3LjQnLCAnLXRuJywgJzgnLCAnLW1hJywgJzUwMCcsICctaW1hZScsICc8aW5maWxlLm1hZT4nLCAnLW9tYWUnLCAnPG91dGZpbGUubWFlPic=

>  <s_epik_input>  (1) 
W05IXTFbQ0hdPVtDSF1bQ0gyXVtDSDJdMQ==

>  <s_glide_docking_method>  (1) 
confgen

>  <s_i_glide_gridfile>  (1) 
gpcr_drd2_6luq_protein_autoprepared_prepared

>  <s_lp_Force_Field>  (1) 
S-OPLS

>  <s_lp_Variant>  (1) 
Pocket2Mol_33-1

>  <s_m_source_file>  (1) 
generated_generic_title2_ligand_Pocket2Mol_2026-06-23_prepared.sdf

>  <GenAI_Model>  (1) 
Pocket2Mol

>  <Protein>  (1) 
generic_title2

$$$$
Pocket2Mol_9
     RDKit          3D

  0  0  0  0  0  0  0  0  0  0999 V3000
M  V30 BEGIN CTAB
M  V30 COUNTS 13 13 0 0 1
M  V30 BEGIN ATOM
M  V30 1 N 9.397777 7.760412 -8.999457 0 CHG=1
M  V30 2 C 10.381525 7.790359 -9.951585 0
M  V30 3 C 11.566045 8.018618 -9.294343 0
M  V30 4 C 9.924924 7.959976 -7.788501 0
M  V30 5 C 12.965029 8.152411 -9.791875 0
M  V30 6 N 11.241126 8.116990 -7.964522 0
M  V30 7 H 10.173577 7.650478 -11.003254 0
M  V30 8 H 9.393979 7.988875 -6.852299 0
M  V30 9 H 12.995151 8.040865 -10.876215 0
M  V30 10 H 13.367129 9.132588 -9.534317 0
M  V30 11 H 13.600526 7.385593 -9.348120 0
M  V30 12 H 11.905175 8.285261 -7.217892 0
M  V30 13 H 8.411871 7.609065 -9.185043 0
M  V30 END ATOM
M  V30 BEGIN BOND
M  V30 1 1 2 1
M  V30 2 2 3 2
M  V30 3 2 4 1
M  V30 4 1 5 3
M  V30 5 1 6 3
M  V30 6 1 6 4
M  V30 7 1 7 2
M  V30 8 1 8 4
M  V30 9 1 9 5
M  V30 10 1 10 5
M  V30 11 1 11 5
M  V30 12 1 12 6
M  V30 13 1 13 1
M  V30 END BOND
M  V30 END CTAB
M  END
>  <i_epik_Tot_Q>  (1) 
1

>  <i_epik_Tot_abs_Q>  (1) 
1

>  <i_i_glide_confnum>  (1) 
1

>  <i_i_glide_lignum>  (1) 
11

>  <i_i_glide_posenum>  (1) 
130

>  <i_i_glide_rotatable_bonds>  (1) 
0

>  <i_lp_mmshare_version>  (1) 
72125

>  <i_m_source_file_index>  (1) 
10

>  <i_f3d_flags>  (1) 
0

>  <num_sample>  (1) 
100

>  <b_lp_Chiralities_Consistent>  (1) 
1

>  <r_epik_Charging_Adjusted_Penalty>  (1) 
0.63910500234431922

>  <r_epik_Ionization_Penalty>  (1) 
0.82018112513013652

>  <r_epik_Ionization_Penalty_Charging>  (1) 
0

>  <r_epik_Ionization_Penalty_Neutral>  (1) 
0.82018112513013652

>  <r_epik_State_Penalty>  (1) 
0.63910500234431922

>  <r_glide_ring_energy>  (1) 
0

>  <r_i_docking_score>  (1) 
-3.9290156108128986

>  <r_i_glide_ecoul>  (1) 
-9.5588154330377186

>  <r_i_glide_eff_state_penalty>  (1) 
0.63910500234431922

>  <r_i_glide_einternal>  (1) 
0

>  <r_i_glide_emodel>  (1) 
-24.28901101068405

>  <r_i_glide_emodel_strain>  (1) 
0

>  <r_i_glide_energy>  (1) 
-15.778447411008603

>  <r_i_glide_erotb>  (1) 
0

>  <r_i_glide_esite>  (1) 
-0.15183112380633876

>  <r_i_glide_evdw>  (1) 
-6.2196319779708835

>  <r_i_glide_gscore>  (1) 
-4.5681206131572178

>  <r_i_glide_gscore_strain>  (1) 
0

>  <r_i_glide_hbond>  (1) 
-0.18447028291394879

>  <r_i_glide_ligand_efficiency>  (1) 
-0.6548359351354831

>  <r_i_glide_ligand_efficiency_ln>  (1) 
-1.4073617924897035

>  <r_i_glide_ligand_efficiency_sa>  (1) 
-1.1899158626611777

>  <r_i_glide_lipo>  (1) 
-0.23701529258272888

>  <r_i_glide_metal>  (1) 
-0

>  <r_i_glide_rewards>  (1) 
-2.25

>  <r_lp_Energy>  (1) 
7.4764169999999996

>  <r_lp_tautomer_probability>  (1) 
1

>  <s_epik_cmdline>  (1) 
J2VwaWtfcHl0aG9uJywgJy1waHQnLCAnMS4wJywgJy1waCcsICc3LjQnLCAnLXRuJywgJzgnLCAnLW1hJywgJzUwMCcsICctaW1hZScsICc8aW5maWxlLm1hZT4nLCAnLW9tYWUnLCAnPG91dGZpbGUubWFlPic=

>  <s_epik_input>  (1) 
W25IXTFbY0hdbltjSF1jMVtDSDNd

>  <s_glide_docking_method>  (1) 
confgen

>  <s_i_glide_gridfile>  (1) 
gpcr_drd2_6luq_protein_autoprepared_prepared

>  <s_lp_Force_Field>  (1) 
S-OPLS

>  <s_lp_Variant>  (1) 
Pocket2Mol_9-2

>  <s_m_source_file>  (1) 
generated_generic_title2_ligand_Pocket2Mol_2026-06-23_prepared.sdf

>  <GenAI_Model>  (1) 
Pocket2Mol

>  <Protein>  (1) 
generic_title2

$$$$
Pocket2Mol_55
     RDKit          3D

  0  0  0  0  0  0  0  0  0  0999 V3000
M  V30 BEGIN CTAB
M  V30 COUNTS 13 13 0 0 1
M  V30 BEGIN ATOM
M  V30 1 O 10.175112 8.790131 -5.985472 0
M  V30 2 C 9.582004 7.990227 -7.002120 0
M  V30 3 C 10.767798 7.344634 -7.706619 0
M  V30 4 C 11.496025 9.163596 -6.362958 0
M  V30 5 C 11.775293 8.475563 -7.700529 0
M  V30 6 H 8.885558 7.260233 -6.585350 0
M  V30 7 H 9.028257 8.634513 -7.688755 0
M  V30 8 H 11.139822 6.501770 -7.121372 0
M  V30 9 H 10.523990 6.988094 -8.708050 0
M  V30 10 H 11.596573 10.247368 -6.428227 0
M  V30 11 H 12.175262 8.808819 -5.589095 0
M  V30 12 H 11.565619 9.161162 -8.523247 0
M  V30 13 H 12.806296 8.133954 -7.799207 0
M  V30 END ATOM
M  V30 BEGIN BOND
M  V30 1 1 2 1
M  V30 2 1 3 2
M  V30 3 1 4 1
M  V30 4 1 5 3
M  V30 5 1 5 4
M  V30 6 1 6 2
M  V30 7 1 7 2
M  V30 8 1 8 3
M  V30 9 1 9 3
M  V30 10 1 10 4
M  V30 11 1 11 4
M  V30 12 1 12 5
M  V30 13 1 13 5
M  V30 END BOND
M  V30 END CTAB
M  END
>  <i_epik_Tot_Q>  (1) 
0

>  <i_epik_Tot_abs_Q>  (1) 
0

>  <i_i_glide_confnum>  (1) 
4

>  <i_i_glide_lignum>  (1) 
62

>  <i_i_glide_posenum>  (1) 
253

>  <i_i_glide_rotatable_bonds>  (1) 
0

>  <i_lp_mmshare_version>  (1) 
72125

>  <i_m_source_file_index>  (1) 
56

>  <i_f3d_flags>  (1) 
0

>  <num_sample>  (1) 
100

>  <b_lp_Chiralities_Consistent>  (1) 
1

>  <r_epik_Charging_Adjusted_Penalty>  (1) 
0

>  <r_epik_Ionization_Penalty>  (1) 
1.3889264151150229e-11

>  <r_epik_Ionization_Penalty_Charging>  (1) 
0

>  <r_epik_Ionization_Penalty_Neutral>  (1) 
1.3889264151150229e-11

>  <r_epik_State_Penalty>  (1) 
-0

>  <r_glide_ring_energy>  (1) 
0.22164722245690596

>  <r_i_docking_score>  (1) 
-3.909632179395965

>  <r_i_glide_ecoul>  (1) 
-0.73589221639103752

>  <r_i_glide_eff_state_penalty>  (1) 
-0

>  <r_i_glide_einternal>  (1) 
0

>  <r_i_glide_emodel>  (1) 
-16.412917948366584

>  <r_i_glide_emodel_strain>  (1) 
0.0013510832424028507

>  <r_i_glide_energy>  (1) 
-13.034990777286941

>  <r_i_glide_erotb>  (1) 
0

>  <r_i_glide_esite>  (1) 
0

>  <r_i_glide_evdw>  (1) 
-12.299098560895903

>  <r_i_glide_gscore>  (1) 
-3.909632179395965

>  <r_i_glide_gscore_strain>  (1) 
0

>  <r_i_glide_hbond>  (1) 
0

>  <r_i_glide_ligand_efficiency>  (1) 
-0.78192643587919297

>  <r_i_glide_ligand_efficiency_ln>  (1) 
-1.4982660291576106

>  <r_i_glide_ligand_efficiency_sa>  (1) 
-1.3370753974240586

>  <r_i_glide_lipo>  (1) 
-0.62596008555918026

>  <r_i_glide_metal>  (1) 
-0

>  <r_i_glide_rewards>  (1) 
-2.5583333333333336

>  <r_lp_Energy>  (1) 
3.9173999999999998

>  <r_lp_tautomer_probability>  (1) 
1

>  <s_epik_cmdline>  (1) 
J2VwaWtfcHl0aG9uJywgJy1waHQnLCAnMS4wJywgJy1waCcsICc3LjQnLCAnLXRuJywgJzgnLCAnLW1hJywgJzUwMCcsICctaW1hZScsICc8aW5maWxlLm1hZT4nLCAnLW9tYWUnLCAnPG91dGZpbGUubWFlPic=

>  <s_epik_input>  (1) 
TzFbQ0gyXVtDSDJdW0NIMl1bQ0gyXTE=

>  <s_glide_docking_method>  (1) 
confgen

>  <s_i_glide_gridfile>  (1) 
gpcr_drd2_6luq_protein_autoprepared_prepared

>  <s_lp_Force_Field>  (1) 
S-OPLS

>  <s_lp_Variant>  (1) 
Pocket2Mol_55-1

>  <s_m_source_file>  (1) 
generated_generic_title2_ligand_Pocket2Mol_2026-06-23_prepared.sdf

>  <GenAI_Model>  (1) 
Pocket2Mol

>  <Protein>  (1) 
generic_title2

$$$$
Pocket2Mol_45
     RDKit          3D

  0  0  0  0  0  0  0  0  0  0999 V3000
M  V30 BEGIN CTAB
M  V30 COUNTS 15 16 0 0 1
M  V30 BEGIN ATOM
M  V30 1 C 9.774745 7.477975 -7.439190 0
M  V30 2 O 10.353203 8.790227 -7.140297 0
M  V30 3 C 10.946846 8.505524 -5.980288 0
M  V30 4 C 10.809312 7.238747 -5.588841 0
M  V30 5 C 11.375768 6.790224 -4.385025 0
M  V30 6 N 12.073787 7.672040 -3.623331 0 CHG=1
M  V30 7 C 12.236302 8.973529 -3.985025 0
M  V30 8 C 11.664990 9.434139 -5.199819 0
M  V30 9 O 10.103552 6.475190 -6.425043 0
M  V30 10 H 10.133752 7.138361 -8.411685 0
M  V30 11 H 8.688182 7.573502 -7.494571 0
M  V30 12 H 11.300273 5.785210 -4.009695 0
M  V30 13 H 12.807065 9.590228 -3.305661 0
M  V30 14 H 11.775409 10.460333 -5.517378 0
M  V30 15 H 12.487041 7.347593 -2.747616 0
M  V30 END ATOM
M  V30 BEGIN BOND
M  V30 1 1 2 1
M  V30 2 1 3 2
M  V30 3 2 4 3
M  V30 4 1 5 4
M  V30 5 2 6 5
M  V30 6 1 7 6
M  V30 7 1 8 3
M  V30 8 2 8 7
M  V30 9 1 9 1
M  V30 10 1 9 4
M  V30 11 1 10 1
M  V30 12 1 11 1
M  V30 13 1 12 5
M  V30 14 1 13 7
M  V30 15 1 14 8
M  V30 16 1 15 6
M  V30 END BOND
M  V30 END CTAB
M  END
>  <i_epik_Tot_Q>  (1) 
1

>  <i_epik_Tot_abs_Q>  (1) 
1

>  <i_i_glide_confnum>  (1) 
1

>  <i_i_glide_lignum>  (1) 
51

>  <i_i_glide_posenum>  (1) 
303

>  <i_i_glide_rotatable_bonds>  (1) 
0

>  <i_lp_mmshare_version>  (1) 
72125

>  <i_m_source_file_index>  (1) 
46

>  <i_f3d_flags>  (1) 
0

>  <num_sample>  (1) 
100

>  <b_lp_Chiralities_Consistent>  (1) 
1

>  <r_epik_Charging_Adjusted_Penalty>  (1) 
2.6035637255513002

>  <r_epik_Ionization_Penalty>  (1) 
1.3017818627756499

>  <r_epik_Ionization_Penalty_Charging>  (1) 
1.3017818627756499

>  <r_epik_Ionization_Penalty_Neutral>  (1) 
0

>  <r_epik_State_Penalty>  (1) 
1.3017818627756503

>  <r_glide_ring_energy>  (1) 
0

>  <r_i_docking_score>  (1) 
-3.8997872956738355

>  <r_i_glide_ecoul>  (1) 
-1.4089185199522392

>  <r_i_glide_eff_state_penalty>  (1) 
1.3017818627756503

>  <r_i_glide_einternal>  (1) 
0

>  <r_i_glide_emodel>  (1) 
-28.464025871569355

>  <r_i_glide_emodel_strain>  (1) 
0

>  <r_i_glide_energy>  (1) 
-18.728350035723317

>  <r_i_glide_erotb>  (1) 
0

>  <r_i_glide_esite>  (1) 
-0.06404127517226979

>  <r_i_glide_evdw>  (1) 
-17.319431515771079

>  <r_i_glide_gscore>  (1) 
-5.2015691584494856

>  <r_i_glide_gscore_strain>  (1) 
0

>  <r_i_glide_hbond>  (1) 
0

>  <r_i_glide_ligand_efficiency>  (1) 
-0.43330969951931508

>  <r_i_glide_ligand_efficiency_ln>  (1) 
-1.2197414355306122

>  <r_i_glide_ligand_efficiency_sa>  (1) 
-0.90132049634160882

>  <r_i_glide_lipo>  (1) 
-1.4234693231256907

>  <r_i_glide_metal>  (1) 
-0

>  <r_i_glide_rewards>  (1) 
-2.6367492063701357

>  <r_lp_Energy>  (1) 
25.893000999999998

>  <s_epik_Chemistry_Notes>  (1) 
This compound contains an acetal/aminal-like group ( X-CH(R)-Y where X, Y are N, S, or O) that may be acid/base labile, releasing an aldehyde.

>  <s_epik_cmdline>  (1) 
J2VwaWtfcHl0aG9uJywgJy1waHQnLCAnMS4wJywgJy1waCcsICc3LjQnLCAnLXRuJywgJzgnLCAnLW1hJywgJzUwMCcsICctaW1hZScsICc8aW5maWxlLm1hZT4nLCAnLW9tYWUnLCAnPG91dGZpbGUubWFlPic=

>  <s_epik_input>  (1) 
TzFbQ0gyXU9jKGMxMilbY0hdbltjSF1bY0hdMg==

>  <s_glide_docking_method>  (1) 
confgen

>  <s_i_glide_gridfile>  (1) 
gpcr_drd2_6luq_protein_autoprepared_prepared

>  <s_lp_Force_Field>  (1) 
S-OPLS

>  <s_lp_Variant>  (1) 
Pocket2Mol_45-2

>  <s_m_source_file>  (1) 
generated_generic_title2_ligand_Pocket2Mol_2026-06-23_prepared.sdf

>  <GenAI_Model>  (1) 
Pocket2Mol

>  <Protein>  (1) 
generic_title2

$$$$
Pocket2Mol_1
     RDKit          3D

  0  0  0  0  0  0  0  0  0  0999 V3000
M  V30 BEGIN CTAB
M  V30 COUNTS 10 10 0 0 1
M  V30 BEGIN ATOM
M  V30 1 N 10.592033 8.563888 -6.318298 0
M  V30 2 C 11.641884 8.789778 -7.160599 0
M  V30 3 C 11.463673 8.382525 -8.380432 0
M  V30 4 C 9.775410 7.990414 -7.159472 0
M  V30 5 C 10.174128 7.745140 -8.668751 0
M  V30 6 H 12.528829 9.278770 -6.782389 0
M  V30 7 H 12.203641 8.495699 -9.159771 0
M  V30 8 H 8.776397 7.651857 -6.870629 0
M  V30 9 H 10.245368 6.685329 -8.913398 0
M  V30 10 H 9.548821 8.307063 -9.363978 0
M  V30 END ATOM
M  V30 BEGIN BOND
M  V30 1 1 2 1
M  V30 2 2 3 2
M  V30 3 2 4 1
M  V30 4 1 5 3
M  V30 5 1 5 4
M  V30 6 1 6 2
M  V30 7 1 7 3
M  V30 8 1 8 4
M  V30 9 1 9 5
M  V30 10 1 10 5
M  V30 END BOND
M  V30 END CTAB
M  END
>  <i_epik_Tot_Q>  (1) 
0

>  <i_epik_Tot_abs_Q>  (1) 
0

>  <i_i_glide_confnum>  (1) 
1

>  <i_i_glide_lignum>  (1) 
2

>  <i_i_glide_posenum>  (1) 
196

>  <i_i_glide_rotatable_bonds>  (1) 
0

>  <i_lp_mmshare_version>  (1) 
72125

>  <i_m_source_file_index>  (1) 
2

>  <i_f3d_flags>  (1) 
0

>  <num_sample>  (1) 
100

>  <b_lp_Chiralities_Consistent>  (1) 
1

>  <r_epik_Charging_Adjusted_Penalty>  (1) 
0

>  <r_epik_Ionization_Penalty>  (1) 
0

>  <r_epik_Ionization_Penalty_Charging>  (1) 
0

>  <r_epik_Ionization_Penalty_Neutral>  (1) 
0

>  <r_epik_State_Penalty>  (1) 
-0

>  <r_glide_ring_energy>  (1) 
0

>  <r_i_docking_score>  (1) 
-3.8929748957100463

>  <r_i_glide_ecoul>  (1) 
-1.2818929847950473

>  <r_i_glide_eff_state_penalty>  (1) 
-0

>  <r_i_glide_einternal>  (1) 
0

>  <r_i_glide_emodel>  (1) 
-17.883334613644379

>  <r_i_glide_emodel_strain>  (1) 
0

>  <r_i_glide_energy>  (1) 
-14.215603259252262

>  <r_i_glide_erotb>  (1) 
0

>  <r_i_glide_esite>  (1) 
-0.030062482829201514

>  <r_i_glide_evdw>  (1) 
-12.933710274457214

>  <r_i_glide_gscore>  (1) 
-3.8929748957100463

>  <r_i_glide_gscore_strain>  (1) 
0

>  <r_i_glide_hbond>  (1) 
0

>  <r_i_glide_ligand_efficiency>  (1) 
-0.77859497914200926

>  <r_i_glide_ligand_efficiency_ln>  (1) 
-1.4918825533881563

>  <r_i_glide_ligand_efficiency_sa>  (1) 
-1.3313786865360804

>  <r_i_glide_lipo>  (1) 
-0.4406096181053934

>  <r_i_glide_metal>  (1) 
-0

>  <r_i_glide_rewards>  (1) 
-2.5833333333333335

>  <r_lp_Energy>  (1) 
-2.9532909999999997

>  <r_lp_tautomer_probability>  (1) 
1

>  <s_epik_Chemistry_Notes>  (1) 
This compound has an imine and may undergo hydrolysis.

>  <s_epik_cmdline>  (1) 
J2VwaWtfcHl0aG9uJywgJy1waHQnLCAnMS4wJywgJy1waCcsICc3LjQnLCAnLXRuJywgJzgnLCAnLW1hJywgJzUwMCcsICctaW1hZScsICc8aW5maWxlLm1hZT4nLCAnLW9tYWUnLCAnPG91dGZpbGUubWFlPic=

>  <s_epik_input>  (1) 
TjE9W0NIXVtDSDJdW0NIXT1bQ0hdMQ==

>  <s_glide_docking_method>  (1) 
confgen

>  <s_i_glide_gridfile>  (1) 
gpcr_drd2_6luq_protein_autoprepared_prepared

>  <s_lp_Force_Field>  (1) 
S-OPLS

>  <s_lp_Variant>  (1) 
Pocket2Mol_1-1

>  <s_m_source_file>  (1) 
generated_generic_title2_ligand_Pocket2Mol_2026-06-23_prepared.sdf

>  <GenAI_Model>  (1) 
Pocket2Mol

>  <Protein>  (1) 
generic_title2

$$$$
Pocket2Mol_66
     RDKit          3D

  0  0  0  0  0  0  0  0  0  0999 V3000
M  V30 BEGIN CTAB
M  V30 COUNTS 8 8 0 0 1
M  V30 BEGIN ATOM
M  V30 1 N 11.775410 8.773484 -7.209829 0
M  V30 2 C 10.646707 8.409427 -6.385021 0
M  V30 3 C 9.716619 7.869345 -7.078866 0
M  V30 4 C 10.175410 7.859994 -8.314148 0
M  V30 5 C 11.378969 8.390227 -8.357315 0
M  V30 6 H 10.648827 8.605344 -5.322870 0
M  V30 7 H 8.755382 7.515214 -6.731324 0
M  V30 8 H 9.563828 7.628078 -9.175246 0
M  V30 END ATOM
M  V30 BEGIN BOND
M  V30 1 1 2 1
M  V30 2 2 3 2
M  V30 3 1 4 3
M  V30 4 2 5 1
M  V30 5 2 5 4
M  V30 6 1 6 2
M  V30 7 1 7 3
M  V30 8 1 8 4
M  V30 END BOND
M  V30 END CTAB
M  END
>  <i_epik_Tot_Q>  (1) 
0

>  <i_epik_Tot_abs_Q>  (1) 
0

>  <i_i_glide_confnum>  (1) 
1

>  <i_i_glide_lignum>  (1) 
73

>  <i_i_glide_posenum>  (1) 
38

>  <i_i_glide_rotatable_bonds>  (1) 
0

>  <i_lp_mmshare_version>  (1) 
72125

>  <i_m_source_file_index>  (1) 
67

>  <i_f3d_flags>  (1) 
0

>  <num_sample>  (1) 
100

>  <b_lp_Chiralities_Consistent>  (1) 
1

>  <r_epik_Charging_Adjusted_Penalty>  (1) 
0

>  <r_epik_Ionization_Penalty>  (1) 
0

>  <r_epik_Ionization_Penalty_Charging>  (1) 
0

>  <r_epik_Ionization_Penalty_Neutral>  (1) 
0

>  <r_epik_State_Penalty>  (1) 
-0

>  <r_glide_ring_energy>  (1) 
0

>  <r_i_docking_score>  (1) 
-3.8882747025455346

>  <r_i_glide_ecoul>  (1) 
-0.98223155113370431

>  <r_i_glide_eff_state_penalty>  (1) 
-0

>  <r_i_glide_einternal>  (1) 
0

>  <r_i_glide_emodel>  (1) 
-17.275527317132614

>  <r_i_glide_emodel_strain>  (1) 
0

>  <r_i_glide_energy>  (1) 
-13.774967682146904

>  <r_i_glide_erotb>  (1) 
0

>  <r_i_glide_esite>  (1) 
0

>  <r_i_glide_evdw>  (1) 
-12.7927361310132

>  <r_i_glide_gscore>  (1) 
-3.8882747025455346

>  <r_i_glide_gscore_strain>  (1) 
0

>  <r_i_glide_hbond>  (1) 
0

>  <r_i_glide_ligand_efficiency>  (1) 
-0.77765494050910688

>  <r_i_glide_ligand_efficiency_ln>  (1) 
-1.4900813251841378

>  <r_i_glide_ligand_efficiency_sa>  (1) 
-1.3297712430848707

>  <r_i_glide_lipo>  (1) 
-0.50130316332481883

>  <r_i_glide_metal>  (1) 
-0

>  <r_i_glide_rewards>  (1) 
-2.6000000000000001

>  <r_lp_Energy>  (1) 
4.860805

>  <r_lp_tautomer_probability>  (1) 
1

>  <s_epik_Chemistry_Notes>  (1) 
This compound has an imine and may undergo hydrolysis.

>  <s_epik_cmdline>  (1) 
J2VwaWtfcHl0aG9uJywgJy1waHQnLCAnMS4wJywgJy1waCcsICc3LjQnLCAnLXRuJywgJzgnLCAnLW1hJywgJzUwMCcsICctaW1hZScsICc8aW5maWxlLm1hZT4nLCAnLW9tYWUnLCAnPG91dGZpbGUubWFlPic=

>  <s_epik_input>  (1) 
TjE9Qz1bQ0hdW0NIXT1bQ0hdMQ==

>  <s_glide_docking_method>  (1) 
confgen

>  <s_i_glide_gridfile>  (1) 
gpcr_drd2_6luq_protein_autoprepared_prepared

>  <s_lp_Force_Field>  (1) 
S-OPLS

>  <s_lp_Variant>  (1) 
Pocket2Mol_66-1

>  <s_m_source_file>  (1) 
generated_generic_title2_ligand_Pocket2Mol_2026-06-23_prepared.sdf

>  <GenAI_Model>  (1) 
Pocket2Mol

>  <Protein>  (1) 
generic_title2

$$$$
Pocket2Mol_66
     RDKit          3D

  0  0  0  0  0  0  0  0  0  0999 V3000
M  V30 BEGIN CTAB
M  V30 COUNTS 8 8 0 0 1
M  V30 BEGIN ATOM
M  V30 1 N 11.775174 8.790227 -7.054395 0
M  V30 2 C 11.273674 8.390297 -8.349360 0
M  V30 3 C 10.080175 7.933934 -8.266799 0
M  V30 4 C 9.775501 8.010649 -6.987711 0
M  V30 5 C 10.782598 8.513396 -6.307703 0
M  V30 6 H 11.883403 8.488965 -9.235610 0
M  V30 7 H 9.460320 7.556602 -9.069020 0
M  V30 8 H 8.879123 7.586360 -6.555987 0
M  V30 END ATOM
M  V30 BEGIN BOND
M  V30 1 1 2 1
M  V30 2 2 3 2
M  V30 3 1 4 3
M  V30 4 2 5 1
M  V30 5 2 5 4
M  V30 6 1 6 2
M  V30 7 1 7 3
M  V30 8 1 8 4
M  V30 END BOND
M  V30 END CTAB
M  END
>  <i_epik_Tot_Q>  (1) 
0

>  <i_epik_Tot_abs_Q>  (1) 
0

>  <i_i_glide_confnum>  (1) 
1

>  <i_i_glide_lignum>  (1) 
73

>  <i_i_glide_posenum>  (1) 
51

>  <i_i_glide_rotatable_bonds>  (1) 
0

>  <i_lp_mmshare_version>  (1) 
72125

>  <i_m_source_file_index>  (1) 
67

>  <i_f3d_flags>  (1) 
0

>  <num_sample>  (1) 
100

>  <b_lp_Chiralities_Consistent>  (1) 
1

>  <r_epik_Charging_Adjusted_Penalty>  (1) 
0

>  <r_epik_Ionization_Penalty>  (1) 
0

>  <r_epik_Ionization_Penalty_Charging>  (1) 
0

>  <r_epik_Ionization_Penalty_Neutral>  (1) 
0

>  <r_epik_State_Penalty>  (1) 
-0

>  <r_glide_ring_energy>  (1) 
0

>  <r_i_docking_score>  (1) 
-3.8717263075654107

>  <r_i_glide_ecoul>  (1) 
-1.0811766605971589

>  <r_i_glide_eff_state_penalty>  (1) 
-0

>  <r_i_glide_einternal>  (1) 
0

>  <r_i_glide_emodel>  (1) 
-17.231150489715489

>  <r_i_glide_emodel_strain>  (1) 
3.9335645851679146e-11

>  <r_i_glide_energy>  (1) 
-13.745489144607872

>  <r_i_glide_erotb>  (1) 
0

>  <r_i_glide_esite>  (1) 
0

>  <r_i_glide_evdw>  (1) 
-12.664312484010713

>  <r_i_glide_gscore>  (1) 
-3.8717263075654107

>  <r_i_glide_gscore_strain>  (1) 
0

>  <r_i_glide_hbond>  (1) 
0

>  <r_i_glide_ligand_efficiency>  (1) 
-0.77434526151308214

>  <r_i_glide_ligand_efficiency_ln>  (1) 
-1.483739578212014

>  <r_i_glide_ligand_efficiency_sa>  (1) 
-1.3241117716104471

>  <r_i_glide_lipo>  (1) 
-0.48466751760863441

>  <r_i_glide_metal>  (1) 
-0

>  <r_i_glide_rewards>  (1) 
-2.5916666666666668

>  <r_lp_Energy>  (1) 
4.860805

>  <r_lp_tautomer_probability>  (1) 
1

>  <s_epik_Chemistry_Notes>  (1) 
This compound has an imine and may undergo hydrolysis.

>  <s_epik_cmdline>  (1) 
J2VwaWtfcHl0aG9uJywgJy1waHQnLCAnMS4wJywgJy1waCcsICc3LjQnLCAnLXRuJywgJzgnLCAnLW1hJywgJzUwMCcsICctaW1hZScsICc8aW5maWxlLm1hZT4nLCAnLW9tYWUnLCAnPG91dGZpbGUubWFlPic=

>  <s_epik_input>  (1) 
TjE9Qz1bQ0hdW0NIXT1bQ0hdMQ==

>  <s_glide_docking_method>  (1) 
confgen

>  <s_i_glide_gridfile>  (1) 
gpcr_drd2_6luq_protein_autoprepared_prepared

>  <s_lp_Force_Field>  (1) 
S-OPLS

>  <s_lp_Variant>  (1) 
Pocket2Mol_66-1

>  <s_m_source_file>  (1) 
generated_generic_title2_ligand_Pocket2Mol_2026-06-23_prepared.sdf

>  <GenAI_Model>  (1) 
Pocket2Mol

>  <Protein>  (1) 
generic_title2

$$$$
Pocket2Mol_55
     RDKit          3D

  0  0  0  0  0  0  0  0  0  0999 V3000
M  V30 BEGIN CTAB
M  V30 COUNTS 13 13 0 0 1
M  V30 BEGIN ATOM
M  V30 1 O 11.775410 9.190222 -6.889454 0
M  V30 2 C 11.792802 8.441419 -8.094496 0
M  V30 3 C 10.346503 7.977579 -8.267585 0
M  V30 4 C 10.928388 8.495766 -5.988320 0
M  V30 5 C 9.769219 8.013844 -6.858991 0
M  V30 6 H 12.145821 9.040773 -8.934369 0
M  V30 7 H 12.464133 7.590228 -7.977354 0
M  V30 8 H 9.795823 8.665818 -8.910561 0
M  V30 9 H 10.289403 6.985635 -8.717062 0
M  V30 10 H 11.465479 7.648669 -5.559354 0
M  V30 11 H 10.599274 9.141277 -5.174480 0
M  V30 12 H 9.393573 7.042725 -6.534302 0
M  V30 13 H 8.937651 8.718986 -6.818229 0
M  V30 END ATOM
M  V30 BEGIN BOND
M  V30 1 1 2 1
M  V30 2 1 3 2
M  V30 3 1 4 1
M  V30 4 1 5 3
M  V30 5 1 5 4
M  V30 6 1 6 2
M  V30 7 1 7 2
M  V30 8 1 8 3
M  V30 9 1 9 3
M  V30 10 1 10 4
M  V30 11 1 11 4
M  V30 12 1 12 5
M  V30 13 1 13 5
M  V30 END BOND
M  V30 END CTAB
M  END
>  <i_epik_Tot_Q>  (1) 
0

>  <i_epik_Tot_abs_Q>  (1) 
0

>  <i_i_glide_confnum>  (1) 
2

>  <i_i_glide_lignum>  (1) 
62

>  <i_i_glide_posenum>  (1) 
350

>  <i_i_glide_rotatable_bonds>  (1) 
0

>  <i_lp_mmshare_version>  (1) 
72125

>  <i_m_source_file_index>  (1) 
56

>  <i_f3d_flags>  (1) 
0

>  <num_sample>  (1) 
100

>  <b_lp_Chiralities_Consistent>  (1) 
1

>  <r_epik_Charging_Adjusted_Penalty>  (1) 
0

>  <r_epik_Ionization_Penalty>  (1) 
1.3889264151150229e-11

>  <r_epik_Ionization_Penalty_Charging>  (1) 
0

>  <r_epik_Ionization_Penalty_Neutral>  (1) 
1.3889264151150229e-11

>  <r_epik_State_Penalty>  (1) 
-0

>  <r_glide_ring_energy>  (1) 
9.8467329014132268e-05

>  <r_i_docking_score>  (1) 
-3.8642836401081953

>  <r_i_glide_ecoul>  (1) 
-0.58181509086580885

>  <r_i_glide_eff_state_penalty>  (1) 
-0

>  <r_i_glide_einternal>  (1) 
0

>  <r_i_glide_emodel>  (1) 
-16.564212834494345

>  <r_i_glide_emodel_strain>  (1) 
0

>  <r_i_glide_energy>  (1) 
-13.22413144720446

>  <r_i_glide_erotb>  (1) 
0

>  <r_i_glide_esite>  (1) 
0

>  <r_i_glide_evdw>  (1) 
-12.642316356338652

>  <r_i_glide_gscore>  (1) 
-3.8642836401081953

>  <r_i_glide_gscore_strain>  (1) 
0

>  <r_i_glide_hbond>  (1) 
0

>  <r_i_glide_ligand_efficiency>  (1) 
-0.77285672802163907

>  <r_i_glide_ligand_efficiency_ln>  (1) 
-1.4808873672351786

>  <r_i_glide_ligand_efficiency_sa>  (1) 
-1.3215664151442568

>  <r_i_glide_lipo>  (1) 
-0.53656222532805775

>  <r_i_glide_metal>  (1) 
-0

>  <r_i_glide_rewards>  (1) 
-2.6083333333333334

>  <r_lp_Energy>  (1) 
3.9173999999999998

>  <r_lp_tautomer_probability>  (1) 
1

>  <s_epik_cmdline>  (1) 
J2VwaWtfcHl0aG9uJywgJy1waHQnLCAnMS4wJywgJy1waCcsICc3LjQnLCAnLXRuJywgJzgnLCAnLW1hJywgJzUwMCcsICctaW1hZScsICc8aW5maWxlLm1hZT4nLCAnLW9tYWUnLCAnPG91dGZpbGUubWFlPic=

>  <s_epik_input>  (1) 
TzFbQ0gyXVtDSDJdW0NIMl1bQ0gyXTE=

>  <s_glide_docking_method>  (1) 
confgen

>  <s_i_glide_gridfile>  (1) 
gpcr_drd2_6luq_protein_autoprepared_prepared

>  <s_lp_Force_Field>  (1) 
S-OPLS

>  <s_lp_Variant>  (1) 
Pocket2Mol_55-1

>  <s_m_source_file>  (1) 
generated_generic_title2_ligand_Pocket2Mol_2026-06-23_prepared.sdf

>  <GenAI_Model>  (1) 
Pocket2Mol

>  <Protein>  (1) 
generic_title2

$$$$
Pocket2Mol_45
     RDKit          3D

  0  0  0  0  0  0  0  0  0  0999 V3000
M  V30 BEGIN CTAB
M  V30 COUNTS 15 16 0 0 1
M  V30 BEGIN ATOM
M  V30 1 C 9.895280 7.434308 -7.423467 0
M  V30 2 O 10.287872 6.474490 -6.386293 0
M  V30 3 C 10.933734 7.303393 -5.561659 0
M  V30 4 C 10.979323 8.569391 -5.978066 0
M  V30 5 C 11.620263 9.558518 -5.214253 0
M  V30 6 N 12.196732 9.201887 -4.038888 0 CHG=1
M  V30 7 C 12.175410 7.923480 -3.577211 0
M  V30 8 C 11.526283 6.919439 -4.341900 0
M  V30 9 O 10.370812 8.790227 -7.143415 0
M  V30 10 H 8.805716 7.453333 -7.499098 0
M  V30 11 H 10.300003 7.116763 -8.386334 0
M  V30 12 H 11.688638 10.599575 -5.492747 0
M  V30 13 H 12.660841 7.749124 -2.627594 0
M  V30 14 H 11.484876 5.901145 -3.998877 0
M  V30 15 H 12.660657 9.919823 -3.479474 0
M  V30 END ATOM
M  V30 BEGIN BOND
M  V30 1 1 2 1
M  V30 2 1 3 2
M  V30 3 2 4 3
M  V30 4 1 5 4
M  V30 5 2 6 5
M  V30 6 1 7 6
M  V30 7 1 8 3
M  V30 8 2 8 7
M  V30 9 1 9 1
M  V30 10 1 9 4
M  V30 11 1 10 1
M  V30 12 1 11 1
M  V30 13 1 12 5
M  V30 14 1 13 7
M  V30 15 1 14 8
M  V30 16 1 15 6
M  V30 END BOND
M  V30 END CTAB
M  END
>  <i_epik_Tot_Q>  (1) 
1

>  <i_epik_Tot_abs_Q>  (1) 
1

>  <i_i_glide_confnum>  (1) 
1

>  <i_i_glide_lignum>  (1) 
51

>  <i_i_glide_posenum>  (1) 
206

>  <i_i_glide_rotatable_bonds>  (1) 
0

>  <i_lp_mmshare_version>  (1) 
72125

>  <i_m_source_file_index>  (1) 
46

>  <i_f3d_flags>  (1) 
0

>  <num_sample>  (1) 
100

>  <b_lp_Chiralities_Consistent>  (1) 
1

>  <r_epik_Charging_Adjusted_Penalty>  (1) 
2.6035637255513002

>  <r_epik_Ionization_Penalty>  (1) 
1.3017818627756499

>  <r_epik_Ionization_Penalty_Charging>  (1) 
1.3017818627756499

>  <r_epik_Ionization_Penalty_Neutral>  (1) 
0

>  <r_epik_State_Penalty>  (1) 
1.3017818627756503

>  <r_glide_ring_energy>  (1) 
0

>  <r_i_docking_score>  (1) 
-3.8247337267550945

>  <r_i_glide_ecoul>  (1) 
-1.1656709059828061

>  <r_i_glide_eff_state_penalty>  (1) 
1.3017818627756503

>  <r_i_glide_einternal>  (1) 
0

>  <r_i_glide_emodel>  (1) 
-27.918950882645092

>  <r_i_glide_emodel_strain>  (1) 
0

>  <r_i_glide_energy>  (1) 
-18.323751352132653

>  <r_i_glide_erotb>  (1) 
0

>  <r_i_glide_esite>  (1) 
-0.051465148685674957

>  <r_i_glide_evdw>  (1) 
-17.158080446149846

>  <r_i_glide_gscore>  (1) 
-5.1265155895307446

>  <r_i_glide_gscore_strain>  (1) 
0

>  <r_i_glide_hbond>  (1) 
0

>  <r_i_glide_ligand_efficiency>  (1) 
-0.42497041408389941

>  <r_i_glide_ligand_efficiency_ln>  (1) 
-1.1962668352630039

>  <r_i_glide_ligand_efficiency_sa>  (1) 
-0.88397408361158836

>  <r_i_glide_lipo>  (1) 
-1.3654553500221858

>  <r_i_glide_metal>  (1) 
-0

>  <r_i_glide_rewards>  (1) 
-2.6768404326179711

>  <r_lp_Energy>  (1) 
25.893000999999998

>  <s_epik_Chemistry_Notes>  (1) 
This compound contains an acetal/aminal-like group ( X-CH(R)-Y where X, Y are N, S, or O) that may be acid/base labile, releasing an aldehyde.

>  <s_epik_cmdline>  (1) 
J2VwaWtfcHl0aG9uJywgJy1waHQnLCAnMS4wJywgJy1waCcsICc3LjQnLCAnLXRuJywgJzgnLCAnLW1hJywgJzUwMCcsICctaW1hZScsICc8aW5maWxlLm1hZT4nLCAnLW9tYWUnLCAnPG91dGZpbGUubWFlPic=

>  <s_epik_input>  (1) 
TzFbQ0gyXU9jKGMxMilbY0hdbltjSF1bY0hdMg==

>  <s_glide_docking_method>  (1) 
confgen

>  <s_i_glide_gridfile>  (1) 
gpcr_drd2_6luq_protein_autoprepared_prepared

>  <s_lp_Force_Field>  (1) 
S-OPLS

>  <s_lp_Variant>  (1) 
Pocket2Mol_45-2

>  <s_m_source_file>  (1) 
generated_generic_title2_ligand_Pocket2Mol_2026-06-23_prepared.sdf

>  <GenAI_Model>  (1) 
Pocket2Mol

>  <Protein>  (1) 
generic_title2

$$$$
Pocket2Mol_66
     RDKit          3D

  0  0  0  0  0  0  0  0  0  0999 V3000
M  V30 BEGIN CTAB
M  V30 COUNTS 8 8 0 0 1
M  V30 BEGIN ATOM
M  V30 1 N 10.588357 8.775026 -5.985025 0
M  V30 2 C 11.768493 9.029185 -6.778916 0
M  V30 3 C 11.684391 8.475271 -7.930766 0
M  V30 4 C 10.511618 7.871906 -7.932309 0
M  V30 5 C 9.896627 8.066111 -6.785086 0
M  V30 6 H 12.586379 9.616199 -6.385746 0
M  V30 7 H 12.419375 8.488431 -8.722557 0
M  V30 8 H 10.184841 7.193045 -8.706737 0
M  V30 END ATOM
M  V30 BEGIN BOND
M  V30 1 1 2 1
M  V30 2 2 3 2
M  V30 3 1 4 3
M  V30 4 2 5 1
M  V30 5 2 5 4
M  V30 6 1 6 2
M  V30 7 1 7 3
M  V30 8 1 8 4
M  V30 END BOND
M  V30 END CTAB
M  END
>  <i_epik_Tot_Q>  (1) 
0

>  <i_epik_Tot_abs_Q>  (1) 
0

>  <i_i_glide_confnum>  (1) 
1

>  <i_i_glide_lignum>  (1) 
73

>  <i_i_glide_posenum>  (1) 
185

>  <i_i_glide_rotatable_bonds>  (1) 
0

>  <i_lp_mmshare_version>  (1) 
72125

>  <i_m_source_file_index>  (1) 
67

>  <i_f3d_flags>  (1) 
0

>  <num_sample>  (1) 
100

>  <b_lp_Chiralities_Consistent>  (1) 
1

>  <r_epik_Charging_Adjusted_Penalty>  (1) 
0

>  <r_epik_Ionization_Penalty>  (1) 
0

>  <r_epik_Ionization_Penalty_Charging>  (1) 
0

>  <r_epik_Ionization_Penalty_Neutral>  (1) 
0

>  <r_epik_State_Penalty>  (1) 
-0

>  <r_glide_ring_energy>  (1) 
0

>  <r_i_docking_score>  (1) 
-3.8052105923870272

>  <r_i_glide_ecoul>  (1) 
-0.73490583203411153

>  <r_i_glide_eff_state_penalty>  (1) 
-0

>  <r_i_glide_einternal>  (1) 
0

>  <r_i_glide_emodel>  (1) 
-16.77548446258303

>  <r_i_glide_emodel_strain>  (1) 
0

>  <r_i_glide_energy>  (1) 
-13.349706290683383

>  <r_i_glide_erotb>  (1) 
0

>  <r_i_glide_esite>  (1) 
0

>  <r_i_glide_evdw>  (1) 
-12.61480045864927

>  <r_i_glide_gscore>  (1) 
-3.8052105923870272

>  <r_i_glide_gscore_strain>  (1) 
0

>  <r_i_glide_hbond>  (1) 
0

>  <r_i_glide_ligand_efficiency>  (1) 
-0.76104211847740544

>  <r_i_glide_ligand_efficiency_ln>  (1) 
-1.458249140266956

>  <r_i_glide_ligand_efficiency_sa>  (1) 
-1.3013637170042405

>  <r_i_glide_lipo>  (1) 
-0.50590136131611341

>  <r_i_glide_metal>  (1) 
-0

>  <r_i_glide_rewards>  (1) 
-2.5583333333333336

>  <r_lp_Energy>  (1) 
4.860805

>  <r_lp_tautomer_probability>  (1) 
1

>  <s_epik_Chemistry_Notes>  (1) 
This compound has an imine and may undergo hydrolysis.

>  <s_epik_cmdline>  (1) 
J2VwaWtfcHl0aG9uJywgJy1waHQnLCAnMS4wJywgJy1waCcsICc3LjQnLCAnLXRuJywgJzgnLCAnLW1hJywgJzUwMCcsICctaW1hZScsICc8aW5maWxlLm1hZT4nLCAnLW9tYWUnLCAnPG91dGZpbGUubWFlPic=

>  <s_epik_input>  (1) 
TjE9Qz1bQ0hdW0NIXT1bQ0hdMQ==

>  <s_glide_docking_method>  (1) 
confgen

>  <s_i_glide_gridfile>  (1) 
gpcr_drd2_6luq_protein_autoprepared_prepared

>  <s_lp_Force_Field>  (1) 
S-OPLS

>  <s_lp_Variant>  (1) 
Pocket2Mol_66-1

>  <s_m_source_file>  (1) 
generated_generic_title2_ligand_Pocket2Mol_2026-06-23_prepared.sdf

>  <GenAI_Model>  (1) 
Pocket2Mol

>  <Protein>  (1) 
generic_title2

$$$$
Pocket2Mol_9
     RDKit          3D

  0  0  0  0  0  0  0  0  0  0999 V3000
M  V30 BEGIN CTAB
M  V30 COUNTS 12 12 0 0 1
M  V30 BEGIN ATOM
M  V30 1 N 12.572986 7.820603 -1.982768 0
M  V30 2 C 12.052662 6.742514 -2.746942 0
M  V30 3 C 11.775588 7.149321 -4.045274 0
M  V30 4 C 12.572376 8.788326 -2.886436 0
M  V30 5 C 11.217775 6.414204 -5.218131 0
M  V30 6 N 12.126850 8.469855 -4.076555 0
M  V30 7 H 11.919306 5.767937 -2.300758 0
M  V30 8 H 12.911217 9.784594 -2.655389 0
M  V30 9 H 11.873103 5.590562 -5.508343 0
M  V30 10 H 10.240414 5.990227 -4.978094 0
M  V30 11 H 11.098660 7.069682 -6.083407 0
M  V30 12 H 12.055099 9.088966 -4.872228 0
M  V30 END ATOM
M  V30 BEGIN BOND
M  V30 1 1 2 1
M  V30 2 2 3 2
M  V30 3 2 4 1
M  V30 4 1 5 3
M  V30 5 1 6 3
M  V30 6 1 6 4
M  V30 7 1 7 2
M  V30 8 1 8 4
M  V30 9 1 9 5
M  V30 10 1 10 5
M  V30 11 1 11 5
M  V30 12 1 12 6
M  V30 END BOND
M  V30 END CTAB
M  END
>  <i_epik_Tot_Q>  (1) 
0

>  <i_epik_Tot_abs_Q>  (1) 
0

>  <i_i_glide_confnum>  (1) 
1

>  <i_i_glide_lignum>  (1) 
10

>  <i_i_glide_posenum>  (1) 
108

>  <i_i_glide_rotatable_bonds>  (1) 
0

>  <i_lp_mmshare_version>  (1) 
72125

>  <i_m_source_file_index>  (1) 
10

>  <i_f3d_flags>  (1) 
0

>  <num_sample>  (1) 
100

>  <b_lp_Chiralities_Consistent>  (1) 
1

>  <r_epik_Charging_Adjusted_Penalty>  (1) 
0.90509379346265462

>  <r_epik_Ionization_Penalty>  (1) 
0.31828505333430857

>  <r_epik_Ionization_Penalty_Charging>  (1) 
0.31828499876078775

>  <r_epik_Ionization_Penalty_Neutral>  (1) 
5.457352079622119e-08

>  <r_epik_State_Penalty>  (1) 
0.58680879470186686

>  <r_glide_ring_energy>  (1) 
0

>  <r_i_docking_score>  (1) 
-3.7983858035566738

>  <r_i_glide_ecoul>  (1) 
-1.2456251791382793

>  <r_i_glide_eff_state_penalty>  (1) 
0.58680879470186686

>  <r_i_glide_einternal>  (1) 
0

>  <r_i_glide_emodel>  (1) 
-20.816392861035222

>  <r_i_glide_emodel_strain>  (1) 
0.045251434844498561

>  <r_i_glide_energy>  (1) 
-15.438507164762596

>  <r_i_glide_erotb>  (1) 
0

>  <r_i_glide_esite>  (1) 
0

>  <r_i_glide_evdw>  (1) 
-14.192881985624316

>  <r_i_glide_gscore>  (1) 
-4.3851945982585407

>  <r_i_glide_gscore_strain>  (1) 
0

>  <r_i_glide_hbond>  (1) 
0

>  <r_i_glide_ligand_efficiency>  (1) 
-0.63306430059277896

>  <r_i_glide_ligand_efficiency_ln>  (1) 
-1.3605705811779549

>  <r_i_glide_ligand_efficiency_sa>  (1) 
-1.1503541771940144

>  <r_i_glide_lipo>  (1) 
-0.7887067221065831

>  <r_i_glide_metal>  (1) 
-0

>  <r_i_glide_rewards>  (1) 
-2.7000000000000002

>  <r_lp_Energy>  (1) 
2.6351399999999998

>  <r_lp_tautomer_probability>  (1) 
0.49999999999999867

>  <s_epik_cmdline>  (1) 
J2VwaWtfcHl0aG9uJywgJy1waHQnLCAnMS4wJywgJy1waCcsICc3LjQnLCAnLXRuJywgJzgnLCAnLW1hJywgJzUwMCcsICctaW1hZScsICc8aW5maWxlLm1hZT4nLCAnLW9tYWUnLCAnPG91dGZpbGUubWFlPic=

>  <s_epik_input>  (1) 
W25IXTFbY0hdbltjSF1jMVtDSDNd

>  <s_glide_docking_method>  (1) 
confgen

>  <s_i_glide_gridfile>  (1) 
gpcr_drd2_6luq_protein_autoprepared_prepared

>  <s_lp_Force_Field>  (1) 
S-OPLS

>  <s_lp_Variant>  (1) 
Pocket2Mol_9-1

>  <s_m_source_file>  (1) 
generated_generic_title2_ligand_Pocket2Mol_2026-06-23_prepared.sdf

>  <GenAI_Model>  (1) 
Pocket2Mol

>  <Protein>  (1) 
generic_title2

$$$$
Pocket2Mol_11
     RDKit          3D

  0  0  0  0  0  0  0  0  0  0999 V3000
M  V30 BEGIN CTAB
M  V30 COUNTS 14 13 0 0 1
M  V30 BEGIN ATOM
M  V30 1 N 6.901625 5.990227 -11.185025 0 CHG=1
M  V30 2 C 7.553806 6.537728 -12.393337 0
M  V30 3 C 5.452789 5.771242 -11.362716 0
M  V30 4 C 7.597835 4.805111 -10.643301 0
M  V30 5 H 7.508901 5.828869 -13.221235 0
M  V30 6 H 8.601309 6.766895 -12.193865 0
M  V30 7 H 7.068086 7.463113 -12.705540 0
M  V30 8 H 5.258484 5.001225 -12.110276 0
M  V30 9 H 4.990269 5.467996 -10.422306 0
M  V30 10 H 4.975410 6.697846 -11.681299 0
M  V30 11 H 7.589995 3.990212 -11.366475 0
M  V30 12 H 8.635573 5.042577 -10.406305 0
M  V30 13 H 7.119329 4.460054 -9.725490 0
M  V30 14 H 6.975410 6.720046 -10.463572 0
M  V30 END ATOM
M  V30 BEGIN BOND
M  V30 1 1 2 1
M  V30 2 1 3 1
M  V30 3 1 4 1
M  V30 4 1 5 2
M  V30 5 1 6 2
M  V30 6 1 7 2
M  V30 7 1 8 3
M  V30 8 1 9 3
M  V30 9 1 10 3
M  V30 10 1 11 4
M  V30 11 1 12 4
M  V30 12 1 13 4
M  V30 13 1 14 1
M  V30 END BOND
M  V30 END CTAB
M  END
>  <i_epik_Tot_Q>  (1) 
1

>  <i_epik_Tot_abs_Q>  (1) 
1

>  <i_i_glide_confnum>  (1) 
1

>  <i_i_glide_lignum>  (1) 
14

>  <i_i_glide_posenum>  (1) 
59

>  <i_i_glide_rotatable_bonds>  (1) 
0

>  <i_lp_mmshare_version>  (1) 
72125

>  <i_m_source_file_index>  (1) 
12

>  <i_f3d_flags>  (1) 
0

>  <num_sample>  (1) 
100

>  <b_lp_Chiralities_Consistent>  (1) 
1

>  <r_epik_Charging_Adjusted_Penalty>  (1) 
0.0093753769364623638

>  <r_epik_Ionization_Penalty>  (1) 
0.0046876884682311671

>  <r_epik_Ionization_Penalty_Charging>  (1) 
0.0046876884682311671

>  <r_epik_Ionization_Penalty_Neutral>  (1) 
0

>  <r_epik_State_Penalty>  (1) 
0.0046876884682311958

>  <r_glide_ring_energy>  (1) 
0

>  <r_i_docking_score>  (1) 
-3.7791295862142014

>  <r_i_glide_ecoul>  (1) 
-6.48074275367577

>  <r_i_glide_eff_state_penalty>  (1) 
0.0046876884682311958

>  <r_i_glide_einternal>  (1) 
0

>  <r_i_glide_emodel>  (1) 
-17.932071423991257

>  <r_i_glide_emodel_strain>  (1) 
0

>  <r_i_glide_energy>  (1) 
-11.774502295881547

>  <r_i_glide_erotb>  (1) 
0

>  <r_i_glide_esite>  (1) 
-0.10000000000000001

>  <r_i_glide_evdw>  (1) 
-5.2937595422057768

>  <r_i_glide_gscore>  (1) 
-3.7838172746824323

>  <r_i_glide_gscore_strain>  (1) 
0

>  <r_i_glide_hbond>  (1) 
-0.19701788452077823

>  <r_i_glide_ligand_efficiency>  (1) 
-0.94478239655355034

>  <r_i_glide_ligand_efficiency_ln>  (1) 
-1.5836812288491733

>  <r_i_glide_ligand_efficiency_sa>  (1) 
-1.4997485701701423

>  <r_i_glide_lipo>  (1) 
0

>  <r_i_glide_metal>  (1) 
-0

>  <r_i_glide_rewards>  (1) 
-2.25

>  <r_lp_Energy>  (1) 
13.212527

>  <s_epik_cmdline>  (1) 
J2VwaWtfcHl0aG9uJywgJy1waHQnLCAnMS4wJywgJy1waCcsICc3LjQnLCAnLXRuJywgJzgnLCAnLW1hJywgJzUwMCcsICctaW1hZScsICc8aW5maWxlLm1hZT4nLCAnLW9tYWUnLCAnPG91dGZpbGUubWFlPic=

>  <s_epik_input>  (1) 
W0NIM11OKFtDSDNdKVtDSDNd

>  <s_glide_docking_method>  (1) 
confgen

>  <s_i_glide_gridfile>  (1) 
gpcr_drd2_6luq_protein_autoprepared_prepared

>  <s_lp_Force_Field>  (1) 
S-OPLS

>  <s_lp_Variant>  (1) 
Pocket2Mol_11-1

>  <s_m_source_file>  (1) 
generated_generic_title2_ligand_Pocket2Mol_2026-06-23_prepared.sdf

>  <GenAI_Model>  (1) 
Pocket2Mol

>  <Protein>  (1) 
generic_title2

$$$$
Pocket2Mol_9
     RDKit          3D

  0  0  0  0  0  0  0  0  0  0999 V3000
M  V30 BEGIN CTAB
M  V30 COUNTS 13 13 0 0 1
M  V30 BEGIN ATOM
M  V30 1 N 9.642052 5.410993 -12.401549 0 CHG=1
M  V30 2 C 8.646580 4.495552 -12.185920 0
M  V30 3 C 7.696916 5.118555 -11.403310 0
M  V30 4 C 9.350417 6.559804 -11.792765 0
M  V30 5 C 6.399508 4.640276 -10.841705 0
M  V30 6 N 8.175410 6.389779 -11.185019 0
M  V30 7 H 8.684679 3.493837 -12.591163 0
M  V30 8 H 9.950160 7.452892 -11.786688 0
M  V30 9 H 5.844147 4.079852 -11.594148 0
M  V30 10 H 6.575467 3.990657 -9.984535 0
M  V30 11 H 5.787214 5.481511 -10.513341 0
M  V30 12 H 7.699121 7.104324 -10.611758 0
M  V30 13 H 10.483711 5.238442 -12.944106 0
M  V30 END ATOM
M  V30 BEGIN BOND
M  V30 1 1 2 1
M  V30 2 2 3 2
M  V30 3 2 4 1
M  V30 4 1 5 3
M  V30 5 1 6 3
M  V30 6 1 6 4
M  V30 7 1 7 2
M  V30 8 1 8 4
M  V30 9 1 9 5
M  V30 10 1 10 5
M  V30 11 1 11 5
M  V30 12 1 12 6
M  V30 13 1 13 1
M  V30 END BOND
M  V30 END CTAB
M  END
>  <i_epik_Tot_Q>  (1) 
1

>  <i_epik_Tot_abs_Q>  (1) 
1

>  <i_i_glide_confnum>  (1) 
1

>  <i_i_glide_lignum>  (1) 
11

>  <i_i_glide_posenum>  (1) 
200

>  <i_i_glide_rotatable_bonds>  (1) 
0

>  <i_lp_mmshare_version>  (1) 
72125

>  <i_m_source_file_index>  (1) 
10

>  <i_f3d_flags>  (1) 
0

>  <num_sample>  (1) 
100

>  <b_lp_Chiralities_Consistent>  (1) 
1

>  <r_epik_Charging_Adjusted_Penalty>  (1) 
0.63910500234431922

>  <r_epik_Ionization_Penalty>  (1) 
0.82018112513013652

>  <r_epik_Ionization_Penalty_Charging>  (1) 
0

>  <r_epik_Ionization_Penalty_Neutral>  (1) 
0.82018112513013652

>  <r_epik_State_Penalty>  (1) 
0.63910500234431922

>  <r_glide_ring_energy>  (1) 
0

>  <r_i_docking_score>  (1) 
-3.7783479701148348

>  <r_i_glide_ecoul>  (1) 
-8.4660596617893962

>  <r_i_glide_eff_state_penalty>  (1) 
0.63910500234431922

>  <r_i_glide_einternal>  (1) 
0

>  <r_i_glide_emodel>  (1) 
-24.47968649372979

>  <r_i_glide_emodel_strain>  (1) 
0.030156026076164966

>  <r_i_glide_energy>  (1) 
-16.27997784363982

>  <r_i_glide_erotb>  (1) 
0

>  <r_i_glide_esite>  (1) 
-0.11448638014905227

>  <r_i_glide_evdw>  (1) 
-7.8139181818504255

>  <r_i_glide_gscore>  (1) 
-4.417452972459154

>  <r_i_glide_gscore_strain>  (1) 
0

>  <r_i_glide_hbond>  (1) 
-0.20000000000000001

>  <r_i_glide_ligand_efficiency>  (1) 
-0.62972466168580576

>  <r_i_glide_ligand_efficiency_ln>  (1) 
-1.3533930883951044

>  <r_i_glide_ligand_efficiency_sa>  (1) 
-1.1442856505635302

>  <r_i_glide_lipo>  (1) 
-0.19236173394917039

>  <r_i_glide_metal>  (1) 
-0

>  <r_i_glide_rewards>  (1) 
-2.25

>  <r_lp_Energy>  (1) 
7.4764169999999996

>  <r_lp_tautomer_probability>  (1) 
1

>  <s_epik_cmdline>  (1) 
J2VwaWtfcHl0aG9uJywgJy1waHQnLCAnMS4wJywgJy1waCcsICc3LjQnLCAnLXRuJywgJzgnLCAnLW1hJywgJzUwMCcsICctaW1hZScsICc8aW5maWxlLm1hZT4nLCAnLW9tYWUnLCAnPG91dGZpbGUubWFlPic=

>  <s_epik_input>  (1) 
W25IXTFbY0hdbltjSF1jMVtDSDNd

>  <s_glide_docking_method>  (1) 
confgen

>  <s_i_glide_gridfile>  (1) 
gpcr_drd2_6luq_protein_autoprepared_prepared

>  <s_lp_Force_Field>  (1) 
S-OPLS

>  <s_lp_Variant>  (1) 
Pocket2Mol_9-2

>  <s_m_source_file>  (1) 
generated_generic_title2_ligand_Pocket2Mol_2026-06-23_prepared.sdf

>  <GenAI_Model>  (1) 
Pocket2Mol

>  <Protein>  (1) 
generic_title2

$$$$
Pocket2Mol_9
     RDKit          3D

  0  0  0  0  0  0  0  0  0  0999 V3000
M  V30 BEGIN CTAB
M  V30 COUNTS 12 12 0 0 1
M  V30 BEGIN ATOM
M  V30 1 N 11.814753 9.005522 -4.663693 0
M  V30 2 C 12.342725 8.630370 -3.394492 0
M  V30 3 C 12.175409 7.267021 -3.173241 0
M  V30 4 C 11.375402 7.832897 -5.105913 0
M  V30 5 C 12.537028 6.398684 -2.017554 0
M  V30 6 N 11.549372 6.806640 -4.301085 0
M  V30 7 H 12.792474 9.369624 -2.747840 0
M  V30 8 H 10.894028 7.729337 -6.067957 0
M  V30 9 H 12.975385 6.992712 -1.217000 0
M  V30 10 H 11.651048 5.909837 -1.612645 0
M  V30 11 H 13.253458 5.629365 -2.306337 0
M  V30 12 H 11.267835 5.851944 -4.481946 0
M  V30 END ATOM
M  V30 BEGIN BOND
M  V30 1 1 2 1
M  V30 2 2 3 2
M  V30 3 2 4 1
M  V30 4 1 5 3
M  V30 5 1 6 3
M  V30 6 1 6 4
M  V30 7 1 7 2
M  V30 8 1 8 4
M  V30 9 1 9 5
M  V30 10 1 10 5
M  V30 11 1 11 5
M  V30 12 1 12 6
M  V30 END BOND
M  V30 END CTAB
M  END
>  <i_epik_Tot_Q>  (1) 
0

>  <i_epik_Tot_abs_Q>  (1) 
0

>  <i_i_glide_confnum>  (1) 
1

>  <i_i_glide_lignum>  (1) 
10

>  <i_i_glide_posenum>  (1) 
244

>  <i_i_glide_rotatable_bonds>  (1) 
0

>  <i_lp_mmshare_version>  (1) 
72125

>  <i_m_source_file_index>  (1) 
10

>  <i_f3d_flags>  (1) 
0

>  <num_sample>  (1) 
100

>  <b_lp_Chiralities_Consistent>  (1) 
1

>  <r_epik_Charging_Adjusted_Penalty>  (1) 
0.90509379346265462

>  <r_epik_Ionization_Penalty>  (1) 
0.31828505333430857

>  <r_epik_Ionization_Penalty_Charging>  (1) 
0.31828499876078775

>  <r_epik_Ionization_Penalty_Neutral>  (1) 
5.457352079622119e-08

>  <r_epik_State_Penalty>  (1) 
0.58680879470186686

>  <r_glide_ring_energy>  (1) 
0

>  <r_i_docking_score>  (1) 
-3.7777604209611613

>  <r_i_glide_ecoul>  (1) 
-2.1972352391164889

>  <r_i_glide_eff_state_penalty>  (1) 
0.58680879470186686

>  <r_i_glide_einternal>  (1) 
0

>  <r_i_glide_emodel>  (1) 
-21.650420804658978

>  <r_i_glide_emodel_strain>  (1) 
0

>  <r_i_glide_energy>  (1) 
-16.252790928850807

>  <r_i_glide_erotb>  (1) 
0

>  <r_i_glide_esite>  (1) 
0

>  <r_i_glide_evdw>  (1) 
-14.055555689734319

>  <r_i_glide_gscore>  (1) 
-4.3645692156630282

>  <r_i_glide_gscore_strain>  (1) 
0

>  <r_i_glide_hbond>  (1) 
0

>  <r_i_glide_ligand_efficiency>  (1) 
-0.62962673682686021

>  <r_i_glide_ligand_efficiency_ln>  (1) 
-1.3531826300228307

>  <r_i_glide_ligand_efficiency_sa>  (1) 
-1.1441077092857899

>  <r_i_glide_lipo>  (1) 
-0.8350023131033969

>  <r_i_glide_metal>  (1) 
-0

>  <r_i_glide_rewards>  (1) 
-2.4972038322054417

>  <r_lp_Energy>  (1) 
2.6351399999999998

>  <r_lp_tautomer_probability>  (1) 
0.49999999999999867

>  <s_epik_cmdline>  (1) 
J2VwaWtfcHl0aG9uJywgJy1waHQnLCAnMS4wJywgJy1waCcsICc3LjQnLCAnLXRuJywgJzgnLCAnLW1hJywgJzUwMCcsICctaW1hZScsICc8aW5maWxlLm1hZT4nLCAnLW9tYWUnLCAnPG91dGZpbGUubWFlPic=

>  <s_epik_input>  (1) 
W25IXTFbY0hdbltjSF1jMVtDSDNd

>  <s_glide_docking_method>  (1) 
confgen

>  <s_i_glide_gridfile>  (1) 
gpcr_drd2_6luq_protein_autoprepared_prepared

>  <s_lp_Force_Field>  (1) 
S-OPLS

>  <s_lp_Variant>  (1) 
Pocket2Mol_9-1

>  <s_m_source_file>  (1) 
generated_generic_title2_ligand_Pocket2Mol_2026-06-23_prepared.sdf

>  <GenAI_Model>  (1) 
Pocket2Mol

>  <Protein>  (1) 
generic_title2

$$$$
Pocket2Mol_66
     RDKit          3D

  0  0  0  0  0  0  0  0  0  0999 V3000
M  V30 BEGIN CTAB
M  V30 COUNTS 8 8 0 0 1
M  V30 BEGIN ATOM
M  V30 1 N 10.926289 8.734474 -6.237482 0
M  V30 2 C 9.776289 8.186616 -6.921504 0
M  V30 3 C 10.026669 7.975698 -8.159475 0
M  V30 4 C 11.278130 8.356026 -8.323346 0
M  V30 5 C 11.774548 8.790282 -7.185024 0
M  V30 6 H 8.847542 8.009521 -6.396094 0
M  V30 7 H 9.351903 7.587537 -8.909831 0
M  V30 8 H 11.749117 8.462451 -9.289230 0
M  V30 END ATOM
M  V30 BEGIN BOND
M  V30 1 1 2 1
M  V30 2 2 3 2
M  V30 3 1 4 3
M  V30 4 2 5 1
M  V30 5 2 5 4
M  V30 6 1 6 2
M  V30 7 1 7 3
M  V30 8 1 8 4
M  V30 END BOND
M  V30 END CTAB
M  END
>  <i_epik_Tot_Q>  (1) 
0

>  <i_epik_Tot_abs_Q>  (1) 
0

>  <i_i_glide_confnum>  (1) 
1

>  <i_i_glide_lignum>  (1) 
73

>  <i_i_glide_posenum>  (1) 
339

>  <i_i_glide_rotatable_bonds>  (1) 
0

>  <i_lp_mmshare_version>  (1) 
72125

>  <i_m_source_file_index>  (1) 
67

>  <i_f3d_flags>  (1) 
0

>  <num_sample>  (1) 
100

>  <b_lp_Chiralities_Consistent>  (1) 
1

>  <r_epik_Charging_Adjusted_Penalty>  (1) 
0

>  <r_epik_Ionization_Penalty>  (1) 
0

>  <r_epik_Ionization_Penalty_Charging>  (1) 
0

>  <r_epik_Ionization_Penalty_Neutral>  (1) 
0

>  <r_epik_State_Penalty>  (1) 
-0

>  <r_glide_ring_energy>  (1) 
0

>  <r_i_docking_score>  (1) 
-3.7763874134583739

>  <r_i_glide_ecoul>  (1) 
-1.0246611410640956

>  <r_i_glide_eff_state_penalty>  (1) 
-0

>  <r_i_glide_einternal>  (1) 
0

>  <r_i_glide_emodel>  (1) 
-16.977288802782638

>  <r_i_glide_emodel_strain>  (1) 
0

>  <r_i_glide_energy>  (1) 
-13.577459737987885

>  <r_i_glide_erotb>  (1) 
0

>  <r_i_glide_esite>  (1) 
0

>  <r_i_glide_evdw>  (1) 
-12.55279859692379

>  <r_i_glide_gscore>  (1) 
-3.7763874134583739

>  <r_i_glide_gscore_strain>  (1) 
0

>  <r_i_glide_hbond>  (1) 
0

>  <r_i_glide_ligand_efficiency>  (1) 
-0.75527748269167483

>  <r_i_glide_ligand_efficiency_ln>  (1) 
-1.4472033978902894

>  <r_i_glide_ligand_efficiency_sa>  (1) 
-1.2915063284692891

>  <r_i_glide_lipo>  (1) 
-0.42004831245256979

>  <r_i_glide_metal>  (1) 
-0

>  <r_i_glide_rewards>  (1) 
-2.5750000000000002

>  <r_lp_Energy>  (1) 
4.860805

>  <r_lp_tautomer_probability>  (1) 
1

>  <s_epik_Chemistry_Notes>  (1) 
This compound has an imine and may undergo hydrolysis.

>  <s_epik_cmdline>  (1) 
J2VwaWtfcHl0aG9uJywgJy1waHQnLCAnMS4wJywgJy1waCcsICc3LjQnLCAnLXRuJywgJzgnLCAnLW1hJywgJzUwMCcsICctaW1hZScsICc8aW5maWxlLm1hZT4nLCAnLW9tYWUnLCAnPG91dGZpbGUubWFlPic=

>  <s_epik_input>  (1) 
TjE9Qz1bQ0hdW0NIXT1bQ0hdMQ==

>  <s_glide_docking_method>  (1) 
confgen

>  <s_i_glide_gridfile>  (1) 
gpcr_drd2_6luq_protein_autoprepared_prepared

>  <s_lp_Force_Field>  (1) 
S-OPLS

>  <s_lp_Variant>  (1) 
Pocket2Mol_66-1

>  <s_m_source_file>  (1) 
generated_generic_title2_ligand_Pocket2Mol_2026-06-23_prepared.sdf

>  <GenAI_Model>  (1) 
Pocket2Mol

>  <Protein>  (1) 
generic_title2

$$$$
Pocket2Mol_99
     RDKit          3D

  0  0  0  0  0  0  0  0  0  0999 V3000
M  V30 BEGIN CTAB
M  V30 COUNTS 11 11 0 0 1
M  V30 BEGIN ATOM
M  V30 1 O 10.872625 6.390223 -6.980747 0
M  V30 2 C 9.775664 7.066247 -7.553290 0
M  V30 3 C 9.775410 8.390126 -6.784864 0
M  V30 4 C 10.835534 6.790244 -5.660331 0
M  V30 5 O 10.575470 8.146821 -5.640033 0
M  V30 6 H 9.887381 7.195749 -8.630015 0
M  V30 7 H 8.857454 6.506477 -7.364759 0
M  V30 8 H 10.236941 9.186421 -7.367218 0
M  V30 9 H 8.765376 8.698976 -6.511949 0
M  V30 10 H 10.031176 6.263578 -5.141503 0
M  V30 11 H 11.775382 6.565472 -5.158851 0
M  V30 END ATOM
M  V30 BEGIN BOND
M  V30 1 1 2 1
M  V30 2 1 3 2
M  V30 3 1 4 1
M  V30 4 1 5 3
M  V30 5 1 5 4
M  V30 6 1 6 2
M  V30 7 1 7 2
M  V30 8 1 8 3
M  V30 9 1 9 3
M  V30 10 1 10 4
M  V30 11 1 11 4
M  V30 END BOND
M  V30 END CTAB
M  END
>  <i_epik_Tot_Q>  (1) 
0

>  <i_epik_Tot_abs_Q>  (1) 
0

>  <i_i_glide_confnum>  (1) 
1

>  <i_i_glide_lignum>  (1) 
108

>  <i_i_glide_posenum>  (1) 
113

>  <i_i_glide_rotatable_bonds>  (1) 
0

>  <i_lp_mmshare_version>  (1) 
72125

>  <i_m_source_file_index>  (1) 
100

>  <i_f3d_flags>  (1) 
0

>  <num_sample>  (1) 
100

>  <b_lp_Chiralities_Consistent>  (1) 
1

>  <r_epik_Charging_Adjusted_Penalty>  (1) 
0

>  <r_epik_Ionization_Penalty>  (1) 
7.9724310449397378e-14

>  <r_epik_Ionization_Penalty_Charging>  (1) 
0

>  <r_epik_Ionization_Penalty_Neutral>  (1) 
7.9724310449397378e-14

>  <r_epik_State_Penalty>  (1) 
-0

>  <r_glide_ring_energy>  (1) 
0

>  <r_i_docking_score>  (1) 
-3.763667719394884

>  <r_i_glide_ecoul>  (1) 
-1.234822294792483

>  <r_i_glide_eff_state_penalty>  (1) 
-0

>  <r_i_glide_einternal>  (1) 
0

>  <r_i_glide_emodel>  (1) 
-16.255475574719391

>  <r_i_glide_emodel_strain>  (1) 
0.049867827090576355

>  <r_i_glide_energy>  (1) 
-13.048709947012071

>  <r_i_glide_erotb>  (1) 
0

>  <r_i_glide_esite>  (1) 
0

>  <r_i_glide_evdw>  (1) 
-11.813887652219588

>  <r_i_glide_gscore>  (1) 
-3.763667719394884

>  <r_i_glide_gscore_strain>  (1) 
0

>  <r_i_glide_hbond>  (1) 
0

>  <r_i_glide_ligand_efficiency>  (1) 
-0.75273354387897684

>  <r_i_glide_ligand_efficiency_ln>  (1) 
-1.4423289021213426

>  <r_i_glide_ligand_efficiency_sa>  (1) 
-1.2871562542897583

>  <r_i_glide_lipo>  (1) 
-0.023514837016276508

>  <r_i_glide_metal>  (1) 
-0

>  <r_i_glide_rewards>  (1) 
-2.9642351555487556

>  <r_lp_Energy>  (1) 
-12.242958999999999

>  <r_lp_tautomer_probability>  (1) 
1

>  <s_epik_Chemistry_Notes>  (1) 
This compound contains an acetal/aminal-like group ( X-CH(R)-Y where X, Y are N, S, or O) that may be acid/base labile, releasing an aldehyde.

>  <s_epik_cmdline>  (1) 
J2VwaWtfcHl0aG9uJywgJy1waHQnLCAnMS4wJywgJy1waCcsICc3LjQnLCAnLXRuJywgJzgnLCAnLW1hJywgJzUwMCcsICctaW1hZScsICc8aW5maWxlLm1hZT4nLCAnLW9tYWUnLCAnPG91dGZpbGUubWFlPic=

>  <s_epik_input>  (1) 
TzFbQ0gyXVtDSDJdT1tDSDJdMQ==

>  <s_glide_docking_method>  (1) 
confgen

>  <s_i_glide_gridfile>  (1) 
gpcr_drd2_6luq_protein_autoprepared_prepared

>  <s_lp_Force_Field>  (1) 
S-OPLS

>  <s_lp_Variant>  (1) 
Pocket2Mol_99-1

>  <s_m_source_file>  (1) 
generated_generic_title2_ligand_Pocket2Mol_2026-06-23_prepared.sdf

>  <GenAI_Model>  (1) 
Pocket2Mol

>  <Protein>  (1) 
generic_title2

$$$$
Pocket2Mol_22
     RDKit          3D

  0  0  0  0  0  0  0  0  0  0999 V3000
M  V30 BEGIN CTAB
M  V30 COUNTS 9 9 0 0 1
M  V30 BEGIN ATOM
M  V30 1 C 11.775502 9.185463 -6.614529 0
M  V30 2 O 10.575107 9.015269 -5.985057 0
M  V30 3 C 9.804383 8.281389 -6.845371 0
M  V30 4 C 11.775410 8.576785 -7.837361 0
M  V30 5 C 10.493045 7.989862 -7.987399 0
M  V30 6 H 12.508185 9.754348 -6.061090 0
M  V30 7 H 8.805532 8.057787 -6.495258 0
M  V30 8 H 12.597956 8.558893 -8.537581 0
M  V30 9 H 10.116498 7.423967 -8.827668 0
M  V30 END ATOM
M  V30 BEGIN BOND
M  V30 1 1 2 1
M  V30 2 1 3 2
M  V30 3 2 4 1
M  V30 4 2 5 3
M  V30 5 1 5 4
M  V30 6 1 6 1
M  V30 7 1 7 3
M  V30 8 1 8 4
M  V30 9 1 9 5
M  V30 END BOND
M  V30 END CTAB
M  END
>  <i_epik_Tot_Q>  (1) 
0

>  <i_epik_Tot_abs_Q>  (1) 
0

>  <i_i_glide_confnum>  (1) 
1

>  <i_i_glide_lignum>  (1) 
26

>  <i_i_glide_posenum>  (1) 
238

>  <i_i_glide_rotatable_bonds>  (1) 
0

>  <i_lp_mmshare_version>  (1) 
72125

>  <i_m_source_file_index>  (1) 
23

>  <i_f3d_flags>  (1) 
0

>  <num_sample>  (1) 
100

>  <b_lp_Chiralities_Consistent>  (1) 
1

>  <r_epik_Charging_Adjusted_Penalty>  (1) 
0

>  <r_epik_Ionization_Penalty>  (1) 
0

>  <r_epik_Ionization_Penalty_Charging>  (1) 
0

>  <r_epik_Ionization_Penalty_Neutral>  (1) 
0

>  <r_epik_State_Penalty>  (1) 
-0

>  <r_glide_ring_energy>  (1) 
0

>  <r_i_docking_score>  (1) 
-3.7582475682009591

>  <r_i_glide_ecoul>  (1) 
-0.65921377551050842

>  <r_i_glide_eff_state_penalty>  (1) 
-0

>  <r_i_glide_einternal>  (1) 
0

>  <r_i_glide_emodel>  (1) 
-14.924367878245178

>  <r_i_glide_emodel_strain>  (1) 
0

>  <r_i_glide_energy>  (1) 
-12.020871669327246

>  <r_i_glide_erotb>  (1) 
0

>  <r_i_glide_esite>  (1) 
0

>  <r_i_glide_evdw>  (1) 
-11.361657893816737

>  <r_i_glide_gscore>  (1) 
-3.7582475682009591

>  <r_i_glide_gscore_strain>  (1) 
0

>  <r_i_glide_hbond>  (1) 
0

>  <r_i_glide_ligand_efficiency>  (1) 
-0.75164951364019184

>  <r_i_glide_ligand_efficiency_ln>  (1) 
-1.4402517685102696

>  <r_i_glide_ligand_efficiency_sa>  (1) 
-1.2853025886559659

>  <r_i_glide_lipo>  (1) 
-0.54128260718354604

>  <r_i_glide_metal>  (1) 
-0

>  <r_i_glide_rewards>  (1) 
-2.5499999999999998

>  <r_lp_Energy>  (1) 
2.5980879999999997

>  <r_lp_tautomer_probability>  (1) 
1

>  <s_epik_cmdline>  (1) 
J2VwaWtfcHl0aG9uJywgJy1waHQnLCAnMS4wJywgJy1waCcsICc3LjQnLCAnLXRuJywgJzgnLCAnLW1hJywgJzUwMCcsICctaW1hZScsICc8aW5maWxlLm1hZT4nLCAnLW9tYWUnLCAnPG91dGZpbGUubWFlPic=

>  <s_epik_input>  (1) 
W2NIXTFvW2NIXVtjSF1bY0hdMQ==

>  <s_glide_docking_method>  (1) 
confgen

>  <s_i_glide_gridfile>  (1) 
gpcr_drd2_6luq_protein_autoprepared_prepared

>  <s_lp_Force_Field>  (1) 
S-OPLS

>  <s_lp_Variant>  (1) 
Pocket2Mol_22-1

>  <s_m_source_file>  (1) 
generated_generic_title2_ligand_Pocket2Mol_2026-06-23_prepared.sdf

>  <GenAI_Model>  (1) 
Pocket2Mol

>  <Protein>  (1) 
generic_title2

$$$$
Pocket2Mol_45
     RDKit          3D

  0  0  0  0  0  0  0  0  0  0999 V3000
M  V30 BEGIN CTAB
M  V30 COUNTS 15 16 0 0 1
M  V30 BEGIN ATOM
M  V30 1 C 11.786000 9.190228 -5.483043 0
M  V30 2 O 12.522948 9.260042 -6.746928 0
M  V30 3 C 11.675580 8.588613 -7.527296 0
M  V30 4 C 10.609037 8.106059 -6.890257 0
M  V30 5 C 9.623649 7.382893 -7.579670 0
M  V30 6 N 9.775408 7.187796 -8.912363 0 CHG=1
M  V30 7 C 10.847446 7.663411 -9.601110 0
M  V30 8 C 11.848979 8.390231 -8.910808 0
M  V30 9 O 10.575408 8.379571 -5.585026 0
M  V30 10 H 11.498951 10.202534 -5.192761 0
M  V30 11 H 12.433448 8.787342 -4.703516 0
M  V30 12 H 8.732726 6.968564 -7.127576 0
M  V30 13 H 10.865731 7.454529 -10.661595 0
M  V30 14 H 12.712066 8.785201 -9.428114 0
M  V30 15 H 9.049233 6.673852 -9.418553 0
M  V30 END ATOM
M  V30 BEGIN BOND
M  V30 1 1 2 1
M  V30 2 1 3 2
M  V30 3 2 4 3
M  V30 4 1 5 4
M  V30 5 2 6 5
M  V30 6 1 7 6
M  V30 7 1 8 3
M  V30 8 2 8 7
M  V30 9 1 9 1
M  V30 10 1 9 4
M  V30 11 1 10 1
M  V30 12 1 11 1
M  V30 13 1 12 5
M  V30 14 1 13 7
M  V30 15 1 14 8
M  V30 16 1 15 6
M  V30 END BOND
M  V30 END CTAB
M  END
>  <i_epik_Tot_Q>  (1) 
1

>  <i_epik_Tot_abs_Q>  (1) 
1

>  <i_i_glide_confnum>  (1) 
1

>  <i_i_glide_lignum>  (1) 
51

>  <i_i_glide_posenum>  (1) 
270

>  <i_i_glide_rotatable_bonds>  (1) 
0

>  <i_lp_mmshare_version>  (1) 
72125

>  <i_m_source_file_index>  (1) 
46

>  <i_f3d_flags>  (1) 
0

>  <num_sample>  (1) 
100

>  <b_lp_Chiralities_Consistent>  (1) 
1

>  <r_epik_Charging_Adjusted_Penalty>  (1) 
2.6035637255513002

>  <r_epik_Ionization_Penalty>  (1) 
1.3017818627756499

>  <r_epik_Ionization_Penalty_Charging>  (1) 
1.3017818627756499

>  <r_epik_Ionization_Penalty_Neutral>  (1) 
0

>  <r_epik_State_Penalty>  (1) 
1.3017818627756503

>  <r_glide_ring_energy>  (1) 
0

>  <r_i_docking_score>  (1) 
-3.754952592270751

>  <r_i_glide_ecoul>  (1) 
-2.0506664462991995

>  <r_i_glide_eff_state_penalty>  (1) 
1.3017818627756503

>  <r_i_glide_einternal>  (1) 
0

>  <r_i_glide_emodel>  (1) 
-27.974924521921938

>  <r_i_glide_emodel_strain>  (1) 
0

>  <r_i_glide_energy>  (1) 
-18.510332983748423

>  <r_i_glide_erotb>  (1) 
0

>  <r_i_glide_esite>  (1) 
-0.10000000000000001

>  <r_i_glide_evdw>  (1) 
-16.459666537449223

>  <r_i_glide_gscore>  (1) 
-5.0567344550464011

>  <r_i_glide_gscore_strain>  (1) 
0

>  <r_i_glide_hbond>  (1) 
-0.0016810986371213841

>  <r_i_glide_ligand_efficiency>  (1) 
-0.41721695469675013

>  <r_i_glide_ligand_efficiency_ln>  (1) 
-1.1744413010234034

>  <r_i_glide_ligand_efficiency_sa>  (1) 
-0.86784623816768913

>  <r_i_glide_lipo>  (1) 
-0.78932395012481249

>  <r_i_glide_metal>  (1) 
-0

>  <r_i_glide_rewards>  (1) 
-3.0351461124671264

>  <r_lp_Energy>  (1) 
25.893000999999998

>  <s_epik_Chemistry_Notes>  (1) 
This compound contains an acetal/aminal-like group ( X-CH(R)-Y where X, Y are N, S, or O) that may be acid/base labile, releasing an aldehyde.

>  <s_epik_cmdline>  (1) 
J2VwaWtfcHl0aG9uJywgJy1waHQnLCAnMS4wJywgJy1waCcsICc3LjQnLCAnLXRuJywgJzgnLCAnLW1hJywgJzUwMCcsICctaW1hZScsICc8aW5maWxlLm1hZT4nLCAnLW9tYWUnLCAnPG91dGZpbGUubWFlPic=

>  <s_epik_input>  (1) 
TzFbQ0gyXU9jKGMxMilbY0hdbltjSF1bY0hdMg==

>  <s_glide_docking_method>  (1) 
confgen

>  <s_i_glide_gridfile>  (1) 
gpcr_drd2_6luq_protein_autoprepared_prepared

>  <s_lp_Force_Field>  (1) 
S-OPLS

>  <s_lp_Variant>  (1) 
Pocket2Mol_45-2

>  <s_m_source_file>  (1) 
generated_generic_title2_ligand_Pocket2Mol_2026-06-23_prepared.sdf

>  <GenAI_Model>  (1) 
Pocket2Mol

>  <Protein>  (1) 
generic_title2

$$$$
Pocket2Mol_11
     RDKit          3D

  0  0  0  0  0  0  0  0  0  0999 V3000
M  V30 BEGIN CTAB
M  V30 COUNTS 14 13 0 0 1
M  V30 BEGIN ATOM
M  V30 1 N 8.175410 5.788209 -10.385025 0 CHG=1
M  V30 2 C 8.977476 5.236304 -9.272778 0
M  V30 3 C 9.010228 6.338303 -11.473754 0
M  V30 4 C 7.149245 4.844280 -10.872864 0
M  V30 5 H 9.579870 4.390227 -9.603963 0
M  V30 6 H 8.331117 4.904507 -8.458752 0
M  V30 7 H 9.647889 5.996559 -8.870475 0
M  V30 8 H 9.600003 5.555113 -11.952708 0
M  V30 9 H 8.387251 6.812922 -12.232873 0
M  V30 10 H 9.693566 7.095384 -11.087339 0
M  V30 11 H 7.611177 3.990228 -11.367507 0
M  V30 12 H 6.537048 4.477414 -10.048156 0
M  V30 13 H 6.486101 5.335444 -11.585899 0
M  V30 14 H 7.661137 6.586403 -9.985400 0
M  V30 END ATOM
M  V30 BEGIN BOND
M  V30 1 1 2 1
M  V30 2 1 3 1
M  V30 3 1 4 1
M  V30 4 1 5 2
M  V30 5 1 6 2
M  V30 6 1 7 2
M  V30 7 1 8 3
M  V30 8 1 9 3
M  V30 9 1 10 3
M  V30 10 1 11 4
M  V30 11 1 12 4
M  V30 12 1 13 4
M  V30 13 1 14 1
M  V30 END BOND
M  V30 END CTAB
M  END
>  <i_epik_Tot_Q>  (1) 
1

>  <i_epik_Tot_abs_Q>  (1) 
1

>  <i_i_glide_confnum>  (1) 
1

>  <i_i_glide_lignum>  (1) 
14

>  <i_i_glide_posenum>  (1) 
72

>  <i_i_glide_rotatable_bonds>  (1) 
0

>  <i_lp_mmshare_version>  (1) 
72125

>  <i_m_source_file_index>  (1) 
12

>  <i_f3d_flags>  (1) 
0

>  <num_sample>  (1) 
100

>  <b_lp_Chiralities_Consistent>  (1) 
1

>  <r_epik_Charging_Adjusted_Penalty>  (1) 
0.0093753769364623638

>  <r_epik_Ionization_Penalty>  (1) 
0.0046876884682311671

>  <r_epik_Ionization_Penalty_Charging>  (1) 
0.0046876884682311671

>  <r_epik_Ionization_Penalty_Neutral>  (1) 
0

>  <r_epik_State_Penalty>  (1) 
0.0046876884682311958

>  <r_glide_ring_energy>  (1) 
0

>  <r_i_docking_score>  (1) 
-3.7413818564521129

>  <r_i_glide_ecoul>  (1) 
-6.2435438827505312

>  <r_i_glide_eff_state_penalty>  (1) 
0.0046876884682311958

>  <r_i_glide_einternal>  (1) 
0

>  <r_i_glide_emodel>  (1) 
-17.530443751506226

>  <r_i_glide_emodel_strain>  (1) 
0

>  <r_i_glide_energy>  (1) 
-11.434303132905811

>  <r_i_glide_erotb>  (1) 
0

>  <r_i_glide_esite>  (1) 
-0.10000000000000001

>  <r_i_glide_evdw>  (1) 
-5.1907592501552804

>  <r_i_glide_gscore>  (1) 
-3.7460695449203438

>  <r_i_glide_gscore_strain>  (1) 
0

>  <r_i_glide_hbond>  (1) 
-0.20000000000000001

>  <r_i_glide_ligand_efficiency>  (1) 
-0.93534546411302821

>  <r_i_glide_ligand_efficiency_ln>  (1) 
-1.5678626733611682

>  <r_i_glide_ligand_efficiency_sa>  (1) 
-1.4847683736867048

>  <r_i_glide_lipo>  (1) 
0

>  <r_i_glide_metal>  (1) 
-0

>  <r_i_glide_rewards>  (1) 
-2.25

>  <r_lp_Energy>  (1) 
13.212527

>  <s_epik_cmdline>  (1) 
J2VwaWtfcHl0aG9uJywgJy1waHQnLCAnMS4wJywgJy1waCcsICc3LjQnLCAnLXRuJywgJzgnLCAnLW1hJywgJzUwMCcsICctaW1hZScsICc8aW5maWxlLm1hZT4nLCAnLW9tYWUnLCAnPG91dGZpbGUubWFlPic=

>  <s_epik_input>  (1) 
W0NIM11OKFtDSDNdKVtDSDNd

>  <s_glide_docking_method>  (1) 
confgen

>  <s_i_glide_gridfile>  (1) 
gpcr_drd2_6luq_protein_autoprepared_prepared

>  <s_lp_Force_Field>  (1) 
S-OPLS

>  <s_lp_Variant>  (1) 
Pocket2Mol_11-1

>  <s_m_source_file>  (1) 
generated_generic_title2_ligand_Pocket2Mol_2026-06-23_prepared.sdf

>  <GenAI_Model>  (1) 
Pocket2Mol

>  <Protein>  (1) 
generic_title2

$$$$
Pocket2Mol_9
     RDKit          3D

  0  0  0  0  0  0  0  0  0  0999 V3000
M  V30 BEGIN CTAB
M  V30 COUNTS 12 12 0 0 1
M  V30 BEGIN ATOM
M  V30 1 N 12.470209 7.965386 -2.051561 0
M  V30 2 C 12.169888 6.816267 -2.727383 0
M  V30 3 C 11.776561 7.245862 -3.989694 0
M  V30 4 C 12.266467 8.972538 -2.866780 0
M  V30 5 C 11.333755 6.417004 -5.151405 0
M  V30 6 N 11.844033 8.665915 -4.085663 0
M  V30 7 H 12.249032 5.832484 -2.287333 0
M  V30 8 H 12.434918 9.990528 -2.561830 0
M  V30 9 H 12.023637 5.590245 -5.327674 0
M  V30 10 H 10.344000 5.990228 -4.977597 0
M  V30 11 H 11.290758 7.012211 -6.066329 0
M  V30 12 H 12.790726 8.030685 -1.096758 0
M  V30 END ATOM
M  V30 BEGIN BOND
M  V30 1 1 2 1
M  V30 2 2 3 2
M  V30 3 1 4 1
M  V30 4 1 5 3
M  V30 5 1 6 3
M  V30 6 2 6 4
M  V30 7 1 7 2
M  V30 8 1 8 4
M  V30 9 1 9 5
M  V30 10 1 10 5
M  V30 11 1 11 5
M  V30 12 1 12 1
M  V30 END BOND
M  V30 END CTAB
M  END
>  <i_epik_Tot_Q>  (1) 
0

>  <i_epik_Tot_abs_Q>  (1) 
0

>  <i_i_glide_confnum>  (1) 
1

>  <i_i_glide_lignum>  (1) 
12

>  <i_i_glide_posenum>  (1) 
388

>  <i_i_glide_rotatable_bonds>  (1) 
0

>  <i_lp_mmshare_version>  (1) 
72125

>  <i_m_source_file_index>  (1) 
10

>  <i_f3d_flags>  (1) 
0

>  <num_sample>  (1) 
100

>  <b_lp_Chiralities_Consistent>  (1) 
1

>  <r_epik_Charging_Adjusted_Penalty>  (1) 
1.2833377634270211

>  <r_epik_Ionization_Penalty>  (1) 
0.5469164599317381

>  <r_epik_Ionization_Penalty_Charging>  (1) 
0.546916339904576

>  <r_epik_Ionization_Penalty_Neutral>  (1) 
1.2002716213740492e-07

>  <r_epik_State_Penalty>  (1) 
0.73642142352244522

>  <r_glide_ring_energy>  (1) 
0

>  <r_i_docking_score>  (1) 
-3.7311677823986256

>  <r_i_glide_ecoul>  (1) 
-1.7460719161840108

>  <r_i_glide_eff_state_penalty>  (1) 
0.73642142352244522

>  <r_i_glide_einternal>  (1) 
0

>  <r_i_glide_emodel>  (1) 
-22.186327606612455

>  <r_i_glide_emodel_strain>  (1) 
0.027109402305129038

>  <r_i_glide_energy>  (1) 
-16.742112048988872

>  <r_i_glide_erotb>  (1) 
0

>  <r_i_glide_esite>  (1) 
0

>  <r_i_glide_evdw>  (1) 
-14.996040132804863

>  <r_i_glide_gscore>  (1) 
-4.4675892059210707

>  <r_i_glide_gscore_strain>  (1) 
0

>  <r_i_glide_hbond>  (1) 
0

>  <r_i_glide_ligand_efficiency>  (1) 
-0.62186129706643756

>  <r_i_glide_ligand_efficiency_ln>  (1) 
-1.336493284441272

>  <r_i_glide_ligand_efficiency_sa>  (1) 
-1.1299969687847284

>  <r_i_glide_lipo>  (1) 
-0.75587641185322585

>  <r_i_glide_metal>  (1) 
-0

>  <r_i_glide_rewards>  (1) 
-2.7000000000000002

>  <r_lp_Energy>  (1) 
3.7227389999999998

>  <r_lp_tautomer_probability>  (1) 
0.49999999999999867

>  <s_epik_cmdline>  (1) 
J2VwaWtfcHl0aG9uJywgJy1waHQnLCAnMS4wJywgJy1waCcsICc3LjQnLCAnLXRuJywgJzgnLCAnLW1hJywgJzUwMCcsICctaW1hZScsICc8aW5maWxlLm1hZT4nLCAnLW9tYWUnLCAnPG91dGZpbGUubWFlPic=

>  <s_epik_input>  (1) 
W25IXTFbY0hdbltjSF1jMVtDSDNd

>  <s_glide_docking_method>  (1) 
confgen

>  <s_i_glide_gridfile>  (1) 
gpcr_drd2_6luq_protein_autoprepared_prepared

>  <s_lp_Force_Field>  (1) 
S-OPLS

>  <s_lp_Variant>  (1) 
Pocket2Mol_9-3

>  <s_m_source_file>  (1) 
generated_generic_title2_ligand_Pocket2Mol_2026-06-23_prepared.sdf

>  <GenAI_Model>  (1) 
Pocket2Mol

>  <Protein>  (1) 
generic_title2

$$$$
Pocket2Mol_11
     RDKit          3D

  0  0  0  0  0  0  0  0  0  0999 V3000
M  V30 BEGIN CTAB
M  V30 COUNTS 14 13 0 0 1
M  V30 BEGIN ATOM
M  V30 1 N 8.975410 6.387736 -9.715489 0 CHG=1
M  V30 2 C 9.160819 6.240918 -11.175323 0
M  V30 3 C 8.767687 5.087165 -9.038202 0
M  V30 4 C 10.056422 7.179433 -9.088183 0
M  V30 5 H 10.066308 5.678160 -11.401401 0
M  V30 6 H 9.237189 7.218418 -11.653899 0
M  V30 7 H 8.313030 5.719844 -11.619891 0
M  V30 8 H 9.649830 4.453242 -9.131828 0
M  V30 9 H 8.560559 5.234241 -7.977750 0
M  V30 10 H 7.917565 4.561299 -9.472865 0
M  V30 11 H 11.019167 6.676623 -9.182922 0
M  V30 12 H 10.138654 8.162017 -9.556260 0
M  V30 13 H 9.857615 7.336528 -8.026854 0
M  V30 14 H 8.108962 6.927314 -9.585164 0
M  V30 END ATOM
M  V30 BEGIN BOND
M  V30 1 1 2 1
M  V30 2 1 3 1
M  V30 3 1 4 1
M  V30 4 1 5 2
M  V30 5 1 6 2
M  V30 6 1 7 2
M  V30 7 1 8 3
M  V30 8 1 9 3
M  V30 9 1 10 3
M  V30 10 1 11 4
M  V30 11 1 12 4
M  V30 12 1 13 4
M  V30 13 1 14 1
M  V30 END BOND
M  V30 END CTAB
M  END
>  <i_epik_Tot_Q>  (1) 
1

>  <i_epik_Tot_abs_Q>  (1) 
1

>  <i_i_glide_confnum>  (1) 
1

>  <i_i_glide_lignum>  (1) 
14

>  <i_i_glide_posenum>  (1) 
336

>  <i_i_glide_rotatable_bonds>  (1) 
0

>  <i_lp_mmshare_version>  (1) 
72125

>  <i_m_source_file_index>  (1) 
12

>  <i_f3d_flags>  (1) 
0

>  <num_sample>  (1) 
100

>  <b_lp_Chiralities_Consistent>  (1) 
1

>  <r_epik_Charging_Adjusted_Penalty>  (1) 
0.0093753769364623638

>  <r_epik_Ionization_Penalty>  (1) 
0.0046876884682311671

>  <r_epik_Ionization_Penalty_Charging>  (1) 
0.0046876884682311671

>  <r_epik_Ionization_Penalty_Neutral>  (1) 
0

>  <r_epik_State_Penalty>  (1) 
0.0046876884682311958

>  <r_glide_ring_energy>  (1) 
0

>  <r_i_docking_score>  (1) 
-3.726359014446134

>  <r_i_glide_ecoul>  (1) 
-6.244360567675276

>  <r_i_glide_eff_state_penalty>  (1) 
0.0046876884682311958

>  <r_i_glide_einternal>  (1) 
0

>  <r_i_glide_emodel>  (1) 
-17.481719842661121

>  <r_i_glide_emodel_strain>  (1) 
0

>  <r_i_glide_energy>  (1) 
-11.410026543113723

>  <r_i_glide_erotb>  (1) 
0

>  <r_i_glide_esite>  (1) 
-0.10000000000000001

>  <r_i_glide_evdw>  (1) 
-5.1656659754384471

>  <r_i_glide_gscore>  (1) 
-3.731046702914365

>  <r_i_glide_gscore_strain>  (1) 
0

>  <r_i_glide_hbond>  (1) 
-0.18610931899115152

>  <r_i_glide_ligand_efficiency>  (1) 
-0.93158975361153351

>  <r_i_glide_ligand_efficiency_ln>  (1) 
-1.561567204432126

>  <r_i_glide_ligand_efficiency_sa>  (1) 
-1.4788065548857441

>  <r_i_glide_lipo>  (1) 
0

>  <r_i_glide_metal>  (1) 
-0

>  <r_i_glide_rewards>  (1) 
-2.25

>  <r_lp_Energy>  (1) 
13.212527

>  <s_epik_cmdline>  (1) 
J2VwaWtfcHl0aG9uJywgJy1waHQnLCAnMS4wJywgJy1waCcsICc3LjQnLCAnLXRuJywgJzgnLCAnLW1hJywgJzUwMCcsICctaW1hZScsICc8aW5maWxlLm1hZT4nLCAnLW9tYWUnLCAnPG91dGZpbGUubWFlPic=

>  <s_epik_input>  (1) 
W0NIM11OKFtDSDNdKVtDSDNd

>  <s_glide_docking_method>  (1) 
confgen

>  <s_i_glide_gridfile>  (1) 
gpcr_drd2_6luq_protein_autoprepared_prepared

>  <s_lp_Force_Field>  (1) 
S-OPLS

>  <s_lp_Variant>  (1) 
Pocket2Mol_11-1

>  <s_m_source_file>  (1) 
generated_generic_title2_ligand_Pocket2Mol_2026-06-23_prepared.sdf

>  <GenAI_Model>  (1) 
Pocket2Mol

>  <Protein>  (1) 
generic_title2

$$$$
Pocket2Mol_9
     RDKit          3D

  0  0  0  0  0  0  0  0  0  0999 V3000
M  V30 BEGIN CTAB
M  V30 COUNTS 12 12 0 0 1
M  V30 BEGIN ATOM
M  V30 1 N 9.229802 7.352807 -7.279686 0
M  V30 2 C 9.894995 7.989249 -8.289451 0
M  V30 3 C 11.227706 7.961465 -7.902563 0
M  V30 4 C 10.116210 6.987659 -6.385042 0
M  V30 5 C 12.413881 8.510973 -8.630083 0
M  V30 6 N 11.375408 7.305514 -6.648017 0
M  V30 7 H 9.396988 8.390372 -9.161971 0
M  V30 8 H 9.835709 6.459133 -5.485326 0
M  V30 9 H 12.148315 9.398604 -9.204710 0
M  V30 10 H 13.211185 8.789926 -7.940892 0
M  V30 11 H 12.819289 7.777904 -9.326847 0
M  V30 12 H 8.227339 7.190227 -7.234877 0
M  V30 END ATOM
M  V30 BEGIN BOND
M  V30 1 1 2 1
M  V30 2 2 3 2
M  V30 3 1 4 1
M  V30 4 1 5 3
M  V30 5 1 6 3
M  V30 6 2 6 4
M  V30 7 1 7 2
M  V30 8 1 8 4
M  V30 9 1 9 5
M  V30 10 1 10 5
M  V30 11 1 11 5
M  V30 12 1 12 1
M  V30 END BOND
M  V30 END CTAB
M  END
>  <i_epik_Tot_Q>  (1) 
0

>  <i_epik_Tot_abs_Q>  (1) 
0

>  <i_i_glide_confnum>  (1) 
1

>  <i_i_glide_lignum>  (1) 
12

>  <i_i_glide_posenum>  (1) 
190

>  <i_i_glide_rotatable_bonds>  (1) 
0

>  <i_lp_mmshare_version>  (1) 
72125

>  <i_m_source_file_index>  (1) 
10

>  <i_f3d_flags>  (1) 
0

>  <num_sample>  (1) 
100

>  <b_lp_Chiralities_Consistent>  (1) 
1

>  <r_epik_Charging_Adjusted_Penalty>  (1) 
1.2833377634270211

>  <r_epik_Ionization_Penalty>  (1) 
0.5469164599317381

>  <r_epik_Ionization_Penalty_Charging>  (1) 
0.546916339904576

>  <r_epik_Ionization_Penalty_Neutral>  (1) 
1.2002716213740492e-07

>  <r_epik_State_Penalty>  (1) 
0.73642142352244522

>  <r_glide_ring_energy>  (1) 
0

>  <r_i_docking_score>  (1) 
-3.6656955779600104

>  <r_i_glide_ecoul>  (1) 
-2.9725206730027649

>  <r_i_glide_eff_state_penalty>  (1) 
0.73642142352244522

>  <r_i_glide_einternal>  (1) 
0

>  <r_i_glide_emodel>  (1) 
-20.668299761387793

>  <r_i_glide_emodel_strain>  (1) 
0.0078546441825384505

>  <r_i_glide_energy>  (1) 
-15.28501132669993

>  <r_i_glide_erotb>  (1) 
0

>  <r_i_glide_esite>  (1) 
-0.095568533580781267

>  <r_i_glide_evdw>  (1) 
-12.312490653697164

>  <r_i_glide_gscore>  (1) 
-4.4021170014824555

>  <r_i_glide_gscore_strain>  (1) 
0

>  <r_i_glide_hbond>  (1) 
-0.16

>  <r_i_glide_ligand_efficiency>  (1) 
-0.61094926299333507

>  <r_i_glide_ligand_efficiency_ln>  (1) 
-1.3130413340994618

>  <r_i_glide_ligand_efficiency_sa>  (1) 
-1.1101684869608079

>  <r_i_glide_lipo>  (1) 
-0.50549874857666111

>  <r_i_glide_metal>  (1) 
-0

>  <r_i_glide_rewards>  (1) 
-2.57954708568974

>  <r_lp_Energy>  (1) 
3.7227389999999998

>  <r_lp_tautomer_probability>  (1) 
0.49999999999999867

>  <s_epik_cmdline>  (1) 
J2VwaWtfcHl0aG9uJywgJy1waHQnLCAnMS4wJywgJy1waCcsICc3LjQnLCAnLXRuJywgJzgnLCAnLW1hJywgJzUwMCcsICctaW1hZScsICc8aW5maWxlLm1hZT4nLCAnLW9tYWUnLCAnPG91dGZpbGUubWFlPic=

>  <s_epik_input>  (1) 
W25IXTFbY0hdbltjSF1jMVtDSDNd

>  <s_glide_docking_method>  (1) 
confgen

>  <s_i_glide_gridfile>  (1) 
gpcr_drd2_6luq_protein_autoprepared_prepared

>  <s_lp_Force_Field>  (1) 
S-OPLS

>  <s_lp_Variant>  (1) 
Pocket2Mol_9-3

>  <s_m_source_file>  (1) 
generated_generic_title2_ligand_Pocket2Mol_2026-06-23_prepared.sdf

>  <GenAI_Model>  (1) 
Pocket2Mol

>  <Protein>  (1) 
generic_title2

$$$$
Pocket2Mol_91
     RDKit          3D

  0  0  0  0  0  0  0  0  0  0999 V3000
M  V30 BEGIN CTAB
M  V30 COUNTS 21 22 0 0 1
M  V30 BEGIN ATOM
M  V30 1 C 9.775345 8.088382 -7.015223 0
M  V30 2 O 11.038433 8.145521 -7.663135 0
M  V30 3 C 9.402747 6.632154 -6.785026 0
M  V30 4 O 9.970006 5.812365 -7.785696 0
M  V30 5 C 11.078972 8.262531 -9.006379 0
M  V30 6 C 9.653650 6.128137 -9.081934 0
M  V30 7 C 8.822830 5.276134 -9.824633 0
M  V30 8 O 11.774864 9.094277 -9.585004 0
M  V30 9 C 10.175410 7.286909 -9.718018 0
M  V30 10 C 8.539585 5.597669 -11.165000 0
M  V30 11 C 9.834247 7.512620 -11.068153 0
M  V30 12 N 7.715988 4.767933 -11.916458 0
M  V30 13 N 9.037277 6.688591 -11.787766 0
M  V30 14 H 9.818590 8.624190 -6.067259 0
M  V30 15 H 9.012664 8.584917 -7.619028 0
M  V30 16 H 9.809490 6.303560 -5.828687 0
M  V30 17 H 8.322587 6.495203 -6.733177 0
M  V30 18 H 8.408315 4.390238 -9.373935 0
M  V30 19 H 10.201515 8.384514 -11.585021 0
M  V30 20 H 7.289586 3.946376 -11.516652 0
M  V30 21 H 7.485135 4.986264 -12.873608 0
M  V30 END ATOM
M  V30 BEGIN BOND
M  V30 1 1 2 1
M  V30 2 1 3 1
M  V30 3 1 4 3
M  V30 4 1 5 2
M  V30 5 1 6 4
M  V30 6 1 7 6
M  V30 7 2 8 5
M  V30 8 1 9 5
M  V30 9 2 9 6
M  V30 10 2 10 7
M  V30 11 1 11 9
M  V30 12 1 12 10
M  V30 13 1 13 10
M  V30 14 2 13 11
M  V30 15 1 14 1
M  V30 16 1 15 1
M  V30 17 1 16 3
M  V30 18 1 17 3
M  V30 19 1 18 7
M  V30 20 1 19 11
M  V30 21 1 20 12
M  V30 22 1 21 12
M  V30 END BOND
M  V30 END CTAB
M  END
>  <i_epik_Tot_Q>  (1) 
0

>  <i_epik_Tot_abs_Q>  (1) 
0

>  <i_i_glide_confnum>  (1) 
1

>  <i_i_glide_lignum>  (1) 
99

>  <i_i_glide_posenum>  (1) 
291

>  <i_i_glide_rotatable_bonds>  (1) 
0

>  <i_lp_mmshare_version>  (1) 
72125

>  <i_m_source_file_index>  (1) 
92

>  <i_f3d_flags>  (1) 
0

>  <num_sample>  (1) 
100

>  <b_lp_Chiralities_Consistent>  (1) 
1

>  <r_epik_Charging_Adjusted_Penalty>  (1) 
0.47186222519243537

>  <r_epik_Ionization_Penalty>  (1) 
0.4718627144316776

>  <r_epik_Ionization_Penalty_Charging>  (1) 
0

>  <r_epik_Ionization_Penalty_Neutral>  (1) 
0.4718627144316776

>  <r_epik_State_Penalty>  (1) 
0.47186222519243537

>  <r_glide_ring_energy>  (1) 
0

>  <r_i_docking_score>  (1) 
-3.601613271935169

>  <r_i_glide_ecoul>  (1) 
0.19252078197410927

>  <r_i_glide_eff_state_penalty>  (1) 
0.47186222519243537

>  <r_i_glide_einternal>  (1) 
0

>  <r_i_glide_emodel>  (1) 
-30.587026223901205

>  <r_i_glide_emodel_strain>  (1) 
0

>  <r_i_glide_energy>  (1) 
-24.261999786876135

>  <r_i_glide_erotb>  (1) 
0

>  <r_i_glide_esite>  (1) 
0

>  <r_i_glide_evdw>  (1) 
-24.454520568850246

>  <r_i_glide_gscore>  (1) 
-4.0734754971276042

>  <r_i_glide_gscore_strain>  (1) 
0

>  <r_i_glide_hbond>  (1) 
0

>  <r_i_glide_ligand_efficiency>  (1) 
-0.27704717476424379

>  <r_i_glide_ligand_efficiency_ln>  (1) 
-1.0102845540840275

>  <r_i_glide_ligand_efficiency_sa>  (1) 
-0.65143063215820141

>  <r_i_glide_lipo>  (1) 
0

>  <r_i_glide_metal>  (1) 
-0

>  <r_i_glide_rewards>  (1) 
-2.8796275859812077

>  <r_lp_Energy>  (1) 
11.927572999999999

>  <s_epik_Chemistry_Notes>  (1) 
This compound has an ester and may undergo hydrolysis at high or low pH.

>  <s_epik_cmdline>  (1) 
J2VwaWtfcHl0aG9uJywgJy1waHQnLCAnMS4wJywgJy1waCcsICc3LjQnLCAnLXRuJywgJzgnLCAnLW1hJywgJzUwMCcsICctaW1hZScsICc8aW5maWxlLm1hZT4nLCAnLW9tYWUnLCAnPG91dGZpbGUubWFlPic=

>  <s_epik_input>  (1) 
TzFbQ0gyXVtDSDJdT0MoPU8pYyhjMTIpW2NIXW5jKFtjSF0yKVtOSDJd

>  <s_glide_docking_method>  (1) 
confgen

>  <s_i_glide_gridfile>  (1) 
gpcr_drd2_6luq_protein_autoprepared_prepared

>  <s_lp_Force_Field>  (1) 
S-OPLS

>  <s_lp_Variant>  (1) 
Pocket2Mol_91-2

>  <s_m_source_file>  (1) 
generated_generic_title2_ligand_Pocket2Mol_2026-06-23_prepared.sdf

>  <GenAI_Model>  (1) 
Pocket2Mol

>  <Protein>  (1) 
generic_title2

$$$$
Pocket2Mol_9
     RDKit          3D

  0  0  0  0  0  0  0  0  0  0999 V3000
M  V30 BEGIN CTAB
M  V30 COUNTS 12 12 0 0 1
M  V30 BEGIN ATOM
M  V30 1 N 9.375411 7.506407 -7.992272 0
M  V30 2 C 9.374736 6.871477 -6.785124 0
M  V30 3 C 10.665377 7.029998 -6.301163 0
M  V30 4 C 10.581962 7.989429 -8.186470 0
M  V30 5 C 11.232852 6.535463 -5.009623 0
M  V30 6 N 11.464525 7.766297 -7.220368 0
M  V30 7 H 8.499795 6.382800 -6.378100 0
M  V30 8 H 10.840703 8.537937 -9.080428 0
M  V30 9 H 10.479684 5.996591 -4.435145 0
M  V30 10 H 12.063674 5.851858 -5.183186 0
M  V30 11 H 11.592628 7.358829 -4.391695 0
M  V30 12 H 8.582388 7.590301 -8.626923 0
M  V30 END ATOM
M  V30 BEGIN BOND
M  V30 1 1 2 1
M  V30 2 2 3 2
M  V30 3 1 4 1
M  V30 4 1 5 3
M  V30 5 1 6 3
M  V30 6 2 6 4
M  V30 7 1 7 2
M  V30 8 1 8 4
M  V30 9 1 9 5
M  V30 10 1 10 5
M  V30 11 1 11 5
M  V30 12 1 12 1
M  V30 END BOND
M  V30 END CTAB
M  END
>  <i_epik_Tot_Q>  (1) 
0

>  <i_epik_Tot_abs_Q>  (1) 
0

>  <i_i_glide_confnum>  (1) 
1

>  <i_i_glide_lignum>  (1) 
12

>  <i_i_glide_posenum>  (1) 
390

>  <i_i_glide_rotatable_bonds>  (1) 
0

>  <i_lp_mmshare_version>  (1) 
72125

>  <i_m_source_file_index>  (1) 
10

>  <i_f3d_flags>  (1) 
0

>  <num_sample>  (1) 
100

>  <b_lp_Chiralities_Consistent>  (1) 
1

>  <r_epik_Charging_Adjusted_Penalty>  (1) 
1.2833377634270211

>  <r_epik_Ionization_Penalty>  (1) 
0.5469164599317381

>  <r_epik_Ionization_Penalty_Charging>  (1) 
0.546916339904576

>  <r_epik_Ionization_Penalty_Neutral>  (1) 
1.2002716213740492e-07

>  <r_epik_State_Penalty>  (1) 
0.73642142352244522

>  <r_glide_ring_energy>  (1) 
0

>  <r_i_docking_score>  (1) 
-3.5960904376090181

>  <r_i_glide_ecoul>  (1) 
-3.8381964564755924

>  <r_i_glide_eff_state_penalty>  (1) 
0.73642142352244522

>  <r_i_glide_einternal>  (1) 
0

>  <r_i_glide_emodel>  (1) 
-21.848544202164231

>  <r_i_glide_emodel_strain>  (1) 
0

>  <r_i_glide_energy>  (1) 
-16.542644489276761

>  <r_i_glide_erotb>  (1) 
0

>  <r_i_glide_esite>  (1) 
-0.10566335353606691

>  <r_i_glide_evdw>  (1) 
-12.704448032801167

>  <r_i_glide_gscore>  (1) 
-4.3325118611314632

>  <r_i_glide_gscore_strain>  (1) 
0

>  <r_i_glide_hbond>  (1) 
-0.16

>  <r_i_glide_ligand_efficiency>  (1) 
-0.59934840626816965

>  <r_i_glide_ligand_efficiency_ln>  (1) 
-1.2881089783151582

>  <r_i_glide_ligand_efficiency_sa>  (1) 
-1.0890883313110147

>  <r_i_glide_lipo>  (1) 
-0.60589663748399869

>  <r_i_glide_metal>  (1) 
-0

>  <r_i_glide_rewards>  (1) 
-2.25

>  <r_lp_Energy>  (1) 
3.7227389999999998

>  <r_lp_tautomer_probability>  (1) 
0.49999999999999867

>  <s_epik_cmdline>  (1) 
J2VwaWtfcHl0aG9uJywgJy1waHQnLCAnMS4wJywgJy1waCcsICc3LjQnLCAnLXRuJywgJzgnLCAnLW1hJywgJzUwMCcsICctaW1hZScsICc8aW5maWxlLm1hZT4nLCAnLW9tYWUnLCAnPG91dGZpbGUubWFlPic=

>  <s_epik_input>  (1) 
W25IXTFbY0hdbltjSF1jMVtDSDNd

>  <s_glide_docking_method>  (1) 
confgen

>  <s_i_glide_gridfile>  (1) 
gpcr_drd2_6luq_protein_autoprepared_prepared

>  <s_lp_Force_Field>  (1) 
S-OPLS

>  <s_lp_Variant>  (1) 
Pocket2Mol_9-3

>  <s_m_source_file>  (1) 
generated_generic_title2_ligand_Pocket2Mol_2026-06-23_prepared.sdf

>  <GenAI_Model>  (1) 
Pocket2Mol

>  <Protein>  (1) 
generic_title2

$$$$
Pocket2Mol_9
     RDKit          3D

  0  0  0  0  0  0  0  0  0  0999 V3000
M  V30 BEGIN CTAB
M  V30 COUNTS 12 12 0 0 1
M  V30 BEGIN ATOM
M  V30 1 N 10.731505 7.492664 -5.974797 0
M  V30 2 C 11.375532 7.294928 -4.785022 0
M  V30 3 C 11.775436 8.567028 -4.386923 0
M  V30 4 C 10.763541 8.779791 -6.236745 0
M  V30 5 C 12.520758 8.957875 -3.151157 0
M  V30 6 N 11.375410 9.545495 -5.340836 0
M  V30 7 H 11.493255 6.320518 -4.331677 0
M  V30 8 H 10.314833 9.190249 -7.128727 0
M  V30 9 H 12.899395 8.084774 -2.619744 0
M  V30 10 H 13.372647 9.590303 -3.394498 0
M  V30 11 H 11.881625 9.514011 -2.464880 0
M  V30 12 H 10.303235 6.778797 -6.548230 0
M  V30 END ATOM
M  V30 BEGIN BOND
M  V30 1 1 2 1
M  V30 2 2 3 2
M  V30 3 1 4 1
M  V30 4 1 5 3
M  V30 5 1 6 3
M  V30 6 2 6 4
M  V30 7 1 7 2
M  V30 8 1 8 4
M  V30 9 1 9 5
M  V30 10 1 10 5
M  V30 11 1 11 5
M  V30 12 1 12 1
M  V30 END BOND
M  V30 END CTAB
M  END
>  <i_epik_Tot_Q>  (1) 
0

>  <i_epik_Tot_abs_Q>  (1) 
0

>  <i_i_glide_confnum>  (1) 
1

>  <i_i_glide_lignum>  (1) 
12

>  <i_i_glide_posenum>  (1) 
307

>  <i_i_glide_rotatable_bonds>  (1) 
0

>  <i_lp_mmshare_version>  (1) 
72125

>  <i_m_source_file_index>  (1) 
10

>  <i_f3d_flags>  (1) 
0

>  <num_sample>  (1) 
100

>  <b_lp_Chiralities_Consistent>  (1) 
1

>  <r_epik_Charging_Adjusted_Penalty>  (1) 
1.2833377634270211

>  <r_epik_Ionization_Penalty>  (1) 
0.5469164599317381

>  <r_epik_Ionization_Penalty_Charging>  (1) 
0.546916339904576

>  <r_epik_Ionization_Penalty_Neutral>  (1) 
1.2002716213740492e-07

>  <r_epik_State_Penalty>  (1) 
0.73642142352244522

>  <r_glide_ring_energy>  (1) 
0

>  <r_i_docking_score>  (1) 
-3.5895228398516879

>  <r_i_glide_ecoul>  (1) 
-1.829504042581358

>  <r_i_glide_eff_state_penalty>  (1) 
0.73642142352244522

>  <r_i_glide_einternal>  (1) 
0

>  <r_i_glide_emodel>  (1) 
-21.695777282525771

>  <r_i_glide_emodel_strain>  (1) 
0

>  <r_i_glide_energy>  (1) 
-16.397920713239962

>  <r_i_glide_erotb>  (1) 
0

>  <r_i_glide_esite>  (1) 
0

>  <r_i_glide_evdw>  (1) 
-14.568416670658605

>  <r_i_glide_gscore>  (1) 
-4.325944263374133

>  <r_i_glide_gscore_strain>  (1) 
0

>  <r_i_glide_hbond>  (1) 
0

>  <r_i_glide_ligand_efficiency>  (1) 
-0.59825380664194794

>  <r_i_glide_ligand_efficiency_ln>  (1) 
-1.2857564841874509

>  <r_i_glide_ligand_efficiency_sa>  (1) 
-1.0870993117893009

>  <r_i_glide_lipo>  (1) 
-0.71749155467235948

>  <r_i_glide_metal>  (1) 
-0

>  <r_i_glide_rewards>  (1) 
-2.6056062687816395

>  <r_lp_Energy>  (1) 
3.7227389999999998

>  <r_lp_tautomer_probability>  (1) 
0.49999999999999867

>  <s_epik_cmdline>  (1) 
J2VwaWtfcHl0aG9uJywgJy1waHQnLCAnMS4wJywgJy1waCcsICc3LjQnLCAnLXRuJywgJzgnLCAnLW1hJywgJzUwMCcsICctaW1hZScsICc8aW5maWxlLm1hZT4nLCAnLW9tYWUnLCAnPG91dGZpbGUubWFlPic=

>  <s_epik_input>  (1) 
W25IXTFbY0hdbltjSF1jMVtDSDNd

>  <s_glide_docking_method>  (1) 
confgen

>  <s_i_glide_gridfile>  (1) 
gpcr_drd2_6luq_protein_autoprepared_prepared

>  <s_lp_Force_Field>  (1) 
S-OPLS

>  <s_lp_Variant>  (1) 
Pocket2Mol_9-3

>  <s_m_source_file>  (1) 
generated_generic_title2_ligand_Pocket2Mol_2026-06-23_prepared.sdf

>  <GenAI_Model>  (1) 
Pocket2Mol

>  <Protein>  (1) 
generic_title2

$$$$
Pocket2Mol_36
     RDKit          3D

  0  0  0  0  0  0  0  0  0  0999 V3000
M  V30 BEGIN CTAB
M  V30 COUNTS 15 16 0 0 1
M  V30 BEGIN ATOM
M  V30 1 C 8.975409 5.493981 -9.439359 0
M  V30 2 O 9.008444 5.370125 -7.985026 0
M  V30 3 C 9.784998 6.418222 -7.691594 0
M  V30 4 C 10.205973 7.102298 -8.756664 0
M  V30 5 C 11.031779 8.231878 -8.630837 0
M  V30 6 C 11.422270 8.647944 -7.335804 0
M  V30 7 C 10.973514 7.920731 -6.202994 0
M  V30 8 C 10.143559 6.790252 -6.385278 0
M  V30 9 O 9.775410 6.616582 -9.925122 0
M  V30 10 H 7.939144 5.631444 -9.752938 0
M  V30 11 H 9.353039 4.571670 -9.882776 0
M  V30 12 H 11.361476 8.772279 -9.505936 0
M  V30 13 H 12.056348 9.512648 -7.210334 0
M  V30 14 H 11.263241 8.227910 -5.209133 0
M  V30 15 H 9.790976 6.223635 -5.536322 0
M  V30 END ATOM
M  V30 BEGIN BOND
M  V30 1 1 2 1
M  V30 2 1 3 2
M  V30 3 1 4 3
M  V30 4 2 5 4
M  V30 5 1 6 5
M  V30 6 2 7 6
M  V30 7 2 8 3
M  V30 8 1 8 7
M  V30 9 1 9 1
M  V30 10 1 9 4
M  V30 11 1 10 1
M  V30 12 1 11 1
M  V30 13 1 12 5
M  V30 14 1 13 6
M  V30 15 1 14 7
M  V30 16 1 15 8
M  V30 END BOND
M  V30 END CTAB
M  END
>  <i_epik_Tot_Q>  (1) 
0

>  <i_epik_Tot_abs_Q>  (1) 
0

>  <i_i_glide_confnum>  (1) 
1

>  <i_i_glide_lignum>  (1) 
41

>  <i_i_glide_posenum>  (1) 
276

>  <i_i_glide_rotatable_bonds>  (1) 
0

>  <i_lp_mmshare_version>  (1) 
72125

>  <i_m_source_file_index>  (1) 
37

>  <i_f3d_flags>  (1) 
0

>  <num_sample>  (1) 
100

>  <b_lp_Chiralities_Consistent>  (1) 
1

>  <r_epik_Charging_Adjusted_Penalty>  (1) 
0

>  <r_epik_Ionization_Penalty>  (1) 
0

>  <r_epik_Ionization_Penalty_Charging>  (1) 
0

>  <r_epik_Ionization_Penalty_Neutral>  (1) 
0

>  <r_epik_State_Penalty>  (1) 
-0

>  <r_glide_ring_energy>  (1) 
0

>  <r_i_docking_score>  (1) 
-3.5789532588899919

>  <r_i_glide_ecoul>  (1) 
-0.49021139151384618

>  <r_i_glide_eff_state_penalty>  (1) 
-0

>  <r_i_glide_einternal>  (1) 
0

>  <r_i_glide_emodel>  (1) 
-23.115983918218092

>  <r_i_glide_emodel_strain>  (1) 
0

>  <r_i_glide_energy>  (1) 
-18.500971453558577

>  <r_i_glide_erotb>  (1) 
0

>  <r_i_glide_esite>  (1) 
-0.070844787297103057

>  <r_i_glide_evdw>  (1) 
-18.010760062044731

>  <r_i_glide_gscore>  (1) 
-3.5789532588899919

>  <r_i_glide_gscore_strain>  (1) 
0

>  <r_i_glide_hbond>  (1) 
0

>  <r_i_glide_ligand_efficiency>  (1) 
-0.39766147320999912

>  <r_i_glide_ligand_efficiency_ln>  (1) 
-1.1193937655364239

>  <r_i_glide_ligand_efficiency_sa>  (1) 
-0.82716919747510742

>  <r_i_glide_lipo>  (1) 
-0.88403875976357593

>  <r_i_glide_metal>  (1) 
-0

>  <r_i_glide_rewards>  (1) 
-1.6499999999999999

>  <r_lp_Energy>  (1) 
19.342482

>  <r_lp_tautomer_probability>  (1) 
1

>  <s_epik_Chemistry_Notes>  (1) 
This compound contains an acetal/aminal-like group ( X-CH(R)-Y where X, Y are N, S, or O) that may be acid/base labile, releasing an aldehyde.

>  <s_epik_cmdline>  (1) 
J2VwaWtfcHl0aG9uJywgJy1waHQnLCAnMS4wJywgJy1waCcsICc3LjQnLCAnLXRuJywgJzgnLCAnLW1hJywgJzUwMCcsICctaW1hZScsICc8aW5maWxlLm1hZT4nLCAnLW9tYWUnLCAnPG91dGZpbGUubWFlPic=

>  <s_epik_input>  (1) 
TzFbQ0gyXU9jKGMxMilbY0hdW2NIXVtjSF1bY0hdMg==

>  <s_glide_docking_method>  (1) 
confgen

>  <s_i_glide_gridfile>  (1) 
gpcr_drd2_6luq_protein_autoprepared_prepared

>  <s_lp_Force_Field>  (1) 
S-OPLS

>  <s_lp_Variant>  (1) 
Pocket2Mol_36-1

>  <s_m_source_file>  (1) 
generated_generic_title2_ligand_Pocket2Mol_2026-06-23_prepared.sdf

>  <GenAI_Model>  (1) 
Pocket2Mol

>  <Protein>  (1) 
generic_title2

$$$$
Pocket2Mol_11
     RDKit          3D

  0  0  0  0  0  0  0  0  0  0999 V3000
M  V30 BEGIN CTAB
M  V30 COUNTS 14 13 0 0 1
M  V30 BEGIN ATOM
M  V30 1 N 9.375410 7.372043 -8.385037 0 CHG=1
M  V30 2 C 10.385534 7.911947 -9.319008 0
M  V30 3 C 9.432380 5.899418 -8.265064 0
M  V30 4 C 9.385145 8.046673 -7.069733 0
M  V30 5 H 11.396987 7.726199 -8.954949 0
M  V30 6 H 10.257564 8.987527 -9.444352 0
M  V30 7 H 10.284661 7.450671 -10.302206 0
M  V30 8 H 10.376120 5.576340 -7.823445 0
M  V30 9 H 8.616533 5.535656 -7.638250 0
M  V30 10 H 9.330410 5.428023 -9.243373 0
M  V30 11 H 10.328724 7.882007 -6.548210 0
M  V30 12 H 9.238503 9.120238 -7.188532 0
M  V30 13 H 8.575409 7.673588 -6.441237 0
M  V30 14 H 8.453330 7.582829 -8.788445 0
M  V30 END ATOM
M  V30 BEGIN BOND
M  V30 1 1 2 1
M  V30 2 1 3 1
M  V30 3 1 4 1
M  V30 4 1 5 2
M  V30 5 1 6 2
M  V30 6 1 7 2
M  V30 7 1 8 3
M  V30 8 1 9 3
M  V30 9 1 10 3
M  V30 10 1 11 4
M  V30 11 1 12 4
M  V30 12 1 13 4
M  V30 13 1 14 1
M  V30 END BOND
M  V30 END CTAB
M  END
>  <i_epik_Tot_Q>  (1) 
1

>  <i_epik_Tot_abs_Q>  (1) 
1

>  <i_i_glide_confnum>  (1) 
1

>  <i_i_glide_lignum>  (1) 
14

>  <i_i_glide_posenum>  (1) 
100

>  <i_i_glide_rotatable_bonds>  (1) 
0

>  <i_lp_mmshare_version>  (1) 
72125

>  <i_m_source_file_index>  (1) 
12

>  <i_f3d_flags>  (1) 
0

>  <num_sample>  (1) 
100

>  <b_lp_Chiralities_Consistent>  (1) 
1

>  <r_epik_Charging_Adjusted_Penalty>  (1) 
0.0093753769364623638

>  <r_epik_Ionization_Penalty>  (1) 
0.0046876884682311671

>  <r_epik_Ionization_Penalty_Charging>  (1) 
0.0046876884682311671

>  <r_epik_Ionization_Penalty_Neutral>  (1) 
0

>  <r_epik_State_Penalty>  (1) 
0.0046876884682311958

>  <r_glide_ring_energy>  (1) 
0

>  <r_i_docking_score>  (1) 
-3.5742359859975994

>  <r_i_glide_ecoul>  (1) 
-4.4411077639664951

>  <r_i_glide_eff_state_penalty>  (1) 
0.0046876884682311958

>  <r_i_glide_einternal>  (1) 
0

>  <r_i_glide_emodel>  (1) 
-17.520394892414814

>  <r_i_glide_emodel_strain>  (1) 
0

>  <r_i_glide_energy>  (1) 
-11.696257961383619

>  <r_i_glide_erotb>  (1) 
0

>  <r_i_glide_esite>  (1) 
-0.10000000000000001

>  <r_i_glide_evdw>  (1) 
-7.255150197417124

>  <r_i_glide_gscore>  (1) 
-3.5789236744658304

>  <r_i_glide_gscore_strain>  (1) 
0

>  <r_i_glide_hbond>  (1) 
-0.20000000000000001

>  <r_i_glide_ligand_efficiency>  (1) 
-0.89355899649939985

>  <r_i_glide_ligand_efficiency_ln>  (1) 
-1.4978185609591794

>  <r_i_glide_ligand_efficiency_sa>  (1) 
-1.4184364910387959

>  <r_i_glide_lipo>  (1) 
0

>  <r_i_glide_metal>  (1) 
-0

>  <r_i_glide_rewards>  (1) 
-2.25

>  <r_lp_Energy>  (1) 
13.212527

>  <s_epik_cmdline>  (1) 
J2VwaWtfcHl0aG9uJywgJy1waHQnLCAnMS4wJywgJy1waCcsICc3LjQnLCAnLXRuJywgJzgnLCAnLW1hJywgJzUwMCcsICctaW1hZScsICc8aW5maWxlLm1hZT4nLCAnLW9tYWUnLCAnPG91dGZpbGUubWFlPic=

>  <s_epik_input>  (1) 
W0NIM11OKFtDSDNdKVtDSDNd

>  <s_glide_docking_method>  (1) 
confgen

>  <s_i_glide_gridfile>  (1) 
gpcr_drd2_6luq_protein_autoprepared_prepared

>  <s_lp_Force_Field>  (1) 
S-OPLS

>  <s_lp_Variant>  (1) 
Pocket2Mol_11-1

>  <s_m_source_file>  (1) 
generated_generic_title2_ligand_Pocket2Mol_2026-06-23_prepared.sdf

>  <GenAI_Model>  (1) 
Pocket2Mol

>  <Protein>  (1) 
generic_title2

$$$$
Pocket2Mol_45
     RDKit          3D

  0  0  0  0  0  0  0  0  0  0999 V3000
M  V30 BEGIN CTAB
M  V30 COUNTS 15 16 0 0 1
M  V30 BEGIN ATOM
M  V30 1 C 11.775410 9.281242 -5.256301 0
M  V30 2 O 10.825377 8.172347 -5.185025 0
M  V30 3 C 10.666454 7.937558 -6.488508 0
M  V30 4 C 11.408844 8.711750 -7.279773 0
M  V30 5 C 11.350686 8.581833 -8.678803 0
M  V30 6 N 10.516859 7.652985 -9.209411 0 CHG=1
M  V30 7 C 9.741247 6.845395 -8.435528 0
M  V30 8 C 9.797859 6.969815 -7.025612 0
M  V30 9 O 12.175410 9.590227 -6.629276 0
M  V30 10 H 12.660413 9.036598 -4.667598 0
M  V30 11 H 11.310920 10.167701 -4.820627 0
M  V30 12 H 11.922020 9.176960 -9.377606 0
M  V30 13 H 9.106366 6.144077 -8.960502 0
M  V30 14 H 9.190282 6.347867 -6.385026 0
M  V30 15 H 10.463821 7.559133 -10.224681 0
M  V30 END ATOM
M  V30 BEGIN BOND
M  V30 1 1 2 1
M  V30 2 1 3 2
M  V30 3 2 4 3
M  V30 4 1 5 4
M  V30 5 2 6 5
M  V30 6 1 7 6
M  V30 7 1 8 3
M  V30 8 2 8 7
M  V30 9 1 9 1
M  V30 10 1 9 4
M  V30 11 1 10 1
M  V30 12 1 11 1
M  V30 13 1 12 5
M  V30 14 1 13 7
M  V30 15 1 14 8
M  V30 16 1 15 6
M  V30 END BOND
M  V30 END CTAB
M  END
>  <i_epik_Tot_Q>  (1) 
1

>  <i_epik_Tot_abs_Q>  (1) 
1

>  <i_i_glide_confnum>  (1) 
1

>  <i_i_glide_lignum>  (1) 
51

>  <i_i_glide_posenum>  (1) 
214

>  <i_i_glide_rotatable_bonds>  (1) 
0

>  <i_lp_mmshare_version>  (1) 
72125

>  <i_m_source_file_index>  (1) 
46

>  <i_f3d_flags>  (1) 
0

>  <num_sample>  (1) 
100

>  <b_lp_Chiralities_Consistent>  (1) 
1

>  <r_epik_Charging_Adjusted_Penalty>  (1) 
2.6035637255513002

>  <r_epik_Ionization_Penalty>  (1) 
1.3017818627756499

>  <r_epik_Ionization_Penalty_Charging>  (1) 
1.3017818627756499

>  <r_epik_Ionization_Penalty_Neutral>  (1) 
0

>  <r_epik_State_Penalty>  (1) 
1.3017818627756503

>  <r_glide_ring_energy>  (1) 
0

>  <r_i_docking_score>  (1) 
-3.5495918578315715

>  <r_i_glide_ecoul>  (1) 
-1.8149355419542026

>  <r_i_glide_eff_state_penalty>  (1) 
1.3017818627756503

>  <r_i_glide_einternal>  (1) 
0

>  <r_i_glide_emodel>  (1) 
-27.906198496409544

>  <r_i_glide_emodel_strain>  (1) 
0

>  <r_i_glide_energy>  (1) 
-18.825976651112917

>  <r_i_glide_erotb>  (1) 
0

>  <r_i_glide_esite>  (1) 
-0.028841674358064624

>  <r_i_glide_evdw>  (1) 
-17.011041109158715

>  <r_i_glide_gscore>  (1) 
-4.8513737206072216

>  <r_i_glide_gscore_strain>  (1) 
0

>  <r_i_glide_hbond>  (1) 
0

>  <r_i_glide_ligand_efficiency>  (1) 
-0.39439909531461903

>  <r_i_glide_ligand_efficiency_ln>  (1) 
-1.1102103627606066

>  <r_i_glide_ligand_efficiency_sa>  (1) 
-0.82038317799024529

>  <r_i_glide_lipo>  (1) 
-0.69803187826267188

>  <r_i_glide_metal>  (1) 
-0

>  <r_i_glide_rewards>  (1) 
-3.0017077812354191

>  <r_lp_Energy>  (1) 
25.893000999999998

>  <s_epik_Chemistry_Notes>  (1) 
This compound contains an acetal/aminal-like group ( X-CH(R)-Y where X, Y are N, S, or O) that may be acid/base labile, releasing an aldehyde.

>  <s_epik_cmdline>  (1) 
J2VwaWtfcHl0aG9uJywgJy1waHQnLCAnMS4wJywgJy1waCcsICc3LjQnLCAnLXRuJywgJzgnLCAnLW1hJywgJzUwMCcsICctaW1hZScsICc8aW5maWxlLm1hZT4nLCAnLW9tYWUnLCAnPG91dGZpbGUubWFlPic=

>  <s_epik_input>  (1) 
TzFbQ0gyXU9jKGMxMilbY0hdbltjSF1bY0hdMg==

>  <s_glide_docking_method>  (1) 
confgen

>  <s_i_glide_gridfile>  (1) 
gpcr_drd2_6luq_protein_autoprepared_prepared

>  <s_lp_Force_Field>  (1) 
S-OPLS

>  <s_lp_Variant>  (1) 
Pocket2Mol_45-2

>  <s_m_source_file>  (1) 
generated_generic_title2_ligand_Pocket2Mol_2026-06-23_prepared.sdf

>  <GenAI_Model>  (1) 
Pocket2Mol

>  <Protein>  (1) 
generic_title2

$$$$
Pocket2Mol_9
     RDKit          3D

  0  0  0  0  0  0  0  0  0  0999 V3000
M  V30 BEGIN CTAB
M  V30 COUNTS 12 12 0 0 1
M  V30 BEGIN ATOM
M  V30 1 N 10.577299 8.783641 -6.086914 0
M  V30 2 C 11.601885 8.788276 -7.075293 0
M  V30 3 C 11.102027 8.382499 -8.306771 0
M  V30 4 C 9.540505 8.371595 -6.807414 0
M  V30 5 C 11.757175 8.222104 -9.635641 0
M  V30 6 N 9.775410 8.130760 -8.077145 0
M  V30 7 H 12.609443 9.082643 -6.819725 0
M  V30 8 H 8.558270 8.245900 -6.375827 0
M  V30 9 H 12.809584 8.504773 -9.585396 0
M  V30 10 H 11.700369 7.190029 -9.976413 0
M  V30 11 H 11.273901 8.846418 -10.384108 0
M  V30 12 H 9.093514 7.817860 -8.760051 0
M  V30 END ATOM
M  V30 BEGIN BOND
M  V30 1 1 2 1
M  V30 2 2 3 2
M  V30 3 2 4 1
M  V30 4 1 5 3
M  V30 5 1 6 3
M  V30 6 1 6 4
M  V30 7 1 7 2
M  V30 8 1 8 4
M  V30 9 1 9 5
M  V30 10 1 10 5
M  V30 11 1 11 5
M  V30 12 1 12 6
M  V30 END BOND
M  V30 END CTAB
M  END
>  <i_epik_Tot_Q>  (1) 
0

>  <i_epik_Tot_abs_Q>  (1) 
0

>  <i_i_glide_confnum>  (1) 
1

>  <i_i_glide_lignum>  (1) 
10

>  <i_i_glide_posenum>  (1) 
282

>  <i_i_glide_rotatable_bonds>  (1) 
0

>  <i_lp_mmshare_version>  (1) 
72125

>  <i_m_source_file_index>  (1) 
10

>  <i_f3d_flags>  (1) 
0

>  <num_sample>  (1) 
100

>  <b_lp_Chiralities_Consistent>  (1) 
1

>  <r_epik_Charging_Adjusted_Penalty>  (1) 
0.90509379346265462

>  <r_epik_Ionization_Penalty>  (1) 
0.31828505333430857

>  <r_epik_Ionization_Penalty_Charging>  (1) 
0.31828499876078775

>  <r_epik_Ionization_Penalty_Neutral>  (1) 
5.457352079622119e-08

>  <r_epik_State_Penalty>  (1) 
0.58680879470186686

>  <r_glide_ring_energy>  (1) 
0

>  <r_i_docking_score>  (1) 
-3.5495721755535903

>  <r_i_glide_ecoul>  (1) 
-2.6381336479859296

>  <r_i_glide_eff_state_penalty>  (1) 
0.58680879470186686

>  <r_i_glide_einternal>  (1) 
0

>  <r_i_glide_emodel>  (1) 
-21.446539022456435

>  <r_i_glide_emodel_strain>  (1) 
0

>  <r_i_glide_energy>  (1) 
-16.331107831068262

>  <r_i_glide_erotb>  (1) 
0

>  <r_i_glide_esite>  (1) 
-0.10260228840958477

>  <r_i_glide_evdw>  (1) 
-13.692974183082333

>  <r_i_glide_gscore>  (1) 
-4.1363809702554573

>  <r_i_glide_gscore_strain>  (1) 
0

>  <r_i_glide_hbond>  (1) 
-0.072091231863781788

>  <r_i_glide_ligand_efficiency>  (1) 
-0.59159536259226508

>  <r_i_glide_ligand_efficiency_ln>  (1) 
-1.2714462741788701

>  <r_i_glide_ligand_efficiency_sa>  (1) 
-1.0750001159904015

>  <r_i_glide_lipo>  (1) 
-0.6313186936300843

>  <r_i_glide_metal>  (1) 
-0

>  <r_i_glide_rewards>  (1) 
-2.25

>  <r_lp_Energy>  (1) 
2.6351399999999998

>  <r_lp_tautomer_probability>  (1) 
0.49999999999999867

>  <s_epik_cmdline>  (1) 
J2VwaWtfcHl0aG9uJywgJy1waHQnLCAnMS4wJywgJy1waCcsICc3LjQnLCAnLXRuJywgJzgnLCAnLW1hJywgJzUwMCcsICctaW1hZScsICc8aW5maWxlLm1hZT4nLCAnLW9tYWUnLCAnPG91dGZpbGUubWFlPic=

>  <s_epik_input>  (1) 
W25IXTFbY0hdbltjSF1jMVtDSDNd

>  <s_glide_docking_method>  (1) 
confgen

>  <s_i_glide_gridfile>  (1) 
gpcr_drd2_6luq_protein_autoprepared_prepared

>  <s_lp_Force_Field>  (1) 
S-OPLS

>  <s_lp_Variant>  (1) 
Pocket2Mol_9-1

>  <s_m_source_file>  (1) 
generated_generic_title2_ligand_Pocket2Mol_2026-06-23_prepared.sdf

>  <GenAI_Model>  (1) 
Pocket2Mol

>  <Protein>  (1) 
generic_title2

$$$$
Pocket2Mol_9
     RDKit          3D

  0  0  0  0  0  0  0  0  0  0999 V3000
M  V30 BEGIN CTAB
M  V30 COUNTS 12 12 0 0 1
M  V30 BEGIN ATOM
M  V30 1 N 12.295407 7.165408 -2.515365 0
M  V30 2 C 11.775409 6.921846 -3.754480 0
M  V30 3 C 11.775411 8.160309 -4.385211 0
M  V30 4 C 12.575291 8.448073 -2.445822 0
M  V30 5 C 11.312810 8.491724 -5.770400 0
M  V30 6 N 12.302685 9.166459 -3.528032 0
M  V30 7 H 11.456668 5.942471 -4.080824 0
M  V30 8 H 12.997494 8.893142 -1.557079 0
M  V30 9 H 11.181177 7.590334 -6.370770 0
M  V30 10 H 10.357212 9.015434 -5.750382 0
M  V30 11 H 12.030231 9.128325 -6.288327 0
M  V30 12 H 12.437051 6.482710 -1.784186 0
M  V30 END ATOM
M  V30 BEGIN BOND
M  V30 1 1 2 1
M  V30 2 2 3 2
M  V30 3 1 4 1
M  V30 4 1 5 3
M  V30 5 1 6 3
M  V30 6 2 6 4
M  V30 7 1 7 2
M  V30 8 1 8 4
M  V30 9 1 9 5
M  V30 10 1 10 5
M  V30 11 1 11 5
M  V30 12 1 12 1
M  V30 END BOND
M  V30 END CTAB
M  END
>  <i_epik_Tot_Q>  (1) 
0

>  <i_epik_Tot_abs_Q>  (1) 
0

>  <i_i_glide_confnum>  (1) 
1

>  <i_i_glide_lignum>  (1) 
12

>  <i_i_glide_posenum>  (1) 
349

>  <i_i_glide_rotatable_bonds>  (1) 
0

>  <i_lp_mmshare_version>  (1) 
72125

>  <i_m_source_file_index>  (1) 
10

>  <i_f3d_flags>  (1) 
0

>  <num_sample>  (1) 
100

>  <b_lp_Chiralities_Consistent>  (1) 
1

>  <r_epik_Charging_Adjusted_Penalty>  (1) 
1.2833377634270211

>  <r_epik_Ionization_Penalty>  (1) 
0.5469164599317381

>  <r_epik_Ionization_Penalty_Charging>  (1) 
0.546916339904576

>  <r_epik_Ionization_Penalty_Neutral>  (1) 
1.2002716213740492e-07

>  <r_epik_State_Penalty>  (1) 
0.73642142352244522

>  <r_glide_ring_energy>  (1) 
0

>  <r_i_docking_score>  (1) 
-3.5465634804775559

>  <r_i_glide_ecoul>  (1) 
-1.365767573132215

>  <r_i_glide_eff_state_penalty>  (1) 
0.73642142352244522

>  <r_i_glide_einternal>  (1) 
0

>  <r_i_glide_emodel>  (1) 
-21.354993377414875

>  <r_i_glide_emodel_strain>  (1) 
0

>  <r_i_glide_energy>  (1) 
-16.109747870689322

>  <r_i_glide_erotb>  (1) 
0

>  <r_i_glide_esite>  (1) 
0

>  <r_i_glide_evdw>  (1) 
-14.743980297557108

>  <r_i_glide_gscore>  (1) 
-4.282984904000001

>  <r_i_glide_gscore_strain>  (1) 
0

>  <r_i_glide_hbond>  (1) 
0

>  <r_i_glide_ligand_efficiency>  (1) 
-0.59109391341292594

>  <r_i_glide_ligand_efficiency_ln>  (1) 
-1.2703685684849528

>  <r_i_glide_ligand_efficiency_sa>  (1) 
-1.0740889223603656

>  <r_i_glide_lipo>  (1) 
-0.64092075315231323

>  <r_i_glide_metal>  (1) 
-0

>  <r_i_glide_rewards>  (1) 
-2.7000000000000002

>  <r_lp_Energy>  (1) 
3.7227389999999998

>  <r_lp_tautomer_probability>  (1) 
0.49999999999999867

>  <s_epik_cmdline>  (1) 
J2VwaWtfcHl0aG9uJywgJy1waHQnLCAnMS4wJywgJy1waCcsICc3LjQnLCAnLXRuJywgJzgnLCAnLW1hJywgJzUwMCcsICctaW1hZScsICc8aW5maWxlLm1hZT4nLCAnLW9tYWUnLCAnPG91dGZpbGUubWFlPic=

>  <s_epik_input>  (1) 
W25IXTFbY0hdbltjSF1jMVtDSDNd

>  <s_glide_docking_method>  (1) 
confgen

>  <s_i_glide_gridfile>  (1) 
gpcr_drd2_6luq_protein_autoprepared_prepared

>  <s_lp_Force_Field>  (1) 
S-OPLS

>  <s_lp_Variant>  (1) 
Pocket2Mol_9-3

>  <s_m_source_file>  (1) 
generated_generic_title2_ligand_Pocket2Mol_2026-06-23_prepared.sdf

>  <GenAI_Model>  (1) 
Pocket2Mol

>  <Protein>  (1) 
generic_title2

$$$$
Pocket2Mol_9
     RDKit          3D

  0  0  0  0  0  0  0  0  0  0999 V3000
M  V30 BEGIN CTAB
M  V30 COUNTS 12 12 0 0 1
M  V30 BEGIN ATOM
M  V30 1 N 11.953085 7.990746 -9.588168 0
M  V30 2 C 11.763064 8.232331 -8.197651 0
M  V30 3 C 10.412178 8.201476 -7.871215 0
M  V30 4 C 10.695568 7.835351 -9.984492 0
M  V30 5 C 9.698464 8.390227 -6.574963 0
M  V30 6 N 9.776455 7.944360 -9.052687 0
M  V30 7 H 12.610475 8.406908 -7.551477 0
M  V30 8 H 10.442557 7.631531 -11.014596 0
M  V30 9 H 10.234334 9.091445 -5.934139 0
M  V30 10 H 8.691371 8.780215 -6.735347 0
M  V30 11 H 9.608070 7.443008 -6.042699 0
M  V30 12 H 8.767406 7.855512 -9.187178 0
M  V30 END ATOM
M  V30 BEGIN BOND
M  V30 1 1 2 1
M  V30 2 2 3 2
M  V30 3 2 4 1
M  V30 4 1 5 3
M  V30 5 1 6 3
M  V30 6 1 6 4
M  V30 7 1 7 2
M  V30 8 1 8 4
M  V30 9 1 9 5
M  V30 10 1 10 5
M  V30 11 1 11 5
M  V30 12 1 12 6
M  V30 END BOND
M  V30 END CTAB
M  END
>  <i_epik_Tot_Q>  (1) 
0

>  <i_epik_Tot_abs_Q>  (1) 
0

>  <i_i_glide_confnum>  (1) 
1

>  <i_i_glide_lignum>  (1) 
10

>  <i_i_glide_posenum>  (1) 
66

>  <i_i_glide_rotatable_bonds>  (1) 
0

>  <i_lp_mmshare_version>  (1) 
72125

>  <i_m_source_file_index>  (1) 
10

>  <i_f3d_flags>  (1) 
0

>  <num_sample>  (1) 
100

>  <b_lp_Chiralities_Consistent>  (1) 
1

>  <r_epik_Charging_Adjusted_Penalty>  (1) 
0.90509379346265462

>  <r_epik_Ionization_Penalty>  (1) 
0.31828505333430857

>  <r_epik_Ionization_Penalty_Charging>  (1) 
0.31828499876078775

>  <r_epik_Ionization_Penalty_Neutral>  (1) 
5.457352079622119e-08

>  <r_epik_State_Penalty>  (1) 
0.58680879470186686

>  <r_glide_ring_energy>  (1) 
0

>  <r_i_docking_score>  (1) 
-3.4070989022367946

>  <r_i_glide_ecoul>  (1) 
-3.6739357127058634

>  <r_i_glide_eff_state_penalty>  (1) 
0.58680879470186686

>  <r_i_glide_einternal>  (1) 
0

>  <r_i_glide_emodel>  (1) 
-21.993642821959998

>  <r_i_glide_emodel_strain>  (1) 
0.0090282130412369099

>  <r_i_glide_energy>  (1) 
-17.063435467639181

>  <r_i_glide_erotb>  (1) 
0

>  <r_i_glide_esite>  (1) 
-0.10626041885384924

>  <r_i_glide_evdw>  (1) 
-13.389499754933317

>  <r_i_glide_gscore>  (1) 
-3.9939076969386615

>  <r_i_glide_gscore_strain>  (1) 
0

>  <r_i_glide_hbond>  (1) 
-0.16

>  <r_i_glide_ligand_efficiency>  (1) 
-0.5678498170394658

>  <r_i_glide_ligand_efficiency_ln>  (1) 
-1.2204127682886972

>  <r_i_glide_ligand_efficiency_sa>  (1) 
-1.0318515961783763

>  <r_i_glide_lipo>  (1) 
-0.25708193343226726

>  <r_i_glide_metal>  (1) 
-0

>  <r_i_glide_rewards>  (1) 
-2.25

>  <r_lp_Energy>  (1) 
2.6351399999999998

>  <r_lp_tautomer_probability>  (1) 
0.49999999999999867

>  <s_epik_cmdline>  (1) 
J2VwaWtfcHl0aG9uJywgJy1waHQnLCAnMS4wJywgJy1waCcsICc3LjQnLCAnLXRuJywgJzgnLCAnLW1hJywgJzUwMCcsICctaW1hZScsICc8aW5maWxlLm1hZT4nLCAnLW9tYWUnLCAnPG91dGZpbGUubWFlPic=

>  <s_epik_input>  (1) 
W25IXTFbY0hdbltjSF1jMVtDSDNd

>  <s_glide_docking_method>  (1) 
confgen

>  <s_i_glide_gridfile>  (1) 
gpcr_drd2_6luq_protein_autoprepared_prepared

>  <s_lp_Force_Field>  (1) 
S-OPLS

>  <s_lp_Variant>  (1) 
Pocket2Mol_9-1

>  <s_m_source_file>  (1) 
generated_generic_title2_ligand_Pocket2Mol_2026-06-23_prepared.sdf

>  <GenAI_Model>  (1) 
Pocket2Mol

>  <Protein>  (1) 
generic_title2

$$$$
Pocket2Mol_9
     RDKit          3D

  0  0  0  0  0  0  0  0  0  0999 V3000
M  V30 BEGIN CTAB
M  V30 COUNTS 12 12 0 0 1
M  V30 BEGIN ATOM
M  V30 1 N 11.687161 8.327825 -8.042610 0
M  V30 2 C 11.916150 8.017830 -9.413625 0
M  V30 3 C 10.728526 7.668500 -10.046006 0
M  V30 4 C 10.374765 8.140386 -7.964352 0
M  V30 5 C 10.433111 7.263862 -11.451179 0
M  V30 6 N 9.775424 7.767569 -9.072118 0
M  V30 7 H 12.912137 8.070747 -9.828349 0
M  V30 8 H 9.829819 8.291093 -7.043762 0
M  V30 9 H 11.348251 7.190224 -12.038877 0
M  V30 10 H 9.936100 6.293800 -11.479449 0
M  V30 11 H 9.778879 7.990266 -11.933831 0
M  V30 12 H 8.775666 7.591218 -9.185137 0
M  V30 END ATOM
M  V30 BEGIN BOND
M  V30 1 1 2 1
M  V30 2 2 3 2
M  V30 3 2 4 1
M  V30 4 1 5 3
M  V30 5 1 6 3
M  V30 6 1 6 4
M  V30 7 1 7 2
M  V30 8 1 8 4
M  V30 9 1 9 5
M  V30 10 1 10 5
M  V30 11 1 11 5
M  V30 12 1 12 6
M  V30 END BOND
M  V30 END CTAB
M  END
>  <i_epik_Tot_Q>  (1) 
0

>  <i_epik_Tot_abs_Q>  (1) 
0

>  <i_i_glide_confnum>  (1) 
1

>  <i_i_glide_lignum>  (1) 
10

>  <i_i_glide_posenum>  (1) 
145

>  <i_i_glide_rotatable_bonds>  (1) 
0

>  <i_lp_mmshare_version>  (1) 
72125

>  <i_m_source_file_index>  (1) 
10

>  <i_f3d_flags>  (1) 
0

>  <num_sample>  (1) 
100

>  <b_lp_Chiralities_Consistent>  (1) 
1

>  <r_epik_Charging_Adjusted_Penalty>  (1) 
0.90509379346265462

>  <r_epik_Ionization_Penalty>  (1) 
0.31828505333430857

>  <r_epik_Ionization_Penalty_Charging>  (1) 
0.31828499876078775

>  <r_epik_Ionization_Penalty_Neutral>  (1) 
5.457352079622119e-08

>  <r_epik_State_Penalty>  (1) 
0.58680879470186686

>  <r_glide_ring_energy>  (1) 
0

>  <r_i_docking_score>  (1) 
-3.3864872733006859

>  <r_i_glide_ecoul>  (1) 
-3.8167964945730981

>  <r_i_glide_eff_state_penalty>  (1) 
0.58680879470186686

>  <r_i_glide_einternal>  (1) 
0

>  <r_i_glide_emodel>  (1) 
-20.879515490410327

>  <r_i_glide_emodel_strain>  (1) 
0

>  <r_i_glide_energy>  (1) 
-15.965770169310233

>  <r_i_glide_erotb>  (1) 
0

>  <r_i_glide_esite>  (1) 
-0.11209532660826296

>  <r_i_glide_evdw>  (1) 
-12.148973674737134

>  <r_i_glide_gscore>  (1) 
-3.9732960680025529

>  <r_i_glide_gscore_strain>  (1) 
0

>  <r_i_glide_hbond>  (1) 
-0.16

>  <r_i_glide_ligand_efficiency>  (1) 
-0.56441454555011428

>  <r_i_glide_ligand_efficiency_ln>  (1) 
-1.2130297436537676

>  <r_i_glide_ligand_efficiency_sa>  (1) 
-1.0256092936131065

>  <r_i_glide_lipo>  (1) 
-0.27123258347146861

>  <r_i_glide_metal>  (1) 
-0

>  <r_i_glide_rewards>  (1) 
-2.25

>  <r_lp_Energy>  (1) 
2.6351399999999998

>  <r_lp_tautomer_probability>  (1) 
0.49999999999999867

>  <s_epik_cmdline>  (1) 
J2VwaWtfcHl0aG9uJywgJy1waHQnLCAnMS4wJywgJy1waCcsICc3LjQnLCAnLXRuJywgJzgnLCAnLW1hJywgJzUwMCcsICctaW1hZScsICc8aW5maWxlLm1hZT4nLCAnLW9tYWUnLCAnPG91dGZpbGUubWFlPic=

>  <s_epik_input>  (1) 
W25IXTFbY0hdbltjSF1jMVtDSDNd

>  <s_glide_docking_method>  (1) 
confgen

>  <s_i_glide_gridfile>  (1) 
gpcr_drd2_6luq_protein_autoprepared_prepared

>  <s_lp_Force_Field>  (1) 
S-OPLS

>  <s_lp_Variant>  (1) 
Pocket2Mol_9-1

>  <s_m_source_file>  (1) 
generated_generic_title2_ligand_Pocket2Mol_2026-06-23_prepared.sdf

>  <GenAI_Model>  (1) 
Pocket2Mol

>  <Protein>  (1) 
generic_title2

$$$$
Pocket2Mol_88
     RDKit          3D

  0  0  0  0  0  0  0  0  0  0999 V3000
M  V30 BEGIN CTAB
M  V30 COUNTS 13 12 0 0 1
M  V30 BEGIN ATOM
M  V30 1 C 9.265898 7.153631 -7.033722 0
M  V30 2 O 10.244281 8.130627 -7.343395 0
M  V30 3 C 11.252172 7.636927 -8.209179 0
M  V30 4 C 12.214108 8.790237 -8.510153 0
M  V30 5 O 13.270538 8.390198 -9.357496 0
M  V30 6 H 8.511294 7.595741 -6.385027 0
M  V30 7 H 8.765535 6.790210 -7.932477 0
M  V30 8 H 9.705409 6.304197 -6.509457 0
M  V30 9 H 10.809995 7.262793 -9.134185 0
M  V30 10 H 11.775410 6.808977 -7.729610 0
M  V30 11 H 12.631650 9.182365 -7.582327 0
M  V30 12 H 11.673137 9.603921 -8.993031 0
M  V30 13 H 13.775506 9.164159 -9.585026 0
M  V30 END ATOM
M  V30 BEGIN BOND
M  V30 1 1 2 1
M  V30 2 1 3 2
M  V30 3 1 4 3
M  V30 4 1 5 4
M  V30 5 1 6 1
M  V30 6 1 7 1
M  V30 7 1 8 1
M  V30 8 1 9 3
M  V30 9 1 10 3
M  V30 10 1 11 4
M  V30 11 1 12 4
M  V30 12 1 13 5
M  V30 END BOND
M  V30 END CTAB
M  END
>  <i_epik_Tot_Q>  (1) 
0

>  <i_epik_Tot_abs_Q>  (1) 
0

>  <i_i_glide_confnum>  (1) 
1

>  <i_i_glide_lignum>  (1) 
95

>  <i_i_glide_posenum>  (1) 
249

>  <i_i_glide_rotatable_bonds>  (1) 
3

>  <i_lp_mmshare_version>  (1) 
72125

>  <i_m_source_file_index>  (1) 
89

>  <i_f3d_flags>  (1) 
0

>  <num_sample>  (1) 
100

>  <b_lp_Chiralities_Consistent>  (1) 
1

>  <r_epik_Charging_Adjusted_Penalty>  (1) 
0

>  <r_epik_Ionization_Penalty>  (1) 
5.5888793446441707e-08

>  <r_epik_Ionization_Penalty_Charging>  (1) 
0

>  <r_epik_Ionization_Penalty_Neutral>  (1) 
5.5888793446441707e-08

>  <r_epik_State_Penalty>  (1) 
-0

>  <r_glide_ring_energy>  (1) 
0

>  <r_i_docking_score>  (1) 
-2.3799359072693056

>  <r_i_glide_ecoul>  (1) 
-4.6825553673850884

>  <r_i_glide_eff_state_penalty>  (1) 
-0

>  <r_i_glide_einternal>  (1) 
0.38457211096804333

>  <r_i_glide_emodel>  (1) 
-16.663683071296603

>  <r_i_glide_emodel_strain>  (1) 
0

>  <r_i_glide_energy>  (1) 
-14.306826378944823

>  <r_i_glide_erotb>  (1) 
1.8283304104302178

>  <r_i_glide_esite>  (1) 
0

>  <r_i_glide_evdw>  (1) 
-9.6242710115597347

>  <r_i_glide_gscore>  (1) 
-2.3799359072693056

>  <r_i_glide_gscore_strain>  (1) 
0

>  <r_i_glide_hbond>  (1) 
-0.32000000000000001

>  <r_i_glide_ligand_efficiency>  (1) 
-0.4759871814538611

>  <r_i_glide_ligand_efficiency_ln>  (1) 
-0.91204925625123845

>  <r_i_glide_ligand_efficiency_sa>  (1) 
-0.81392663121253894

>  <r_i_glide_lipo>  (1) 
-0.45466946201377367

>  <r_i_glide_metal>  (1) 
-0

>  <r_i_glide_rewards>  (1) 
-2.25

>  <r_lp_Energy>  (1) 
3.749654

>  <r_lp_tautomer_probability>  (1) 
1

>  <s_epik_cmdline>  (1) 
J2VwaWtfcHl0aG9uJywgJy1waHQnLCAnMS4wJywgJy1waCcsICc3LjQnLCAnLXRuJywgJzgnLCAnLW1hJywgJzUwMCcsICctaW1hZScsICc8aW5maWxlLm1hZT4nLCAnLW9tYWUnLCAnPG91dGZpbGUubWFlPic=

>  <s_epik_input>  (1) 
W0NIM11PW0NIMl1bQ0gyXVtPSF0=

>  <s_glide_docking_method>  (1) 
confgen

>  <s_i_glide_gridfile>  (1) 
gpcr_drd2_6luq_protein_autoprepared_prepared

>  <s_lp_Force_Field>  (1) 
S-OPLS

>  <s_lp_Variant>  (1) 
Pocket2Mol_88-1

>  <s_m_source_file>  (1) 
generated_generic_title2_ligand_Pocket2Mol_2026-06-23_prepared.sdf

>  <GenAI_Model>  (1) 
Pocket2Mol

>  <Protein>  (1) 
generic_title2

$$$$
Pocket2Mol_88
     RDKit          3D

  0  0  0  0  0  0  0  0  0  0999 V3000
M  V30 BEGIN CTAB
M  V30 COUNTS 13 12 0 0 1
M  V30 BEGIN ATOM
M  V30 1 C 11.035413 6.387902 -4.722144 0
M  V30 2 O 11.080962 7.698721 -5.267423 0
M  V30 3 C 10.903048 7.729481 -6.679632 0
M  V30 4 C 9.436699 7.532376 -7.108811 0
M  V30 5 O 9.375020 7.550571 -8.519071 0
M  V30 6 H 11.289965 6.418479 -3.661460 0
M  V30 7 H 10.027840 5.990641 -4.809957 0
M  V30 8 H 11.753753 5.740277 -5.224255 0
M  V30 9 H 11.547903 6.986521 -7.156891 0
M  V30 10 H 11.248669 8.703914 -7.032585 0
M  V30 11 H 8.803047 8.323339 -6.704650 0
M  V30 12 H 9.032599 6.581418 -6.760608 0
M  V30 13 H 8.447791 7.590227 -8.786505 0
M  V30 END ATOM
M  V30 BEGIN BOND
M  V30 1 1 2 1
M  V30 2 1 3 2
M  V30 3 1 4 3
M  V30 4 1 5 4
M  V30 5 1 6 1
M  V30 6 1 7 1
M  V30 7 1 8 1
M  V30 8 1 9 3
M  V30 9 1 10 3
M  V30 10 1 11 4
M  V30 11 1 12 4
M  V30 12 1 13 5
M  V30 END BOND
M  V30 END CTAB
M  END
>  <i_epik_Tot_Q>  (1) 
0

>  <i_epik_Tot_abs_Q>  (1) 
0

>  <i_i_glide_confnum>  (1) 
1

>  <i_i_glide_lignum>  (1) 
95

>  <i_i_glide_posenum>  (1) 
47

>  <i_i_glide_rotatable_bonds>  (1) 
3

>  <i_lp_mmshare_version>  (1) 
72125

>  <i_m_source_file_index>  (1) 
89

>  <i_f3d_flags>  (1) 
0

>  <num_sample>  (1) 
100

>  <b_lp_Chiralities_Consistent>  (1) 
1

>  <r_epik_Charging_Adjusted_Penalty>  (1) 
0

>  <r_epik_Ionization_Penalty>  (1) 
5.5888793446441707e-08

>  <r_epik_Ionization_Penalty_Charging>  (1) 
0

>  <r_epik_Ionization_Penalty_Neutral>  (1) 
5.5888793446441707e-08

>  <r_epik_State_Penalty>  (1) 
-0

>  <r_glide_ring_energy>  (1) 
0

>  <r_i_docking_score>  (1) 
-2.3347407401410321

>  <r_i_glide_ecoul>  (1) 
-5.5279763752971913

>  <r_i_glide_eff_state_penalty>  (1) 
-0

>  <r_i_glide_einternal>  (1) 
1.4205268541236085

>  <r_i_glide_emodel>  (1) 
-15.955449643499364

>  <r_i_glide_emodel_strain>  (1) 
0

>  <r_i_glide_energy>  (1) 
-14.164978740855608

>  <r_i_glide_erotb>  (1) 
1.8283304104302178

>  <r_i_glide_esite>  (1) 
0

>  <r_i_glide_evdw>  (1) 
-8.6370023655584163

>  <r_i_glide_gscore>  (1) 
-2.3347407401410321

>  <r_i_glide_gscore_strain>  (1) 
0

>  <r_i_glide_hbond>  (1) 
-0.16

>  <r_i_glide_ligand_efficiency>  (1) 
-0.46694814802820639

>  <r_i_glide_ligand_efficiency_ln>  (1) 
-0.89472937026624666

>  <r_i_glide_ligand_efficiency_sa>  (1) 
-0.79847010147346276

>  <r_i_glide_lipo>  (1) 
-0.49202457599875071

>  <r_i_glide_metal>  (1) 
-0

>  <r_i_glide_rewards>  (1) 
-2.25

>  <r_lp_Energy>  (1) 
3.749654

>  <r_lp_tautomer_probability>  (1) 
1

>  <s_epik_cmdline>  (1) 
J2VwaWtfcHl0aG9uJywgJy1waHQnLCAnMS4wJywgJy1waCcsICc3LjQnLCAnLXRuJywgJzgnLCAnLW1hJywgJzUwMCcsICctaW1hZScsICc8aW5maWxlLm1hZT4nLCAnLW9tYWUnLCAnPG91dGZpbGUubWFlPic=

>  <s_epik_input>  (1) 
W0NIM11PW0NIMl1bQ0gyXVtPSF0=

>  <s_glide_docking_method>  (1) 
confgen

>  <s_i_glide_gridfile>  (1) 
gpcr_drd2_6luq_protein_autoprepared_prepared

>  <s_lp_Force_Field>  (1) 
S-OPLS

>  <s_lp_Variant>  (1) 
Pocket2Mol_88-1

>  <s_m_source_file>  (1) 
generated_generic_title2_ligand_Pocket2Mol_2026-06-23_prepared.sdf

>  <GenAI_Model>  (1) 
Pocket2Mol

>  <Protein>  (1) 
generic_title2

$$$$
Pocket2Mol_3
     RDKit          3D

  0  0  0  0  0  0  0  0  0  0999 V3000
M  V30 BEGIN CTAB
M  V30 COUNTS 11 10 0 0 1
M  V30 BEGIN ATOM
M  V30 1 C 12.450909 9.190222 -3.341373 0
M  V30 2 O 11.775412 8.511458 -4.385017 0
M  V30 3 C 11.375412 9.192139 -5.469316 0
M  V30 4 C 10.623469 8.325078 -6.470308 0
M  V30 5 O 11.573099 10.390227 -5.666526 0
M  V30 6 H 12.703830 8.490638 -2.544685 0
M  V30 7 H 11.823581 9.975855 -2.917242 0
M  V30 8 H 13.375453 9.638749 -3.705499 0
M  V30 9 H 10.546787 7.297034 -6.115411 0
M  V30 10 H 9.614538 8.710127 -6.620298 0
M  V30 11 H 11.138550 8.321298 -7.430580 0
M  V30 END ATOM
M  V30 BEGIN BOND
M  V30 1 1 2 1
M  V30 2 1 3 2
M  V30 3 1 4 3
M  V30 4 2 5 3
M  V30 5 1 6 1
M  V30 6 1 7 1
M  V30 7 1 8 1
M  V30 8 1 9 4
M  V30 9 1 10 4
M  V30 10 1 11 4
M  V30 END BOND
M  V30 END CTAB
M  END
>  <i_epik_Tot_Q>  (1) 
0

>  <i_epik_Tot_abs_Q>  (1) 
0

>  <i_i_glide_confnum>  (1) 
2

>  <i_i_glide_lignum>  (1) 
4

>  <i_i_glide_posenum>  (1) 
113

>  <i_i_glide_rotatable_bonds>  (1) 
1

>  <i_lp_mmshare_version>  (1) 
72125

>  <i_m_source_file_index>  (1) 
4

>  <i_f3d_flags>  (1) 
0

>  <num_sample>  (1) 
100

>  <b_lp_Chiralities_Consistent>  (1) 
1

>  <r_epik_Charging_Adjusted_Penalty>  (1) 
0

>  <r_epik_Ionization_Penalty>  (1) 
0

>  <r_epik_Ionization_Penalty_Charging>  (1) 
0

>  <r_epik_Ionization_Penalty_Neutral>  (1) 
0

>  <r_epik_State_Penalty>  (1) 
-0

>  <r_glide_ring_energy>  (1) 
0

>  <r_i_docking_score>  (1) 
-2.1847109046676745

>  <r_i_glide_ecoul>  (1) 
-0.62764593913124767

>  <r_i_glide_eff_state_penalty>  (1) 
-0

>  <r_i_glide_einternal>  (1) 
0.015635690024266236

>  <r_i_glide_emodel>  (1) 
-16.696060080949955

>  <r_i_glide_emodel_strain>  (1) 
0

>  <r_i_glide_energy>  (1) 
-14.609354643844462

>  <r_i_glide_erotb>  (1) 
1.8998339649575009

>  <r_i_glide_esite>  (1) 
0

>  <r_i_glide_evdw>  (1) 
-13.981708704713213

>  <r_i_glide_gscore>  (1) 
-2.1847109046676745

>  <r_i_glide_gscore_strain>  (1) 
0

>  <r_i_glide_hbond>  (1) 
0

>  <r_i_glide_ligand_efficiency>  (1) 
-0.43694218093353487

>  <r_i_glide_ligand_efficiency_ln>  (1) 
-0.83723429258746462

>  <r_i_glide_ligand_efficiency_sa>  (1) 
-0.74716061948480195

>  <r_i_glide_lipo>  (1) 
-0.59131700777371921

>  <r_i_glide_metal>  (1) 
-0

>  <r_i_glide_rewards>  (1) 
-2.6999955357461078

>  <r_lp_Energy>  (1) 
-0.092308000000000001

>  <r_lp_tautomer_probability>  (1) 
1

>  <s_epik_Chemistry_Notes>  (1) 
This compound has an ester and may undergo hydrolysis at high or low pH.

>  <s_epik_cmdline>  (1) 
J2VwaWtfcHl0aG9uJywgJy1waHQnLCAnMS4wJywgJy1waCcsICc3LjQnLCAnLXRuJywgJzgnLCAnLW1hJywgJzUwMCcsICctaW1hZScsICc8aW5maWxlLm1hZT4nLCAnLW9tYWUnLCAnPG91dGZpbGUubWFlPic=

>  <s_epik_input>  (1) 
W0NIM11PQyg9TylbQ0gzXQ==

>  <s_glide_docking_method>  (1) 
confgen

>  <s_i_glide_gridfile>  (1) 
gpcr_drd2_6luq_protein_autoprepared_prepared

>  <s_lp_Force_Field>  (1) 
S-OPLS

>  <s_lp_Variant>  (1) 
Pocket2Mol_3-1

>  <s_m_source_file>  (1) 
generated_generic_title2_ligand_Pocket2Mol_2026-06-23_prepared.sdf

>  <GenAI_Model>  (1) 
Pocket2Mol

>  <Protein>  (1) 
generic_title2

$$$$
Pocket2Mol_3
     RDKit          3D

  0  0  0  0  0  0  0  0  0  0999 V3000
M  V30 BEGIN CTAB
M  V30 COUNTS 11 10 0 0 1
M  V30 BEGIN ATOM
M  V30 1 C 12.481923 8.618205 -2.569568 0
M  V30 2 O 12.509088 8.704298 -3.985049 0
M  V30 3 C 11.720615 9.590222 -4.608381 0
M  V30 4 C 11.828464 9.524913 -6.121544 0
M  V30 5 O 10.975408 10.390227 -4.048213 0
M  V30 6 H 13.254646 7.932425 -2.224175 0
M  V30 7 H 11.517058 8.250448 -2.219362 0
M  V30 8 H 12.662362 9.590061 -2.110568 0
M  V30 9 H 12.566557 8.790716 -6.441754 0
M  V30 10 H 10.861013 9.263573 -6.550378 0
M  V30 11 H 12.119708 10.503355 -6.500200 0
M  V30 END ATOM
M  V30 BEGIN BOND
M  V30 1 1 2 1
M  V30 2 1 3 2
M  V30 3 1 4 3
M  V30 4 2 5 3
M  V30 5 1 6 1
M  V30 6 1 7 1
M  V30 7 1 8 1
M  V30 8 1 9 4
M  V30 9 1 10 4
M  V30 10 1 11 4
M  V30 END BOND
M  V30 END CTAB
M  END
>  <i_epik_Tot_Q>  (1) 
0

>  <i_epik_Tot_abs_Q>  (1) 
0

>  <i_i_glide_confnum>  (1) 
1

>  <i_i_glide_lignum>  (1) 
4

>  <i_i_glide_posenum>  (1) 
146

>  <i_i_glide_rotatable_bonds>  (1) 
1

>  <i_lp_mmshare_version>  (1) 
72125

>  <i_m_source_file_index>  (1) 
4

>  <i_f3d_flags>  (1) 
0

>  <num_sample>  (1) 
100

>  <b_lp_Chiralities_Consistent>  (1) 
1

>  <r_epik_Charging_Adjusted_Penalty>  (1) 
0

>  <r_epik_Ionization_Penalty>  (1) 
0

>  <r_epik_Ionization_Penalty_Charging>  (1) 
0

>  <r_epik_Ionization_Penalty_Neutral>  (1) 
0

>  <r_epik_State_Penalty>  (1) 
-0

>  <r_glide_ring_energy>  (1) 
0

>  <r_i_docking_score>  (1) 
-2.1703770187653708

>  <r_i_glide_ecoul>  (1) 
-0.67740050726220613

>  <r_i_glide_eff_state_penalty>  (1) 
-0

>  <r_i_glide_einternal>  (1) 
0.0077503765249914425

>  <r_i_glide_emodel>  (1) 
-14.866370207516725

>  <r_i_glide_emodel_strain>  (1) 
0.060140289809587077

>  <r_i_glide_energy>  (1) 
-12.849604568478664

>  <r_i_glide_erotb>  (1) 
1.8998339649575009

>  <r_i_glide_esite>  (1) 
0

>  <r_i_glide_evdw>  (1) 
-12.172204061216458

>  <r_i_glide_gscore>  (1) 
-2.1703770187653708

>  <r_i_glide_gscore_strain>  (1) 
0

>  <r_i_glide_hbond>  (1) 
0

>  <r_i_glide_ligand_efficiency>  (1) 
-0.43407540375307418

>  <r_i_glide_ligand_efficiency_ln>  (1) 
-0.83174119929177737

>  <r_i_glide_ligand_efficiency_sa>  (1) 
-0.7422584994617325

>  <r_i_glide_lipo>  (1) 
-0.66000000000000003

>  <r_i_glide_metal>  (1) 
-0

>  <r_i_glide_rewards>  (1) 
-2.6999907045727181

>  <r_lp_Energy>  (1) 
-0.092308000000000001

>  <r_lp_tautomer_probability>  (1) 
1

>  <s_epik_Chemistry_Notes>  (1) 
This compound has an ester and may undergo hydrolysis at high or low pH.

>  <s_epik_cmdline>  (1) 
J2VwaWtfcHl0aG9uJywgJy1waHQnLCAnMS4wJywgJy1waCcsICc3LjQnLCAnLXRuJywgJzgnLCAnLW1hJywgJzUwMCcsICctaW1hZScsICc8aW5maWxlLm1hZT4nLCAnLW9tYWUnLCAnPG91dGZpbGUubWFlPic=

>  <s_epik_input>  (1) 
W0NIM11PQyg9TylbQ0gzXQ==

>  <s_glide_docking_method>  (1) 
confgen

>  <s_i_glide_gridfile>  (1) 
gpcr_drd2_6luq_protein_autoprepared_prepared

>  <s_lp_Force_Field>  (1) 
S-OPLS

>  <s_lp_Variant>  (1) 
Pocket2Mol_3-1

>  <s_m_source_file>  (1) 
generated_generic_title2_ligand_Pocket2Mol_2026-06-23_prepared.sdf

>  <GenAI_Model>  (1) 
Pocket2Mol

>  <Protein>  (1) 
generic_title2

$$$$
Pocket2Mol_88
     RDKit          3D

  0  0  0  0  0  0  0  0  0  0999 V3000
M  V30 BEGIN CTAB
M  V30 COUNTS 13 12 0 0 1
M  V30 BEGIN ATOM
M  V30 1 C 10.226366 7.224848 -6.332405 0
M  V30 2 O 10.975391 7.740817 -5.244180 0
M  V30 3 C 11.381964 6.728208 -4.340060 0
M  V30 4 C 12.182933 7.371743 -3.198082 0
M  V30 5 O 12.575410 6.390217 -2.264931 0
M  V30 6 H 9.934841 8.037801 -6.997665 0
M  V30 7 H 10.813232 6.511254 -6.912657 0
M  V30 8 H 9.317364 6.730067 -5.987648 0
M  V30 9 H 11.993256 5.991020 -4.862089 0
M  V30 10 H 10.508765 6.204903 -3.948310 0
M  V30 11 H 11.600522 8.133768 -2.680450 0
M  V30 12 H 13.074167 7.864302 -3.586764 0
M  V30 13 H 11.817066 5.877124 -2.021635 0
M  V30 END ATOM
M  V30 BEGIN BOND
M  V30 1 1 2 1
M  V30 2 1 3 2
M  V30 3 1 4 3
M  V30 4 1 5 4
M  V30 5 1 6 1
M  V30 6 1 7 1
M  V30 7 1 8 1
M  V30 8 1 9 3
M  V30 9 1 10 3
M  V30 10 1 11 4
M  V30 11 1 12 4
M  V30 12 1 13 5
M  V30 END BOND
M  V30 END CTAB
M  END
>  <i_epik_Tot_Q>  (1) 
0

>  <i_epik_Tot_abs_Q>  (1) 
0

>  <i_i_glide_confnum>  (1) 
1

>  <i_i_glide_lignum>  (1) 
95

>  <i_i_glide_posenum>  (1) 
108

>  <i_i_glide_rotatable_bonds>  (1) 
3

>  <i_lp_mmshare_version>  (1) 
72125

>  <i_m_source_file_index>  (1) 
89

>  <i_f3d_flags>  (1) 
0

>  <num_sample>  (1) 
100

>  <b_lp_Chiralities_Consistent>  (1) 
1

>  <r_epik_Charging_Adjusted_Penalty>  (1) 
0

>  <r_epik_Ionization_Penalty>  (1) 
5.5888793446441707e-08

>  <r_epik_Ionization_Penalty_Charging>  (1) 
0

>  <r_epik_Ionization_Penalty_Neutral>  (1) 
5.5888793446441707e-08

>  <r_epik_State_Penalty>  (1) 
-0

>  <r_glide_ring_energy>  (1) 
0

>  <r_i_docking_score>  (1) 
-2.1703223767151991

>  <r_i_glide_ecoul>  (1) 
-2.075999482831715

>  <r_i_glide_eff_state_penalty>  (1) 
-0

>  <r_i_glide_einternal>  (1) 
0.11947424006980265

>  <r_i_glide_emodel>  (1) 
-15.894037658848857

>  <r_i_glide_emodel_strain>  (1) 
0

>  <r_i_glide_energy>  (1) 
-13.629148502112651

>  <r_i_glide_erotb>  (1) 
1.8283304104302178

>  <r_i_glide_esite>  (1) 
0

>  <r_i_glide_evdw>  (1) 
-11.553149019280935

>  <r_i_glide_gscore>  (1) 
-2.1703223767151991

>  <r_i_glide_gscore_strain>  (1) 
0

>  <r_i_glide_hbond>  (1) 
0

>  <r_i_glide_ligand_efficiency>  (1) 
-0.43406447534303982

>  <r_i_glide_ligand_efficiency_ln>  (1) 
-0.8317202591307139

>  <r_i_glide_ligand_efficiency_sa>  (1) 
-0.74223981214343837

>  <r_i_glide_lipo>  (1) 
-0.85959541375661264

>  <r_i_glide_metal>  (1) 
-0

>  <r_i_glide_rewards>  (1) 
-2.25

>  <r_lp_Energy>  (1) 
3.749654

>  <r_lp_tautomer_probability>  (1) 
1

>  <s_epik_cmdline>  (1) 
J2VwaWtfcHl0aG9uJywgJy1waHQnLCAnMS4wJywgJy1waCcsICc3LjQnLCAnLXRuJywgJzgnLCAnLW1hJywgJzUwMCcsICctaW1hZScsICc8aW5maWxlLm1hZT4nLCAnLW9tYWUnLCAnPG91dGZpbGUubWFlPic=

>  <s_epik_input>  (1) 
W0NIM11PW0NIMl1bQ0gyXVtPSF0=

>  <s_glide_docking_method>  (1) 
confgen

>  <s_i_glide_gridfile>  (1) 
gpcr_drd2_6luq_protein_autoprepared_prepared

>  <s_lp_Force_Field>  (1) 
S-OPLS

>  <s_lp_Variant>  (1) 
Pocket2Mol_88-1

>  <s_m_source_file>  (1) 
generated_generic_title2_ligand_Pocket2Mol_2026-06-23_prepared.sdf

>  <GenAI_Model>  (1) 
Pocket2Mol

>  <Protein>  (1) 
generic_title2

$$$$
Pocket2Mol_88
     RDKit          3D

  0  0  0  0  0  0  0  0  0  0999 V3000
M  V30 BEGIN CTAB
M  V30 COUNTS 13 12 0 0 1
M  V30 BEGIN ATOM
M  V30 1 C 12.289561 8.881246 -1.914133 0
M  V30 2 O 11.775413 9.590198 -3.028428 0
M  V30 3 C 12.131604 8.994638 -4.263466 0
M  V30 4 C 11.454251 9.768575 -5.399306 0
M  V30 5 O 11.775405 9.190231 -6.646339 0
M  V30 6 H 12.042023 9.413653 -0.996032 0
M  V30 7 H 11.856789 7.882066 -1.852045 0
M  V30 8 H 13.375384 8.790143 -1.966383 0
M  V30 9 H 11.815993 7.949821 -4.281671 0
M  V30 10 H 13.215787 9.020495 -4.385025 0
M  V30 11 H 11.775409 10.809050 -5.397220 0
M  V30 12 H 10.373207 9.764285 -5.271432 0
M  V30 13 H 11.335906 8.355414 -6.717821 0
M  V30 END ATOM
M  V30 BEGIN BOND
M  V30 1 1 2 1
M  V30 2 1 3 2
M  V30 3 1 4 3
M  V30 4 1 5 4
M  V30 5 1 6 1
M  V30 6 1 7 1
M  V30 7 1 8 1
M  V30 8 1 9 3
M  V30 9 1 10 3
M  V30 10 1 11 4
M  V30 11 1 12 4
M  V30 12 1 13 5
M  V30 END BOND
M  V30 END CTAB
M  END
>  <i_epik_Tot_Q>  (1) 
0

>  <i_epik_Tot_abs_Q>  (1) 
0

>  <i_i_glide_confnum>  (1) 
1

>  <i_i_glide_lignum>  (1) 
95

>  <i_i_glide_posenum>  (1) 
323

>  <i_i_glide_rotatable_bonds>  (1) 
3

>  <i_lp_mmshare_version>  (1) 
72125

>  <i_m_source_file_index>  (1) 
89

>  <i_f3d_flags>  (1) 
0

>  <num_sample>  (1) 
100

>  <b_lp_Chiralities_Consistent>  (1) 
1

>  <r_epik_Charging_Adjusted_Penalty>  (1) 
0

>  <r_epik_Ionization_Penalty>  (1) 
5.5888793446441707e-08

>  <r_epik_Ionization_Penalty_Charging>  (1) 
0

>  <r_epik_Ionization_Penalty_Neutral>  (1) 
5.5888793446441707e-08

>  <r_epik_State_Penalty>  (1) 
-0

>  <r_glide_ring_energy>  (1) 
0

>  <r_i_docking_score>  (1) 
-2.1416457131238227

>  <r_i_glide_ecoul>  (1) 
-0.5775033096544534

>  <r_i_glide_eff_state_penalty>  (1) 
-0

>  <r_i_glide_einternal>  (1) 
0.11007645999943366

>  <r_i_glide_emodel>  (1) 
-15.683388403725633

>  <r_i_glide_emodel_strain>  (1) 
0

>  <r_i_glide_energy>  (1) 
-13.4445158517719

>  <r_i_glide_erotb>  (1) 
1.8283304104302178

>  <r_i_glide_esite>  (1) 
0

>  <r_i_glide_evdw>  (1) 
-12.867012542117447

>  <r_i_glide_gscore>  (1) 
-2.1416457131238227

>  <r_i_glide_gscore_strain>  (1) 
0

>  <r_i_glide_hbond>  (1) 
0

>  <r_i_glide_ligand_efficiency>  (1) 
-0.42832914262476451

>  <r_i_glide_ligand_efficiency_ln>  (1) 
-0.8207306649906384

>  <r_i_glide_ligand_efficiency_sa>  (1) 
-0.73243253114899975

>  <r_i_glide_lipo>  (1) 
-0.98999999999999999

>  <r_i_glide_metal>  (1) 
-0

>  <r_i_glide_rewards>  (1) 
-2.25

>  <r_lp_Energy>  (1) 
3.749654

>  <r_lp_tautomer_probability>  (1) 
1

>  <s_epik_cmdline>  (1) 
J2VwaWtfcHl0aG9uJywgJy1waHQnLCAnMS4wJywgJy1waCcsICc3LjQnLCAnLXRuJywgJzgnLCAnLW1hJywgJzUwMCcsICctaW1hZScsICc8aW5maWxlLm1hZT4nLCAnLW9tYWUnLCAnPG91dGZpbGUubWFlPic=

>  <s_epik_input>  (1) 
W0NIM11PW0NIMl1bQ0gyXVtPSF0=

>  <s_glide_docking_method>  (1) 
confgen

>  <s_i_glide_gridfile>  (1) 
gpcr_drd2_6luq_protein_autoprepared_prepared

>  <s_lp_Force_Field>  (1) 
S-OPLS

>  <s_lp_Variant>  (1) 
Pocket2Mol_88-1

>  <s_m_source_file>  (1) 
generated_generic_title2_ligand_Pocket2Mol_2026-06-23_prepared.sdf

>  <GenAI_Model>  (1) 
Pocket2Mol

>  <Protein>  (1) 
generic_title2

$$$$
Pocket2Mol_88
     RDKit          3D

  0  0  0  0  0  0  0  0  0  0999 V3000
M  V30 BEGIN CTAB
M  V30 COUNTS 13 12 0 0 1
M  V30 BEGIN ATOM
M  V30 1 C 10.936673 6.667198 -5.221903 0
M  V30 2 O 10.238896 7.627029 -6.000803 0
M  V30 3 C 9.280133 7.061269 -6.887127 0
M  V30 4 C 9.942076 6.537756 -8.172538 0
M  V30 5 O 8.975387 5.990352 -9.043402 0
M  V30 6 H 11.625390 7.177070 -4.547972 0
M  V30 7 H 10.249273 6.079621 -4.612213 0
M  V30 8 H 11.523223 5.989362 -5.840985 0
M  V30 9 H 8.575410 7.852201 -7.147843 0
M  V30 10 H 8.700027 6.280739 -6.391362 0
M  V30 11 H 10.675577 5.762945 -7.953300 0
M  V30 12 H 10.465134 7.346394 -8.684223 0
M  V30 13 H 8.283147 6.637642 -9.185067 0
M  V30 END ATOM
M  V30 BEGIN BOND
M  V30 1 1 2 1
M  V30 2 1 3 2
M  V30 3 1 4 3
M  V30 4 1 5 4
M  V30 5 1 6 1
M  V30 6 1 7 1
M  V30 7 1 8 1
M  V30 8 1 9 3
M  V30 9 1 10 3
M  V30 10 1 11 4
M  V30 11 1 12 4
M  V30 12 1 13 5
M  V30 END BOND
M  V30 END CTAB
M  END
>  <i_epik_Tot_Q>  (1) 
0

>  <i_epik_Tot_abs_Q>  (1) 
0

>  <i_i_glide_confnum>  (1) 
1

>  <i_i_glide_lignum>  (1) 
95

>  <i_i_glide_posenum>  (1) 
287

>  <i_i_glide_rotatable_bonds>  (1) 
3

>  <i_lp_mmshare_version>  (1) 
72125

>  <i_m_source_file_index>  (1) 
89

>  <i_f3d_flags>  (1) 
0

>  <num_sample>  (1) 
100

>  <b_lp_Chiralities_Consistent>  (1) 
1

>  <r_epik_Charging_Adjusted_Penalty>  (1) 
0

>  <r_epik_Ionization_Penalty>  (1) 
5.5888793446441707e-08

>  <r_epik_Ionization_Penalty_Charging>  (1) 
0

>  <r_epik_Ionization_Penalty_Neutral>  (1) 
5.5888793446441707e-08

>  <r_epik_State_Penalty>  (1) 
-0

>  <r_glide_ring_energy>  (1) 
0

>  <r_i_docking_score>  (1) 
-2.0039560268240786

>  <r_i_glide_ecoul>  (1) 
-3.819418145664891

>  <r_i_glide_eff_state_penalty>  (1) 
-0

>  <r_i_glide_einternal>  (1) 
0.99530624307852711

>  <r_i_glide_emodel>  (1) 
-15.855671073154683

>  <r_i_glide_emodel_strain>  (1) 
0

>  <r_i_glide_energy>  (1) 
-14.206892453756144

>  <r_i_glide_erotb>  (1) 
1.8283304104302178

>  <r_i_glide_esite>  (1) 
0

>  <r_i_glide_evdw>  (1) 
-10.387474308091253

>  <r_i_glide_gscore>  (1) 
-2.0039560268240786

>  <r_i_glide_gscore_strain>  (1) 
0

>  <r_i_glide_hbond>  (1) 
-0.16

>  <r_i_glide_ligand_efficiency>  (1) 
-0.40079120536481572

>  <r_i_glide_ligand_efficiency_ln>  (1) 
-0.76796463225859068

>  <r_i_glide_ligand_efficiency_sa>  (1) 
-0.68534332081339522

>  <r_i_glide_lipo>  (1) 
-0.33000000000000002

>  <r_i_glide_metal>  (1) 
-0

>  <r_i_glide_rewards>  (1) 
-2.25

>  <r_lp_Energy>  (1) 
3.749654

>  <r_lp_tautomer_probability>  (1) 
1

>  <s_epik_cmdline>  (1) 
J2VwaWtfcHl0aG9uJywgJy1waHQnLCAnMS4wJywgJy1waCcsICc3LjQnLCAnLXRuJywgJzgnLCAnLW1hJywgJzUwMCcsICctaW1hZScsICc8aW5maWxlLm1hZT4nLCAnLW9tYWUnLCAnPG91dGZpbGUubWFlPic=

>  <s_epik_input>  (1) 
W0NIM11PW0NIMl1bQ0gyXVtPSF0=

>  <s_glide_docking_method>  (1) 
confgen

>  <s_i_glide_gridfile>  (1) 
gpcr_drd2_6luq_protein_autoprepared_prepared

>  <s_lp_Force_Field>  (1) 
S-OPLS

>  <s_lp_Variant>  (1) 
Pocket2Mol_88-1

>  <s_m_source_file>  (1) 
generated_generic_title2_ligand_Pocket2Mol_2026-06-23_prepared.sdf

>  <GenAI_Model>  (1) 
Pocket2Mol

>  <Protein>  (1) 
generic_title2

$$$$
Pocket2Mol_3
     RDKit          3D

  0  0  0  0  0  0  0  0  0  0999 V3000
M  V30 BEGIN CTAB
M  V30 COUNTS 11 10 0 0 1
M  V30 BEGIN ATOM
M  V30 1 C 10.088191 7.398955 -8.746975 0
M  V30 2 O 10.486293 6.812670 -7.520284 0
M  V30 3 C 10.575410 7.577326 -6.423538 0
M  V30 4 C 10.975409 6.790228 -5.185025 0
M  V30 5 O 10.365892 8.790226 -6.384041 0
M  V30 6 H 10.047579 6.638742 -9.526928 0
M  V30 7 H 10.792883 8.171256 -9.057405 0
M  V30 8 H 9.097654 7.846260 -8.656445 0
M  V30 9 H 11.736258 6.049645 -5.432358 0
M  V30 10 H 11.375531 7.456693 -4.421245 0
M  V30 11 H 10.109595 6.270959 -4.774907 0
M  V30 END ATOM
M  V30 BEGIN BOND
M  V30 1 1 2 1
M  V30 2 1 3 2
M  V30 3 1 4 3
M  V30 4 2 5 3
M  V30 5 1 6 1
M  V30 6 1 7 1
M  V30 7 1 8 1
M  V30 8 1 9 4
M  V30 9 1 10 4
M  V30 10 1 11 4
M  V30 END BOND
M  V30 END CTAB
M  END
>  <i_epik_Tot_Q>  (1) 
0

>  <i_epik_Tot_abs_Q>  (1) 
0

>  <i_i_glide_confnum>  (1) 
1

>  <i_i_glide_lignum>  (1) 
4

>  <i_i_glide_posenum>  (1) 
385

>  <i_i_glide_rotatable_bonds>  (1) 
1

>  <i_lp_mmshare_version>  (1) 
72125

>  <i_m_source_file_index>  (1) 
4

>  <i_f3d_flags>  (1) 
0

>  <num_sample>  (1) 
100

>  <b_lp_Chiralities_Consistent>  (1) 
1

>  <r_epik_Charging_Adjusted_Penalty>  (1) 
0

>  <r_epik_Ionization_Penalty>  (1) 
0

>  <r_epik_Ionization_Penalty_Charging>  (1) 
0

>  <r_epik_Ionization_Penalty_Neutral>  (1) 
0

>  <r_epik_State_Penalty>  (1) 
-0

>  <r_glide_ring_energy>  (1) 
0

>  <r_i_docking_score>  (1) 
-1.7471477433762597

>  <r_i_glide_ecoul>  (1) 
-1.0975600687372959

>  <r_i_glide_eff_state_penalty>  (1) 
-0

>  <r_i_glide_einternal>  (1) 
0.040208891734727081

>  <r_i_glide_emodel>  (1) 
-14.93351753306829

>  <r_i_glide_emodel_strain>  (1) 
0.0042605034856477708

>  <r_i_glide_energy>  (1) 
-13.282859202232428

>  <r_i_glide_erotb>  (1) 
1.8998339649575009

>  <r_i_glide_esite>  (1) 
0

>  <r_i_glide_evdw>  (1) 
-12.185299133495132

>  <r_i_glide_gscore>  (1) 
-1.7471477433762597

>  <r_i_glide_gscore_strain>  (1) 
0

>  <r_i_glide_hbond>  (1) 
0

>  <r_i_glide_ligand_efficiency>  (1) 
-0.34942954867525194

>  <r_i_glide_ligand_efficiency_ln>  (1) 
-0.66954945931114684

>  <r_i_glide_ligand_efficiency_sa>  (1) 
-0.59751612329277493

>  <r_i_glide_lipo>  (1) 
-0.31943485716489811

>  <r_i_glide_metal>  (1) 
-0

>  <r_i_glide_rewards>  (1) 
-2.5536478841835115

>  <r_lp_Energy>  (1) 
-0.092308000000000001

>  <r_lp_tautomer_probability>  (1) 
1

>  <s_epik_Chemistry_Notes>  (1) 
This compound has an ester and may undergo hydrolysis at high or low pH.

>  <s_epik_cmdline>  (1) 
J2VwaWtfcHl0aG9uJywgJy1waHQnLCAnMS4wJywgJy1waCcsICc3LjQnLCAnLXRuJywgJzgnLCAnLW1hJywgJzUwMCcsICctaW1hZScsICc8aW5maWxlLm1hZT4nLCAnLW9tYWUnLCAnPG91dGZpbGUubWFlPic=

>  <s_epik_input>  (1) 
W0NIM11PQyg9TylbQ0gzXQ==

>  <s_glide_docking_method>  (1) 
confgen

>  <s_i_glide_gridfile>  (1) 
gpcr_drd2_6luq_protein_autoprepared_prepared

>  <s_lp_Force_Field>  (1) 
S-OPLS

>  <s_lp_Variant>  (1) 
Pocket2Mol_3-1

>  <s_m_source_file>  (1) 
generated_generic_title2_ligand_Pocket2Mol_2026-06-23_prepared.sdf

>  <GenAI_Model>  (1) 
Pocket2Mol

>  <Protein>  (1) 
generic_title2

$$$$
Pocket2Mol_3
     RDKit          3D

  0  0  0  0  0  0  0  0  0  0999 V3000
M  V30 BEGIN CTAB
M  V30 COUNTS 11 10 0 0 1
M  V30 BEGIN ATOM
M  V30 1 C 11.411908 9.753113 -5.608965 0
M  V30 2 O 10.443553 8.790226 -5.984977 0
M  V30 3 C 10.723130 7.907358 -6.955158 0
M  V30 4 C 9.587681 6.924924 -7.207635 0
M  V30 5 O 11.775690 7.864734 -7.593411 0
M  V30 6 H 11.024451 10.372485 -4.799753 0
M  V30 7 H 11.654553 10.405170 -6.448006 0
M  V30 8 H 12.327569 9.271494 -5.264197 0
M  V30 9 H 8.919740 6.873100 -6.347709 0
M  V30 10 H 9.001508 7.237972 -8.072266 0
M  V30 11 H 9.981620 5.926956 -7.398377 0
M  V30 END ATOM
M  V30 BEGIN BOND
M  V30 1 1 2 1
M  V30 2 1 3 2
M  V30 3 1 4 3
M  V30 4 2 5 3
M  V30 5 1 6 1
M  V30 6 1 7 1
M  V30 7 1 8 1
M  V30 8 1 9 4
M  V30 9 1 10 4
M  V30 10 1 11 4
M  V30 END BOND
M  V30 END CTAB
M  END
>  <i_epik_Tot_Q>  (1) 
0

>  <i_epik_Tot_abs_Q>  (1) 
0

>  <i_i_glide_confnum>  (1) 
2

>  <i_i_glide_lignum>  (1) 
4

>  <i_i_glide_posenum>  (1) 
350

>  <i_i_glide_rotatable_bonds>  (1) 
1

>  <i_lp_mmshare_version>  (1) 
72125

>  <i_m_source_file_index>  (1) 
4

>  <i_f3d_flags>  (1) 
0

>  <num_sample>  (1) 
100

>  <b_lp_Chiralities_Consistent>  (1) 
1

>  <r_epik_Charging_Adjusted_Penalty>  (1) 
0

>  <r_epik_Ionization_Penalty>  (1) 
0

>  <r_epik_Ionization_Penalty_Charging>  (1) 
0

>  <r_epik_Ionization_Penalty_Neutral>  (1) 
0

>  <r_epik_State_Penalty>  (1) 
-0

>  <r_glide_ring_energy>  (1) 
0

>  <r_i_docking_score>  (1) 
-1.6230319671251594

>  <r_i_glide_ecoul>  (1) 
-0.51829797542078249

>  <r_i_glide_eff_state_penalty>  (1) 
-0

>  <r_i_glide_einternal>  (1) 
0.0015640812736107401

>  <r_i_glide_emodel>  (1) 
-15.067451056284488

>  <r_i_glide_emodel_strain>  (1) 
0.020935830401022315

>  <r_i_glide_energy>  (1) 
-13.533137767546544

>  <r_i_glide_erotb>  (1) 
1.8998339649575009

>  <r_i_glide_esite>  (1) 
0

>  <r_i_glide_evdw>  (1) 
-13.014839792125761

>  <r_i_glide_gscore>  (1) 
-1.6230319671251594

>  <r_i_glide_gscore_strain>  (1) 
0

>  <r_i_glide_hbond>  (1) 
0

>  <r_i_glide_ligand_efficiency>  (1) 
-0.32460639342503189

>  <r_i_glide_ligand_efficiency_ln>  (1) 
-0.62198527866531406

>  <r_i_glide_ligand_efficiency_sa>  (1) 
-0.55506912489427729

>  <r_i_glide_lipo>  (1) 
-0.33000000000000002

>  <r_i_glide_metal>  (1) 
-0

>  <r_i_glide_rewards>  (1) 
-2.4643792461632548

>  <r_lp_Energy>  (1) 
-0.092308000000000001

>  <r_lp_tautomer_probability>  (1) 
1

>  <s_epik_Chemistry_Notes>  (1) 
This compound has an ester and may undergo hydrolysis at high or low pH.

>  <s_epik_cmdline>  (1) 
J2VwaWtfcHl0aG9uJywgJy1waHQnLCAnMS4wJywgJy1waCcsICc3LjQnLCAnLXRuJywgJzgnLCAnLW1hJywgJzUwMCcsICctaW1hZScsICc8aW5maWxlLm1hZT4nLCAnLW9tYWUnLCAnPG91dGZpbGUubWFlPic=

>  <s_epik_input>  (1) 
W0NIM11PQyg9TylbQ0gzXQ==

>  <s_glide_docking_method>  (1) 
confgen

>  <s_i_glide_gridfile>  (1) 
gpcr_drd2_6luq_protein_autoprepared_prepared

>  <s_lp_Force_Field>  (1) 
S-OPLS

>  <s_lp_Variant>  (1) 
Pocket2Mol_3-1

>  <s_m_source_file>  (1) 
generated_generic_title2_ligand_Pocket2Mol_2026-06-23_prepared.sdf

>  <GenAI_Model>  (1) 
Pocket2Mol

>  <Protein>  (1) 
generic_title2

$$$$
Pocket2Mol_3
     RDKit          3D

  0  0  0  0  0  0  0  0  0  0999 V3000
M  V30 BEGIN CTAB
M  V30 COUNTS 11 10 0 0 1
M  V30 BEGIN ATOM
M  V30 1 C 12.319149 8.390221 -8.741289 0
M  V30 2 O 11.268501 7.560842 -8.279666 0
M  V30 3 C 10.651338 7.848162 -7.122462 0
M  V30 4 C 9.538089 6.866938 -6.785025 0
M  V30 5 O 10.930296 8.794787 -6.385076 0
M  V30 6 H 12.728510 7.989838 -9.668625 0
M  V30 7 H 13.125787 8.445060 -8.009048 0
M  V30 8 H 11.956023 9.399605 -8.938611 0
M  V30 9 H 9.495273 6.058082 -7.514669 0
M  V30 10 H 9.699646 6.434376 -5.797725 0
M  V30 11 H 8.575413 7.378527 -6.785360 0
M  V30 END ATOM
M  V30 BEGIN BOND
M  V30 1 1 2 1
M  V30 2 1 3 2
M  V30 3 1 4 3
M  V30 4 2 5 3
M  V30 5 1 6 1
M  V30 6 1 7 1
M  V30 7 1 8 1
M  V30 8 1 9 4
M  V30 9 1 10 4
M  V30 10 1 11 4
M  V30 END BOND
M  V30 END CTAB
M  END
>  <i_epik_Tot_Q>  (1) 
0

>  <i_epik_Tot_abs_Q>  (1) 
0

>  <i_i_glide_confnum>  (1) 
2

>  <i_i_glide_lignum>  (1) 
4

>  <i_i_glide_posenum>  (1) 
152

>  <i_i_glide_rotatable_bonds>  (1) 
1

>  <i_lp_mmshare_version>  (1) 
72125

>  <i_m_source_file_index>  (1) 
4

>  <i_f3d_flags>  (1) 
0

>  <num_sample>  (1) 
100

>  <b_lp_Chiralities_Consistent>  (1) 
1

>  <r_epik_Charging_Adjusted_Penalty>  (1) 
0

>  <r_epik_Ionization_Penalty>  (1) 
0

>  <r_epik_Ionization_Penalty_Charging>  (1) 
0

>  <r_epik_Ionization_Penalty_Neutral>  (1) 
0

>  <r_epik_State_Penalty>  (1) 
-0

>  <r_glide_ring_energy>  (1) 
0

>  <r_i_docking_score>  (1) 
-1.564679251788589

>  <r_i_glide_ecoul>  (1) 
-0.92265284059979313

>  <r_i_glide_eff_state_penalty>  (1) 
-0

>  <r_i_glide_einternal>  (1) 
0.0033142972763031686

>  <r_i_glide_emodel>  (1) 
-14.83141087217504

>  <r_i_glide_emodel_strain>  (1) 
0.048768471860904938

>  <r_i_glide_energy>  (1) 
-13.381749174523366

>  <r_i_glide_erotb>  (1) 
1.8998339649575009

>  <r_i_glide_esite>  (1) 
0

>  <r_i_glide_evdw>  (1) 
-12.459096333923572

>  <r_i_glide_gscore>  (1) 
-1.564679251788589

>  <r_i_glide_gscore_strain>  (1) 
0

>  <r_i_glide_hbond>  (1) 
0

>  <r_i_glide_ligand_efficiency>  (1) 
-0.31293585035771782

>  <r_i_glide_ligand_efficiency_ln>  (1) 
-0.59962310056614687

>  <r_i_glide_ligand_efficiency_sa>  (1) 
-0.53511277696451565

>  <r_i_glide_lipo>  (1) 
-0.30447740152145908

>  <r_i_glide_metal>  (1) 
-0

>  <r_i_glide_rewards>  (1) 
-2.3986830724384829

>  <r_lp_Energy>  (1) 
-0.092308000000000001

>  <r_lp_tautomer_probability>  (1) 
1

>  <s_epik_Chemistry_Notes>  (1) 
This compound has an ester and may undergo hydrolysis at high or low pH.

>  <s_epik_cmdline>  (1) 
J2VwaWtfcHl0aG9uJywgJy1waHQnLCAnMS4wJywgJy1waCcsICc3LjQnLCAnLXRuJywgJzgnLCAnLW1hJywgJzUwMCcsICctaW1hZScsICc8aW5maWxlLm1hZT4nLCAnLW9tYWUnLCAnPG91dGZpbGUubWFlPic=

>  <s_epik_input>  (1) 
W0NIM11PQyg9TylbQ0gzXQ==

>  <s_glide_docking_method>  (1) 
confgen

>  <s_i_glide_gridfile>  (1) 
gpcr_drd2_6luq_protein_autoprepared_prepared

>  <s_lp_Force_Field>  (1) 
S-OPLS

>  <s_lp_Variant>  (1) 
Pocket2Mol_3-1

>  <s_m_source_file>  (1) 
generated_generic_title2_ligand_Pocket2Mol_2026-06-23_prepared.sdf

>  <GenAI_Model>  (1) 
Pocket2Mol

>  <Protein>  (1) 
generic_title2

$$$$
