DiffSBDD_13_num_sample_50
     RDKit          3D

  0  0  0  0  0  0  0  0  0  0999 V3000
M  V30 BEGIN CTAB
M  V30 COUNTS 46 50 0 0 1
M  V30 BEGIN ATOM
M  V30 1 C 9.398155 5.894283 -10.050738 0
M  V30 2 N 6.913478 6.828001 -11.891571 0 CFG=2 CHG=1
M  V30 3 C 12.202423 7.032898 -2.348863 0
M  V30 4 C 11.434921 7.005596 -4.665783 0
M  V30 5 C 9.434875 8.303188 -10.265092 0
M  V30 6 C 11.744272 8.406135 -4.734048 0
M  V30 7 C 9.972532 6.018837 -8.760219 0
M  V30 8 C 6.234008 5.686905 -15.082825 0
M  V30 9 C 11.668709 6.374309 -3.438883 0
M  V30 10 C 7.031219 4.629433 -14.306499 0
M  V30 11 O 8.413499 8.134679 -12.691683 0 CHG=-1
M  V30 12 C 6.054126 5.664648 -12.119756 0 CFG=1
M  V30 13 O 13.035576 8.969309 -1.334734 0
M  V30 14 C 10.031370 8.420466 -9.012658 0
M  V30 15 S 11.363672 9.010398 -6.310440 0
M  V30 16 C 5.837049 6.951667 -12.892096 0 CFG=2
M  V30 17 C 8.372202 6.948199 -12.156922 0 CFG=1
M  V30 18 C 10.913324 6.480104 -5.924698 0
M  V30 19 C 9.103386 7.044419 -10.797642 0
M  V30 20 C 12.513163 8.372092 -2.420977 0
M  V30 21 C 10.818273 7.453880 -6.870149 0
M  V30 22 C 6.188983 7.044426 -14.383724 0
M  V30 23 C 10.284385 7.301686 -8.232432 0
M  V30 24 C 6.477178 4.407533 -12.885892 0
M  V30 25 Cl 9.035423 4.342976 -10.691884 0
M  V30 26 C 12.279838 9.085902 -3.617536 0
M  V30 27 H 12.374452 6.488685 -1.436186 0
M  V30 28 H 9.170010 9.185622 -10.803169 0
M  V30 29 H 10.166955 5.133975 -8.175959 0
M  V30 30 H 5.203829 5.363908 -15.196097 0
M  V30 31 H 6.638559 5.788192 -16.091093 0
M  V30 32 H 11.432555 5.369296 -3.342080 0
M  V30 33 H 6.980538 3.687726 -14.855590 0
M  V30 34 H 8.089222 4.884598 -14.287048 0
M  V30 35 H 5.468856 5.496644 -11.217962 0
M  V30 36 H 13.365060 9.863167 -1.460881 0
M  V30 37 H 10.250347 9.369284 -8.631512 0
M  V30 38 H 5.159391 7.710503 -12.508784 0
M  V30 39 H 8.751041 6.074900 -12.673204 0
M  V30 40 H 10.621966 5.461008 -6.069581 0
M  V30 41 H 7.092727 7.605701 -14.590641 0
M  V30 42 H 5.398463 7.637216 -14.850242 0
M  V30 43 H 7.111545 3.759369 -12.289734 0
M  V30 44 H 5.560137 3.825387 -12.991712 0
M  V30 45 H 12.511875 10.136691 -3.682589 0
M  V30 46 H 6.690039 7.311513 -11.014087 0
M  V30 END ATOM
M  V30 BEGIN BOND
M  V30 1 2 6 4
M  V30 2 1 7 1
M  V30 3 2 9 3
M  V30 4 1 9 4
M  V30 5 1 10 8
M  V30 6 1 12 2
M  V30 7 2 14 5
M  V30 8 1 15 6
M  V30 9 1 16 2
M  V30 10 1 16 12
M  V30 11 1 17 2
M  V30 12 1 17 11
M  V30 13 1 18 4
M  V30 14 2 19 1
M  V30 15 1 19 5
M  V30 16 1 19 17
M  V30 17 1 20 3
M  V30 18 1 20 13
M  V30 19 1 21 15
M  V30 20 2 21 18
M  V30 21 1 22 8
M  V30 22 1 22 16
M  V30 23 2 23 7
M  V30 24 1 23 14
M  V30 25 1 23 21
M  V30 26 1 24 10
M  V30 27 1 24 12
M  V30 28 1 25 1
M  V30 29 1 26 6
M  V30 30 2 26 20
M  V30 31 1 27 3
M  V30 32 1 28 5
M  V30 33 1 29 7
M  V30 34 1 30 8
M  V30 35 1 31 8
M  V30 36 1 32 9
M  V30 37 1 33 10
M  V30 38 1 34 10
M  V30 39 1 12 35 CFG=1
M  V30 40 1 36 13
M  V30 41 1 37 14
M  V30 42 1 16 38 CFG=1
M  V30 43 1 17 39 CFG=3
M  V30 44 1 40 18
M  V30 45 1 41 22
M  V30 46 1 42 22
M  V30 47 1 43 24
M  V30 48 1 44 24
M  V30 49 1 45 26
M  V30 50 1 2 46 CFG=1
M  V30 END BOND
M  V30 END CTAB
M  END
>  <i_epik_Tot_Q>  (1) 
0

>  <i_epik_Tot_abs_Q>  (1) 
2

>  <i_i_glide_confnum>  (1) 
7

>  <i_i_glide_lignum>  (1) 
49

>  <i_i_glide_posenum>  (1) 
92

>  <i_i_glide_rotatable_bonds>  (1) 
4

>  <i_lp_mmshare_version>  (1) 
72125

>  <i_m_source_file_index>  (1) 
14

>  <i_f3d_flags>  (1) 
0

>  <num_sample>  (1) 
50

>  <b_lp_Chiralities_Consistent>  (1) 
1

>  <r_epik_Charging_Adjusted_Penalty>  (1) 
0.011735890959206876

>  <r_epik_Ionization_Penalty>  (1) 
0.011735890959206876

>  <r_epik_Ionization_Penalty_Charging>  (1) 
0.0019353161310539371

>  <r_epik_Ionization_Penalty_Neutral>  (1) 
0.009800574828152938

>  <r_epik_State_Penalty>  (1) 
0.0098005748281529397

>  <r_glide_ring_energy>  (1) 
0

>  <r_i_docking_score>  (1) 
-7.5974097959945732

>  <r_i_glide_ecoul>  (1) 
-11.370486344854207

>  <r_i_glide_eff_state_penalty>  (1) 
0.0098005748281529397

>  <r_i_glide_einternal>  (1) 
15.015578178638634

>  <r_i_glide_emodel>  (1) 
-36.826190513134776

>  <r_i_glide_emodel_strain>  (1) 
1.0066592621410138

>  <r_i_glide_energy>  (1) 
-32.994927320755082

>  <r_i_glide_erotb>  (1) 
0.39195233306171845

>  <r_i_glide_esite>  (1) 
-0.15450834779773756

>  <r_i_glide_evdw>  (1) 
-21.624440975900871

>  <r_i_glide_gscore>  (1) 
-7.6072103708227266

>  <r_i_glide_gscore_strain>  (1) 
0

>  <r_i_glide_hbond>  (1) 
-0.47413399099514164

>  <r_i_glide_ligand_efficiency>  (1) 
-0.29220806907671437

>  <r_i_glide_ligand_efficiency_ln>  (1) 
-1.7842267614544733

>  <r_i_glide_ligand_efficiency_sa>  (1) 
-0.86566525579667575

>  <r_i_glide_lipo>  (1) 
-2.905880250932027

>  <r_i_glide_metal>  (1) 
-0

>  <r_i_glide_rewards>  (1) 
-1.6778451136363639

>  <r_lp_Energy>  (1) 
50.308721999999996

>  <s_epik_Chemistry_Notes>  (1) 
This compound contains an acetal/aminal-like group ( X-CH(R)-Y where X, Y are N, S, or O) that may be acid/base labile, releasing an aldehyde.

>  <s_epik_cmdline>  (1) 
J2VwaWtfcHl0aG9uJywgJy1waHQnLCAnMS4wJywgJy1waCcsICc3LjQnLCAnLXRuJywgJzgnLCAnLW1hJywgJzUwMCcsICctaW1hZScsICc8aW5maWxlLm1hZT4nLCAnLW9tYWUnLCAnPG91dGZpbGUubWFlPic=

>  <s_epik_input>  (1) 
W2NIXTFbY0hdYyhbT0hdKVtjSF1jKGMxMilzYyhbY0hdMiktYyhbY0hdYzNDbClbY0hdW2NIXWMzW0NASF0oW09IXSlONFtDQEhdKFtDQEhdNDUpW0NIMl1bQ0gyXVtDSDJdW0NIMl01

>  <s_glide_docking_method>  (1) 
confgen

>  <s_i_glide_gridfile>  (1) 
gpcr_drd2_6luq_protein_autoprepared_prepared

>  <s_lp_Force_Field>  (1) 
S-OPLS

>  <s_lp_Variant>  (1) 
DiffSBDD_13_num_sample_50-2

>  <s_m_source_file>  (1) 
generated__ligand_DiffSBDD_2026-05-06_prepared.sdf

>  <GenAI_Model>  (1) 
DiffSBDD

>  <Protein>  (1) 
generic_title2

$$$$
DiffSBDD_11_num_sample_50
     RDKit          3D

  0  0  0  0  0  0  0  0  0  0999 V3000
M  V30 BEGIN CTAB
M  V30 COUNTS 69 72 0 0 1
M  V30 BEGIN ATOM
M  V30 1 C 7.083806 5.933973 -11.445469 0
M  V30 2 C 6.918154 5.246571 -17.120862 0
M  V30 3 C 10.001374 6.472813 -12.164175 0 CFG=1
M  V30 4 O 10.674772 9.729949 -5.091248 0
M  V30 5 C 7.836304 6.492825 -14.452623 0
M  V30 6 O 11.405025 6.569762 -12.291031 0
M  V30 7 C 12.642896 9.368430 -6.344750 0
M  V30 8 C 11.901853 9.048521 -5.019949 0 CFG=2
M  V30 9 C 5.861441 4.693910 -13.241375 0
M  V30 10 C 12.112356 7.496343 -3.151688 0
M  V30 11 C 8.204032 5.665581 -10.427874 0
M  V30 12 C 6.546067 4.945931 -18.589076 0
M  V30 13 C 6.003663 6.125287 -19.394832 0
M  V30 14 C 11.650923 7.563994 -4.600459 0
M  V30 15 C 6.413774 6.525383 -15.024884 0 CFG=2
M  V30 16 C 9.700631 7.695538 -9.898353 0
M  V30 17 O 11.030380 7.809303 -9.411875 0
M  V30 18 C 5.292877 7.039407 -17.184117 0
M  V30 19 N 7.153717 4.965935 -12.571023 0 CFG=1 CHG=1
M  V30 20 C 8.183901 5.255950 -13.590309 0 CFG=2
M  V30 21 F 7.040768 6.837744 -19.837433 0
M  V30 22 C 5.382762 5.896532 -14.068115 0
M  V30 23 C 12.328415 8.390789 -7.506478 0
M  V30 24 C 11.203605 8.831577 -8.442598 0
M  V30 25 F 5.315087 5.682663 -20.448135 0
M  V30 26 N 6.229721 6.251562 -16.480915 0
M  V30 27 O 12.682911 9.552269 -3.983289 0
M  V30 28 C 9.615335 5.269914 -13.047109 0
M  V30 29 C 12.284676 8.952217 -2.760509 0
M  V30 30 C 5.153248 6.995414 -18.516748 0
M  V30 31 O 7.768444 4.558634 -16.564866 0
M  V30 32 C 9.565161 6.360745 -10.673125 0 CFG=2
M  V30 33 F 4.224609 7.774542 -19.091618 0
M  V30 34 H 6.137038 5.780415 -10.925747 0
M  V30 35 H 7.075976 6.972527 -11.779143 0
M  V30 36 H 9.614256 7.401037 -12.578231 0
M  V30 37 H 10.863355 10.649297 -5.201065 0
M  V30 38 H 8.555366 6.549485 -15.263385 0
M  V30 39 H 7.947838 7.403134 -13.866240 0
M  V30 40 H 11.739656 5.715692 -12.531419 0
M  V30 41 H 12.410615 10.393148 -6.628458 0
M  V30 42 H 13.715822 9.370244 -6.146598 0
M  V30 43 H 5.983383 3.833979 -13.902025 0
M  V30 44 H 5.103244 4.404744 -12.511260 0
M  V30 45 H 13.076129 6.990286 -3.091082 0
M  V30 46 H 11.425390 6.955882 -2.503115 0
M  V30 47 H 8.356013 4.588007 -10.345889 0
M  V30 48 H 7.852797 5.954436 -9.436367 0
M  V30 49 H 7.406610 4.509530 -19.098663 0
M  V30 50 H 5.794078 4.157568 -18.560932 0
M  V30 51 H 10.596628 7.308511 -4.707533 0
M  V30 52 H 12.224281 6.824557 -5.151873 0
M  V30 53 H 6.187326 7.593733 -14.975912 0
M  V30 54 H 9.036144 7.680942 -9.033111 0
M  V30 55 H 9.419891 8.562293 -10.500321 0
M  V30 56 H 4.702830 7.687389 -16.551704 0
M  V30 57 H 8.172014 4.377477 -14.231089 0
M  V30 58 H 4.522277 5.595572 -14.638237 0
M  V30 59 H 5.036130 6.666476 -13.376534 0
M  V30 60 H 13.228468 8.284786 -8.111819 0
M  V30 61 H 12.097745 7.386147 -7.164544 0
M  V30 62 H 10.300983 8.973347 -7.847130 0
M  V30 63 H 11.435990 9.769329 -8.945380 0
M  V30 64 H 9.841940 4.331747 -12.536420 0
M  V30 65 H 10.238151 5.275529 -13.942852 0
M  V30 66 H 13.032755 9.071793 -1.979895 0
M  V30 67 H 11.352566 9.391064 -2.408813 0
M  V30 68 H 10.233497 5.679346 -10.160641 0
M  V30 69 H 7.420503 4.088160 -12.147795 0
M  V30 END ATOM
M  V30 BEGIN BOND
M  V30 1 1 6 3
M  V30 2 1 8 4 CFG=3
M  V30 3 1 8 7
M  V30 4 1 11 1
M  V30 5 1 12 2
M  V30 6 1 13 12
M  V30 7 1 14 8
M  V30 8 1 14 10
M  V30 9 1 15 5
M  V30 10 1 17 16
M  V30 11 1 19 1
M  V30 12 1 19 9
M  V30 13 1 20 5
M  V30 14 1 20 19
M  V30 15 1 21 13
M  V30 16 1 22 9
M  V30 17 1 22 15
M  V30 18 1 23 7
M  V30 19 1 24 17
M  V30 20 1 24 23
M  V30 21 1 25 13
M  V30 22 1 26 2
M  V30 23 1 26 15
M  V30 24 1 26 18
M  V30 25 1 27 8
M  V30 26 1 28 3
M  V30 27 1 28 20
M  V30 28 1 29 10
M  V30 29 1 29 27
M  V30 30 1 30 13
M  V30 31 2 30 18
M  V30 32 2 31 2
M  V30 33 1 32 3
M  V30 34 1 32 11
M  V30 35 1 32 16
M  V30 36 1 33 30
M  V30 37 1 34 1
M  V30 38 1 35 1
M  V30 39 1 3 36 CFG=3
M  V30 40 1 37 4
M  V30 41 1 38 5
M  V30 42 1 39 5
M  V30 43 1 40 6
M  V30 44 1 41 7
M  V30 45 1 42 7
M  V30 46 1 43 9
M  V30 47 1 44 9
M  V30 48 1 45 10
M  V30 49 1 46 10
M  V30 50 1 47 11
M  V30 51 1 48 11
M  V30 52 1 49 12
M  V30 53 1 50 12
M  V30 54 1 51 14
M  V30 55 1 52 14
M  V30 56 1 15 53 CFG=3
M  V30 57 1 54 16
M  V30 58 1 55 16
M  V30 59 1 56 18
M  V30 60 1 20 57 CFG=3
M  V30 61 1 58 22
M  V30 62 1 59 22
M  V30 63 1 60 23
M  V30 64 1 61 23
M  V30 65 1 62 24
M  V30 66 1 63 24
M  V30 67 1 64 28
M  V30 68 1 65 28
M  V30 69 1 66 29
M  V30 70 1 67 29
M  V30 71 1 32 68 CFG=1
M  V30 72 1 19 69 CFG=1
M  V30 END BOND
M  V30 END CTAB
M  END
>  <i_epik_Tot_Q>  (1) 
1

>  <i_epik_Tot_abs_Q>  (1) 
1

>  <i_i_glide_confnum>  (1) 
182

>  <i_i_glide_lignum>  (1) 
45

>  <i_i_glide_posenum>  (1) 
47

>  <i_i_glide_rotatable_bonds>  (1) 
9

>  <i_lp_mmshare_version>  (1) 
72125

>  <i_m_source_file_index>  (1) 
12

>  <i_f3d_flags>  (1) 
0

>  <num_sample>  (1) 
50

>  <b_lp_Chiralities_Consistent>  (1) 
1

>  <r_epik_Charging_Adjusted_Penalty>  (1) 
0.049597449479403345

>  <r_epik_Ionization_Penalty>  (1) 
0.024799209446341199

>  <r_epik_Ionization_Penalty_Charging>  (1) 
0.024798724739701669

>  <r_epik_Ionization_Penalty_Neutral>  (1) 
4.8470663953020042e-07

>  <r_epik_State_Penalty>  (1) 
0.024798724739701676

>  <r_glide_ring_energy>  (1) 
0.0002774820840286173

>  <r_i_docking_score>  (1) 
-7.4434506063367429

>  <r_i_glide_ecoul>  (1) 
-6.4443088993359385

>  <r_i_glide_eff_state_penalty>  (1) 
0.024798724739701676

>  <r_i_glide_einternal>  (1) 
14.783641996561556

>  <r_i_glide_emodel>  (1) 
-40.230359275418877

>  <r_i_glide_emodel_strain>  (1) 
3.4226170204627806

>  <r_i_glide_energy>  (1) 
-36.415768335192745

>  <r_i_glide_erotb>  (1) 
0.62180956458355674

>  <r_i_glide_esite>  (1) 
0

>  <r_i_glide_evdw>  (1) 
-29.971459435856804

>  <r_i_glide_gscore>  (1) 
-7.4682493310764446

>  <r_i_glide_gscore_strain>  (1) 
0

>  <r_i_glide_hbond>  (1) 
-0.32000000000000001

>  <r_i_glide_ligand_efficiency>  (1) 
-0.2255591092829316

>  <r_i_glide_ligand_efficiency_ln>  (1) 
-1.6553848747246751

>  <r_i_glide_ligand_efficiency_sa>  (1) 
-0.72348858646828351

>  <r_i_glide_lipo>  (1) 
-2.9659353535800315

>  <r_i_glide_metal>  (1) 
-0

>  <r_i_glide_rewards>  (1) 
-2.338904235386738

>  <r_lp_Energy>  (1) 
43.003907999999996

>  <s_epik_cmdline>  (1) 
J2VwaWtfcHl0aG9uJywgJy1waHQnLCAnMS4wJywgJy1waCcsICc3LjQnLCAnLXRuJywgJzgnLCAnLW1hJywgJzUwMCcsICctaW1hZScsICc8aW5maWxlLm1hZT4nLCAnLW9tYWUnLCAnPG91dGZpbGUubWFlPic=

>  <s_epik_input>  (1) 
TzFbQ0gyXVtDSDJdW0NIMl1bQ0BdMShbT0hdKVtDSDJdW0NIMl1bQ0gyXU9bQ0gyXVtDQEBIXShbQ0gyXVtDSDJdMilbQ0BASF0oW09IXSlbQ0gyXVtDQEBIXShOMjMpW0NIMl1bQ0BIXShbQ0gyXVtDSDJdMylOKFtDSF09QzRGKUMoPU8pW0NIMl1DNChGKUY=

>  <s_glide_docking_method>  (1) 
confgen

>  <s_i_glide_gridfile>  (1) 
gpcr_drd2_6luq_protein_autoprepared_prepared

>  <s_lp_Force_Field>  (1) 
S-OPLS

>  <s_lp_Variant>  (1) 
DiffSBDD_11_num_sample_50-1

>  <s_m_source_file>  (1) 
generated__ligand_DiffSBDD_2026-05-06_prepared.sdf

>  <GenAI_Model>  (1) 
DiffSBDD

>  <Protein>  (1) 
generic_title2

$$$$
DiffSBDD_0_num_sample_50
     RDKit          3D

  0  0  0  0  0  0  0  0  0  0999 V3000
M  V30 BEGIN CTAB
M  V30 COUNTS 57 60 0 0 1
M  V30 BEGIN ATOM
M  V30 1 C 11.301130 8.555547 -7.907699 0
M  V30 2 C 6.912968 5.879805 -13.660822 0 CFG=2
M  V30 3 N 7.951835 6.249590 -12.690463 0
M  V30 4 N 9.435049 5.818596 -9.578506 0
M  V30 5 C 3.541869 7.741500 -17.864084 0
M  V30 6 C 5.726462 6.546122 -18.494075 0
M  V30 7 C 8.502717 4.744956 -15.383810 0
M  V30 8 S 5.570005 7.649045 -16.002448 0
M  V30 9 O 6.928816 8.169349 -11.891667 0
M  V30 10 C 10.527135 7.387784 -8.097312 0
M  V30 11 C 6.312798 4.543256 -13.183435 0
M  V30 12 C 10.234766 6.901627 -9.494871 0
M  V30 13 C 6.506182 5.371222 -10.692085 0
M  V30 14 C 7.513212 5.898188 -15.093945 0 CFG=1
M  V30 15 C 9.140899 5.146312 -10.844695 0
M  V30 16 N 9.787858 4.969317 -15.107116 0
M  V30 17 O 8.102544 3.681057 -15.851789 0
M  V30 18 F 11.433177 8.713787 -4.242346 0
M  V30 19 O 10.731874 7.459692 -10.473364 0
M  V30 20 C 11.597894 9.002682 -6.606933 0
M  V30 21 C 6.417670 6.064063 -16.172120 0 CFG=2
M  V30 22 C 6.799316 4.377740 -11.780248 0 CFG=2
M  V30 23 C 10.363829 7.121660 -5.672797 0
M  V30 24 F 3.238198 8.169318 -19.085566 0
M  V30 25 F 3.034976 6.537184 -17.649363 0
M  V30 26 C 7.795305 5.458619 -11.478468 0 CFG=2
M  V30 27 C 8.101824 7.690077 -12.489947 0
M  V30 28 F 12.335473 10.123139 -6.427994 0
M  V30 29 C 11.133718 8.285732 -5.492167 0
M  V30 30 C 5.062353 7.711314 -17.732470 0 CFG=2
M  V30 31 C 6.868193 5.986804 -17.643727 0
M  V30 32 C 10.054207 6.672721 -6.969534 0
M  V30 33 H 11.668508 9.107029 -8.761403 0
M  V30 34 H 6.108999 6.610233 -13.583632 0
M  V30 35 H 9.053343 5.422249 -8.734457 0
M  V30 36 H 3.048131 8.392061 -17.142162 0
M  V30 37 H 5.011596 5.742542 -18.668514 0
M  V30 38 H 6.072997 6.860371 -19.479033 0
M  V30 39 H 7.030605 8.116211 -10.928287 0
M  V30 40 H 6.640877 3.683823 -13.763397 0
M  V30 41 H 5.222690 4.558021 -13.208196 0
M  V30 42 H 6.634831 5.057788 -9.660060 0
M  V30 43 H 5.724087 6.106638 -10.864891 0
M  V30 44 H 8.102489 6.806095 -15.121334 0
M  V30 45 H 9.168368 4.079136 -10.626662 0
M  V30 46 H 9.939338 5.294176 -11.573762 0
M  V30 47 H 10.072509 5.853126 -14.714956 0
M  V30 48 H 10.473185 4.247622 -15.274022 0
M  V30 49 H 5.642361 5.326462 -16.001841 0
M  V30 50 H 7.033776 3.369345 -11.491678 0
M  V30 51 H 10.009778 6.570991 -4.813733 0
M  V30 52 H 8.234469 8.184462 -13.448665 0
M  V30 53 H 8.954097 7.944174 -11.873710 0
M  V30 54 H 5.434836 8.649351 -18.126049 0
M  V30 55 H 7.772152 6.569036 -17.814946 0
M  V30 56 H 7.098111 4.964983 -17.946137 0
M  V30 57 H 9.465779 5.776586 -7.095461 0
M  V30 END ATOM
M  V30 BEGIN BOND
M  V30 1 1 3 2
M  V30 2 2 10 1
M  V30 3 1 11 2
M  V30 4 1 12 4
M  V30 5 1 12 10
M  V30 6 1 14 2
M  V30 7 1 14 7
M  V30 8 1 15 4
M  V30 9 1 16 7
M  V30 10 2 17 7
M  V30 11 2 19 12
M  V30 12 1 20 1
M  V30 13 1 21 8
M  V30 14 1 21 14
M  V30 15 1 22 11
M  V30 16 1 22 13
M  V30 17 1 24 5
M  V30 18 1 25 5
M  V30 19 1 26 3
M  V30 20 1 26 13
M  V30 21 1 26 15 CFG=1
M  V30 22 1 26 22
M  V30 23 1 27 3
M  V30 24 1 27 9
M  V30 25 1 28 20
M  V30 26 1 29 18
M  V30 27 2 29 20
M  V30 28 1 29 23
M  V30 29 1 30 5
M  V30 30 1 30 6
M  V30 31 1 30 8
M  V30 32 1 31 6
M  V30 33 1 31 21
M  V30 34 1 32 10
M  V30 35 2 32 23
M  V30 36 1 33 1
M  V30 37 1 2 34 CFG=3
M  V30 38 1 35 4
M  V30 39 1 36 5
M  V30 40 1 37 6
M  V30 41 1 38 6
M  V30 42 1 39 9
M  V30 43 1 40 11
M  V30 44 1 41 11
M  V30 45 1 42 13
M  V30 46 1 43 13
M  V30 47 1 14 44 CFG=1
M  V30 48 1 45 15
M  V30 49 1 46 15
M  V30 50 1 47 16
M  V30 51 1 48 16
M  V30 52 1 21 49 CFG=1
M  V30 53 1 22 50 CFG=1
M  V30 54 1 51 23
M  V30 55 1 52 27
M  V30 56 1 53 27
M  V30 57 1 30 54 CFG=3
M  V30 58 1 55 31
M  V30 59 1 56 31
M  V30 60 1 57 32
M  V30 END BOND
M  V30 END CTAB
M  END
>  <i_epik_Tot_Q>  (1) 
0

>  <i_epik_Tot_abs_Q>  (1) 
0

>  <i_i_glide_confnum>  (1) 
114

>  <i_i_glide_lignum>  (1) 
1

>  <i_i_glide_posenum>  (1) 
387

>  <i_i_glide_rotatable_bonds>  (1) 
10

>  <i_lp_mmshare_version>  (1) 
72125

>  <i_m_source_file_index>  (1) 
1

>  <i_f3d_flags>  (1) 
0

>  <num_sample>  (1) 
50

>  <b_lp_Chiralities_Consistent>  (1) 
1

>  <r_epik_Charging_Adjusted_Penalty>  (1) 
0.071769471723160352

>  <r_epik_Ionization_Penalty>  (1) 
0.068537577392677768

>  <r_epik_Ionization_Penalty_Charging>  (1) 
0

>  <r_epik_Ionization_Penalty_Neutral>  (1) 
0.068537577392677768

>  <r_epik_State_Penalty>  (1) 
0.071769471723160352

>  <r_glide_ring_energy>  (1) 
0

>  <r_i_docking_score>  (1) 
-7.4205811365235332

>  <r_i_glide_ecoul>  (1) 
-10.026982542405506

>  <r_i_glide_eff_state_penalty>  (1) 
0.071769471723160352

>  <r_i_glide_einternal>  (1) 
17.00997135660571

>  <r_i_glide_emodel>  (1) 
-48.31942005945514

>  <r_i_glide_emodel_strain>  (1) 
2.359886238653047

>  <r_i_glide_energy>  (1) 
-41.243228828207577

>  <r_i_glide_erotb>  (1) 
0.5371628550043247

>  <r_i_glide_esite>  (1) 
-0.18602100298420618

>  <r_i_glide_evdw>  (1) 
-31.216246285802072

>  <r_i_glide_gscore>  (1) 
-7.492350608246694

>  <r_i_glide_gscore_strain>  (1) 
0

>  <r_i_glide_hbond>  (1) 
-0.15924950536113908

>  <r_i_glide_ligand_efficiency>  (1) 
-0.23189316051636041

>  <r_i_glide_ligand_efficiency_ln>  (1) 
-1.6616703938697561

>  <r_i_glide_ligand_efficiency_sa>  (1) 
-0.73621489389580219

>  <r_i_glide_lipo>  (1) 
-2.6805131088620313

>  <r_i_glide_metal>  (1) 
-0

>  <r_i_glide_rewards>  (1) 
-1.9388701503927122

>  <r_lp_Energy>  (1) 
1.918968

>  <s_epik_Chemistry_Notes>  (1) 
This compound contains an acetal/aminal-like group ( X-CH(R)-Y where X, Y are N, S, or O) that may be acid/base labile, releasing an aldehyde.

>  <s_epik_cmdline>  (1) 
J2VwaWtfcHl0aG9uJywgJy1waHQnLCAnMS4wJywgJy1waCcsICc3LjQnLCAnLXRuJywgJzgnLCAnLW1hJywgJzUwMCcsICctaW1hZScsICc8aW5maWxlLm1hZT4nLCAnLW9tYWUnLCAnPG91dGZpbGUubWFlPic=

>  <s_epik_input>  (1) 
W2NIXTFbY0hdYyhGKWMoRilbY0hdYzFDKD1PKVtOSF1bQ0gyXVtDQF0yM1tDQEBIXShbQ0gyXTMpW0NIMl1bQ0BASF0oTjJbQ0gyXVtPSF0pW0NAQEhdKEMoPU8pW05IMl0pW0NASF00U1tDQEhdKFtDSF0oRilGKVtDSDJdW0NIMl00

>  <s_glide_docking_method>  (1) 
confgen

>  <s_i_glide_gridfile>  (1) 
gpcr_drd2_6luq_protein_autoprepared_prepared

>  <s_lp_Force_Field>  (1) 
S-OPLS

>  <s_lp_Variant>  (1) 
DiffSBDD_0_num_sample_50-1

>  <s_m_source_file>  (1) 
generated__ligand_DiffSBDD_2026-05-06_prepared.sdf

>  <GenAI_Model>  (1) 
DiffSBDD

>  <Protein>  (1) 
generic_title2

$$$$
DiffSBDD_7_num_sample_50
     RDKit          3D

  0  0  0  0  0  0  0  0  0  0999 V3000
M  V30 BEGIN CTAB
M  V30 COUNTS 63 67 0 0 1
M  V30 BEGIN ATOM
M  V30 1 C 11.621269 8.375410 -4.634053 0 CFG=1
M  V30 2 C 5.058047 7.325937 -16.627305 0
M  V30 3 C 4.504348 6.983275 -17.876629 0
M  V30 4 C 11.851768 7.603507 -2.292256 0
M  V30 5 C 8.426585 5.246560 -12.375157 0 CFG=2
M  V30 6 C 5.133490 6.017689 -18.685777 0
M  V30 7 C 9.639256 7.045837 -7.770526 0
M  V30 8 C 9.628511 5.819275 -11.595869 0 CFG=2
M  V30 9 C 9.262082 6.601560 -10.293112 0 CFG=2
M  V30 10 C 6.416142 7.173134 -12.279046 0
M  V30 11 C 6.854873 7.083132 -14.848911 0
M  V30 12 C 6.313089 5.388600 -18.244209 0
M  V30 13 C 10.644737 7.183331 -6.634909 0
M  V30 14 C 11.590109 9.569103 -3.701385 0 CFG=2
M  V30 15 C 12.589003 9.523924 -4.819011 0
M  V30 16 O 9.034875 7.965328 -10.601376 0
M  V30 17 C 6.866231 5.727470 -16.994086 0
M  V30 18 C 7.087944 5.882787 -12.510822 0 CFG=1
M  V30 19 C 10.484347 6.639015 -12.592164 0
M  V30 20 C 11.980558 7.178656 -3.761745 0
M  V30 21 C 11.995290 9.126618 -2.313084 0
M  V30 22 C 6.250673 6.402244 -13.634202 0 CFG=1
M  V30 23 C 10.257545 6.555810 -9.104050 0
M  V30 24 C 10.643458 8.202266 -5.754018 0
M  V30 25 C 11.966865 6.788117 -12.291611 0
M  V30 26 C 6.240526 6.698611 -16.184317 0
M  V30 27 C 7.144425 4.616414 -11.729432 0
M  V30 28 H 4.578753 8.072704 -16.012439 0
M  V30 29 H 3.599551 7.465634 -18.216474 0
M  V30 30 H 10.896569 7.294185 -1.875678 0
M  V30 31 H 12.620695 7.138469 -1.672995 0
M  V30 32 H 8.755998 4.696897 -13.255436 0
M  V30 33 H 4.709974 5.757516 -19.643707 0
M  V30 34 H 9.147634 8.009440 -7.917422 0
M  V30 35 H 8.858327 6.353916 -7.453689 0
M  V30 36 H 10.191910 4.930893 -11.312668 0
M  V30 37 H 8.340605 6.170417 -9.904905 0
M  V30 38 H 7.027621 8.072360 -12.282645 0
M  V30 39 H 5.576794 7.178441 -11.586116 0
M  V30 40 H 7.918319 6.853033 -14.867386 0
M  V30 41 H 6.777646 8.164801 -14.734544 0
M  V30 42 H 6.794340 4.646000 -18.864207 0
M  V30 43 H 11.391978 6.406488 -6.553023 0
M  V30 44 H 10.741241 10.246285 -3.778592 0
M  V30 45 H 12.422724 10.187408 -5.665762 0
M  V30 46 H 13.634740 9.365247 -4.565397 0
M  V30 47 H 8.169824 8.158129 -10.201963 0
M  V30 48 H 7.773777 5.246516 -16.659195 0
M  V30 49 H 10.429788 6.169302 -13.571157 0
M  V30 50 H 10.064920 7.636479 -12.691691 0
M  V30 51 H 11.395464 6.288228 -4.000566 0
M  V30 52 H 13.034834 6.969296 -3.891668 0
M  V30 53 H 13.044684 9.369294 -2.165158 0
M  V30 54 H 11.434854 9.633995 -1.532975 0
M  V30 55 H 5.272819 5.953819 -13.791243 0
M  V30 56 H 11.149465 7.135700 -9.335130 0
M  V30 57 H 10.582976 5.530849 -8.942452 0
M  V30 58 H 9.887351 8.967986 -5.848661 0
M  V30 59 H 12.458806 7.369412 -13.071081 0
M  V30 60 H 12.433885 5.807207 -12.291626 0
M  V30 61 H 12.150221 7.289517 -11.342317 0
M  V30 62 H 6.748386 3.715354 -12.193950 0
M  V30 63 H 6.990744 4.682770 -10.654953 0
M  V30 END ATOM
M  V30 BEGIN BOND
M  V30 1 1 3 2
M  V30 2 2 6 3
M  V30 3 1 8 5
M  V30 4 1 9 8
M  V30 5 1 12 6
M  V30 6 1 13 7
M  V30 7 1 14 1
M  V30 8 1 15 1
M  V30 9 1 15 14
M  V30 10 1 16 9
M  V30 11 2 17 12
M  V30 12 1 18 5
M  V30 13 1 18 10 CFG=1
M  V30 14 1 19 8
M  V30 15 1 20 1
M  V30 16 1 20 4
M  V30 17 1 21 4
M  V30 18 1 21 14
M  V30 19 1 22 10
M  V30 20 1 22 11
M  V30 21 1 22 18
M  V30 22 1 23 7
M  V30 23 1 23 9
M  V30 24 1 1 24 CFG=3
M  V30 25 2 24 13
M  V30 26 1 25 19
M  V30 27 2 26 2
M  V30 28 1 26 11
M  V30 29 1 26 17
M  V30 30 1 27 5
M  V30 31 1 27 18
M  V30 32 1 28 2
M  V30 33 1 29 3
M  V30 34 1 30 4
M  V30 35 1 31 4
M  V30 36 1 5 32 CFG=3
M  V30 37 1 33 6
M  V30 38 1 34 7
M  V30 39 1 35 7
M  V30 40 1 8 36 CFG=1
M  V30 41 1 9 37 CFG=1
M  V30 42 1 38 10
M  V30 43 1 39 10
M  V30 44 1 40 11
M  V30 45 1 41 11
M  V30 46 1 42 12
M  V30 47 1 43 13
M  V30 48 1 14 44 CFG=1
M  V30 49 1 45 15
M  V30 50 1 46 15
M  V30 51 1 47 16
M  V30 52 1 48 17
M  V30 53 1 49 19
M  V30 54 1 50 19
M  V30 55 1 51 20
M  V30 56 1 52 20
M  V30 57 1 53 21
M  V30 58 1 54 21
M  V30 59 1 22 55 CFG=3
M  V30 60 1 56 23
M  V30 61 1 57 23
M  V30 62 1 58 24
M  V30 63 1 59 25
M  V30 64 1 60 25
M  V30 65 1 61 25
M  V30 66 1 62 27
M  V30 67 1 63 27
M  V30 END BOND
M  V30 END CTAB
M  END
>  <i_epik_Tot_Q>  (1) 
0

>  <i_epik_Tot_abs_Q>  (1) 
0

>  <i_i_glide_confnum>  (1) 
384

>  <i_i_glide_lignum>  (1) 
17

>  <i_i_glide_posenum>  (1) 
320

>  <i_i_glide_rotatable_bonds>  (1) 
10

>  <i_lp_mmshare_version>  (1) 
72125

>  <i_m_source_file_index>  (1) 
8

>  <i_f3d_flags>  (1) 
0

>  <num_sample>  (1) 
50

>  <b_lp_Chiralities_Consistent>  (1) 
1

>  <r_epik_Charging_Adjusted_Penalty>  (1) 
0

>  <r_epik_Ionization_Penalty>  (1) 
5.611789062664276e-07

>  <r_epik_Ionization_Penalty_Charging>  (1) 
0

>  <r_epik_Ionization_Penalty_Neutral>  (1) 
5.611789062664276e-07

>  <r_epik_State_Penalty>  (1) 
-0

>  <r_glide_ring_energy>  (1) 
0

>  <r_i_docking_score>  (1) 
-7.3698112148645656

>  <r_i_glide_ecoul>  (1) 
-7.3787899568044839

>  <r_i_glide_eff_state_penalty>  (1) 
-0

>  <r_i_glide_einternal>  (1) 
11.057712766063887

>  <r_i_glide_emodel>  (1) 
-45.304151754357498

>  <r_i_glide_emodel_strain>  (1) 
1.2372193815361783

>  <r_i_glide_energy>  (1) 
-37.398629806673462

>  <r_i_glide_erotb>  (1) 
1.0125554383439441

>  <r_i_glide_esite>  (1) 
0

>  <r_i_glide_evdw>  (1) 
-30.01983984986898

>  <r_i_glide_gscore>  (1) 
-7.3698112148645656

>  <r_i_glide_gscore_strain>  (1) 
0

>  <r_i_glide_hbond>  (1) 
-0.1408119407022648

>  <r_i_glide_ligand_efficiency>  (1) 
-0.27295597092090984

>  <r_i_glide_ligand_efficiency_ln>  (1) 
-1.7155705499867877

>  <r_i_glide_ligand_efficiency_sa>  (1) 
-0.81886791276272963

>  <r_i_glide_lipo>  (1) 
-3.8104002719466679

>  <r_i_glide_metal>  (1) 
-0

>  <r_i_glide_rewards>  (1) 
-1.8233439545454555

>  <r_lp_Energy>  (1) 
23.350185999999997

>  <r_lp_tautomer_probability>  (1) 
1

>  <s_epik_cmdline>  (1) 
J2VwaWtfcHl0aG9uJywgJy1waHQnLCAnMS4wJywgJy1waCcsICc3LjQnLCAnLXRuJywgJzgnLCAnLW1hJywgJzUwMCcsICctaW1hZScsICc8aW5maWxlLm1hZT4nLCAnLW9tYWUnLCAnPG91dGZpbGUubWFlPic=

>  <s_epik_input>  (1) 
W0NIMl0xW0NIMl1bQ0gyXVtDQEBIXShbQ0gyXTIpW0NAXTEyXFtDSF09W0NIXVxbQ0gyXVtDSDJdW0NAQEhdKFtPSF0pW0NASF0oW0NIMl1bQ0gzXSlbQ0BASF0oW0NIMl0zKVtDQF0zNFtDSDJdW0NASF00W0NIMl1jNVtjSF1bY0hdW2NIXVtjSF1bY0hdNQ==

>  <s_glide_docking_method>  (1) 
confgen

>  <s_i_glide_gridfile>  (1) 
gpcr_drd2_6luq_protein_autoprepared_prepared

>  <s_lp_Force_Field>  (1) 
S-OPLS

>  <s_lp_Variant>  (1) 
DiffSBDD_7_num_sample_50-2

>  <s_m_source_file>  (1) 
generated__ligand_DiffSBDD_2026-05-06_prepared.sdf

>  <GenAI_Model>  (1) 
DiffSBDD

>  <Protein>  (1) 
generic_title2

$$$$
DiffSBDD_7_num_sample_50
     RDKit          3D

  0  0  0  0  0  0  0  0  0  0999 V3000
M  V30 BEGIN CTAB
M  V30 COUNTS 63 67 0 0 1
M  V30 BEGIN ATOM
M  V30 1 C 11.834256 8.098475 -4.714491 0 CFG=1
M  V30 2 C 6.634863 5.372717 -17.669024 0
M  V30 3 C 5.622231 5.876848 -18.509869 0
M  V30 4 C 11.982951 8.205290 -2.271597 0
M  V30 5 C 9.305230 4.964036 -12.569796 0 CFG=2
M  V30 6 C 4.726855 6.852383 -18.028921 0
M  V30 7 C 10.248457 6.003586 -7.643795 0
M  V30 8 C 9.392910 6.065032 -11.513690 0 CFG=2
M  V30 9 C 9.298163 5.618105 -10.018746 0 CFG=2
M  V30 10 C 6.585849 4.766806 -13.123106 0
M  V30 11 C 7.856198 5.315557 -15.441876 0
M  V30 12 C 4.843646 7.325634 -16.707532 0
M  V30 13 C 11.194388 6.846845 -6.801295 0
M  V30 14 C 11.478001 9.497933 -4.275571 0 CFG=2
M  V30 15 C 12.551362 9.309557 -5.299858 0
M  V30 16 O 7.962503 5.369295 -9.619988 0
M  V30 17 C 5.854966 6.823778 -15.865176 0
M  V30 18 C 8.012038 4.380311 -13.028909 0 CFG=1
M  V30 19 C 8.470110 7.233462 -11.906931 0
M  V30 20 C 12.389513 7.379623 -3.491943 0
M  V30 21 C 11.804334 9.623461 -2.810851 0
M  V30 22 C 7.400136 4.317641 -14.385426 0 CFG=1
M  V30 23 C 9.958423 6.610196 -9.026066 0
M  V30 24 C 10.912618 7.283421 -5.560155 0
M  V30 25 C 8.995479 8.583753 -11.464790 0
M  V30 26 C 6.752902 5.845066 -16.344421 0
M  V30 27 C 8.877255 3.505661 -12.216322 0
M  V30 28 H 7.322799 4.627269 -18.040824 0
M  V30 29 H 5.532964 5.516087 -19.524181 0
M  V30 30 H 11.042965 7.835953 -1.861484 0
M  V30 31 H 12.724067 8.158655 -1.472806 0
M  V30 32 H 10.046182 5.076710 -13.359128 0
M  V30 33 H 3.950890 7.238220 -18.674449 0
M  V30 34 H 9.315003 5.825936 -7.107358 0
M  V30 35 H 10.723184 5.032800 -7.781208 0
M  V30 36 H 10.419520 6.410680 -11.638476 0
M  V30 37 H 9.834827 4.676994 -9.920464 0
M  V30 38 H 6.321299 5.816786 -13.041578 0
M  V30 39 H 5.847715 4.069864 -12.730841 0
M  V30 40 H 8.634001 4.846484 -16.044841 0
M  V30 41 H 8.327997 6.169030 -14.959212 0
M  V30 42 H 4.158323 8.076108 -16.340437 0
M  V30 43 H 12.147083 7.091923 -7.247982 0
M  V30 44 H 10.565298 9.968082 -4.629080 0
M  V30 45 H 12.318042 9.588638 -6.325459 0
M  V30 46 H 13.580355 9.490683 -4.994432 0
M  V30 47 H 7.535584 6.224746 -9.498866 0
M  V30 48 H 5.944463 7.192046 -14.853534 0
M  V30 49 H 8.391975 7.274126 -12.992125 0
M  V30 50 H 7.454045 7.086983 -11.541588 0
M  V30 51 H 12.039062 6.347884 -3.430395 0
M  V30 52 H 13.476525 7.369361 -3.540179 0
M  V30 53 H 12.729850 10.169313 -2.705200 0
M  V30 54 H 11.034875 10.169742 -2.291679 0
M  V30 55 H 7.140485 3.335830 -14.775574 0
M  V30 56 H 9.342583 7.497582 -8.892990 0
M  V30 57 H 10.902353 6.954233 -9.450263 0
M  V30 58 H 9.956870 7.033345 -5.122000 0
M  V30 59 H 8.648991 9.363040 -12.144728 0
M  V30 60 H 10.083487 8.569227 -11.459567 0
M  V30 61 H 8.642278 8.857382 -10.471787 0
M  V30 62 H 9.412142 2.688797 -12.691842 0
M  V30 63 H 8.634862 3.369197 -11.174075 0
M  V30 END ATOM
M  V30 BEGIN BOND
M  V30 1 1 3 2
M  V30 2 2 6 3
M  V30 3 1 8 5
M  V30 4 1 9 8
M  V30 5 1 12 6
M  V30 6 1 13 7
M  V30 7 1 14 1
M  V30 8 1 15 1
M  V30 9 1 15 14
M  V30 10 1 16 9
M  V30 11 2 17 12
M  V30 12 1 18 5
M  V30 13 1 18 10 CFG=1
M  V30 14 1 19 8
M  V30 15 1 20 1
M  V30 16 1 20 4
M  V30 17 1 21 4
M  V30 18 1 21 14
M  V30 19 1 22 10
M  V30 20 1 22 11
M  V30 21 1 22 18
M  V30 22 1 23 7
M  V30 23 1 23 9
M  V30 24 1 1 24 CFG=3
M  V30 25 2 24 13
M  V30 26 1 25 19
M  V30 27 2 26 2
M  V30 28 1 26 11
M  V30 29 1 26 17
M  V30 30 1 27 5
M  V30 31 1 27 18
M  V30 32 1 28 2
M  V30 33 1 29 3
M  V30 34 1 30 4
M  V30 35 1 31 4
M  V30 36 1 5 32 CFG=3
M  V30 37 1 33 6
M  V30 38 1 34 7
M  V30 39 1 35 7
M  V30 40 1 8 36 CFG=1
M  V30 41 1 9 37 CFG=3
M  V30 42 1 38 10
M  V30 43 1 39 10
M  V30 44 1 40 11
M  V30 45 1 41 11
M  V30 46 1 42 12
M  V30 47 1 43 13
M  V30 48 1 14 44 CFG=3
M  V30 49 1 45 15
M  V30 50 1 46 15
M  V30 51 1 47 16
M  V30 52 1 48 17
M  V30 53 1 49 19
M  V30 54 1 50 19
M  V30 55 1 51 20
M  V30 56 1 52 20
M  V30 57 1 53 21
M  V30 58 1 54 21
M  V30 59 1 22 55 CFG=3
M  V30 60 1 56 23
M  V30 61 1 57 23
M  V30 62 1 58 24
M  V30 63 1 59 25
M  V30 64 1 60 25
M  V30 65 1 61 25
M  V30 66 1 62 27
M  V30 67 1 63 27
M  V30 END BOND
M  V30 END CTAB
M  END
>  <i_epik_Tot_Q>  (1) 
0

>  <i_epik_Tot_abs_Q>  (1) 
0

>  <i_i_glide_confnum>  (1) 
139

>  <i_i_glide_lignum>  (1) 
17

>  <i_i_glide_posenum>  (1) 
16

>  <i_i_glide_rotatable_bonds>  (1) 
10

>  <i_lp_mmshare_version>  (1) 
72125

>  <i_m_source_file_index>  (1) 
8

>  <i_f3d_flags>  (1) 
0

>  <num_sample>  (1) 
50

>  <b_lp_Chiralities_Consistent>  (1) 
1

>  <r_epik_Charging_Adjusted_Penalty>  (1) 
0

>  <r_epik_Ionization_Penalty>  (1) 
5.611789062664276e-07

>  <r_epik_Ionization_Penalty_Charging>  (1) 
0

>  <r_epik_Ionization_Penalty_Neutral>  (1) 
5.611789062664276e-07

>  <r_epik_State_Penalty>  (1) 
-0

>  <r_glide_ring_energy>  (1) 
0

>  <r_i_docking_score>  (1) 
-7.3576129090083562

>  <r_i_glide_ecoul>  (1) 
-3.9198513080153172

>  <r_i_glide_eff_state_penalty>  (1) 
-0

>  <r_i_glide_einternal>  (1) 
16.374242799113212

>  <r_i_glide_emodel>  (1) 
-44.117572420426342

>  <r_i_glide_emodel_strain>  (1) 
0.54193934927650389

>  <r_i_glide_energy>  (1) 
-38.199319476105678

>  <r_i_glide_erotb>  (1) 
1.0125554383439441

>  <r_i_glide_esite>  (1) 
0

>  <r_i_glide_evdw>  (1) 
-34.279468168090361

>  <r_i_glide_gscore>  (1) 
-7.3576129090083562

>  <r_i_glide_gscore_strain>  (1) 
0

>  <r_i_glide_hbond>  (1) 
-0.16

>  <r_i_glide_ligand_efficiency>  (1) 
-0.27250418181512431

>  <r_i_glide_ligand_efficiency_ln>  (1) 
-1.7127309854882515

>  <r_i_glide_ligand_efficiency_sa>  (1) 
-0.81751254544537311

>  <r_i_glide_lipo>  (1) 
-4.2495394185152096

>  <r_i_glide_metal>  (1) 
-0

>  <r_i_glide_rewards>  (1) 
-1.6586778242302755

>  <r_lp_Energy>  (1) 
23.350185999999997

>  <r_lp_tautomer_probability>  (1) 
1

>  <s_epik_cmdline>  (1) 
J2VwaWtfcHl0aG9uJywgJy1waHQnLCAnMS4wJywgJy1waCcsICc3LjQnLCAnLXRuJywgJzgnLCAnLW1hJywgJzUwMCcsICctaW1hZScsICc8aW5maWxlLm1hZT4nLCAnLW9tYWUnLCAnPG91dGZpbGUubWFlPic=

>  <s_epik_input>  (1) 
W0NIMl0xW0NIMl1bQ0gyXVtDQEBIXShbQ0gyXTIpW0NAXTEyXFtDSF09W0NIXVxbQ0gyXVtDSDJdW0NAQEhdKFtPSF0pW0NASF0oW0NIMl1bQ0gzXSlbQ0BASF0oW0NIMl0zKVtDQF0zNFtDSDJdW0NASF00W0NIMl1jNVtjSF1bY0hdW2NIXVtjSF1bY0hdNQ==

>  <s_glide_docking_method>  (1) 
confgen

>  <s_i_glide_gridfile>  (1) 
gpcr_drd2_6luq_protein_autoprepared_prepared

>  <s_lp_Force_Field>  (1) 
S-OPLS

>  <s_lp_Variant>  (1) 
DiffSBDD_7_num_sample_50-2

>  <s_m_source_file>  (1) 
generated__ligand_DiffSBDD_2026-05-06_prepared.sdf

>  <GenAI_Model>  (1) 
DiffSBDD

>  <Protein>  (1) 
generic_title2

$$$$
DiffSBDD_20_num_sample_50
     RDKit          3D

  0  0  0  0  0  0  0  0  0  0999 V3000
M  V30 BEGIN CTAB
M  V30 COUNTS 66 71 0 0 1
M  V30 BEGIN ATOM
M  V30 1 F 11.462365 9.975061 -3.797981 0
M  V30 2 F 12.867347 8.318936 -3.890454 0
M  V30 3 F 13.674829 9.372828 -6.433722 0
M  V30 4 C 8.143420 4.464956 -12.019287 0 CFG=1
M  V30 5 C 9.057863 2.671249 -17.459876 0
M  V30 6 C 9.368290 5.902326 -9.627739 0
M  V30 7 C 9.046013 5.331294 -19.527691 0
M  V30 8 C 8.293763 3.810431 -13.344987 0 CFG=1
M  V30 9 N 11.429714 8.225855 -7.696200 0
M  V30 10 C 11.362695 7.768186 -9.839798 0
M  V30 11 C 11.302270 4.593530 -18.607614 0
M  V30 12 C 8.654996 4.595640 -14.593806 0
M  V30 13 C 9.047469 6.437246 -20.287665 0
M  V30 14 N 8.634560 6.569045 -10.706173 0 CHG=1
M  V30 15 C 10.346240 6.922758 -9.118836 0
M  V30 16 C 7.046236 4.536138 -11.018491 0
M  V30 17 F 12.049306 10.771860 -6.287983 0
M  V30 18 C 10.634912 7.816868 -5.756178 0
M  V30 19 C 8.016888 4.805004 -18.567851 0 CFG=2
M  V30 20 C 9.370553 3.679102 -12.218320 0
M  V30 21 C 10.054208 4.219028 -19.412650 0 CFG=1
M  V30 22 C 10.590811 7.387063 -7.873972 0
M  V30 23 C 8.040886 5.480702 -17.204122 0
M  V30 24 C 12.458404 9.556895 -5.918903 0
M  V30 25 C 9.880246 6.917997 -6.718815 0
M  V30 26 C 7.723946 5.820026 -11.609846 0 CFG=2
M  V30 27 N 11.545075 8.561941 -6.475416 0
M  V30 28 C 8.848285 3.504776 -18.724595 0 CFG=1
M  V30 29 C 12.028980 8.584443 -8.853265 0
M  V30 30 S 7.418460 4.372843 -15.901888 0 CHG=1
M  V30 31 C 7.817682 2.704533 -16.549193 0
M  V30 32 C 12.581514 9.529487 -4.374424 0
M  V30 33 C 12.265256 5.517060 -19.360517 0
M  V30 34 H 9.271657 1.638402 -17.731732 0
M  V30 35 H 9.929562 3.012949 -16.904004 0
M  V30 36 H 8.676328 5.615710 -8.835621 0
M  V30 37 H 9.876321 5.006293 -9.966205 0
M  V30 38 H 7.694742 2.918325 -13.515886 0
M  V30 39 H 11.571020 7.774585 -10.898328 0
M  V30 40 H 11.043328 5.053191 -17.654368 0
M  V30 41 H 11.843315 3.681786 -18.349208 0
M  V30 42 H 9.627954 4.278706 -14.959691 0
M  V30 43 H 8.732773 5.654854 -14.347512 0
M  V30 44 H 8.222166 7.133723 -20.260163 0
M  V30 45 H 9.874666 6.657982 -20.948132 0
M  V30 46 H 9.285374 7.105377 -11.257926 0
M  V30 47 H 6.046023 4.286008 -11.363710 0
M  V30 48 H 7.268878 4.231669 -9.998515 0
M  V30 49 H 10.561549 7.939092 -4.691690 0
M  V30 50 H 7.005008 4.679629 -18.957293 0
M  V30 51 H 9.437857 2.710194 -11.733005 0
M  V30 52 H 10.295145 4.240039 -12.298849 0
M  V30 53 H 10.307861 3.713337 -20.346600 0
M  V30 54 H 7.436229 6.387171 -17.208270 0
M  V30 55 H 9.056496 5.768725 -16.943290 0
M  V30 56 H 9.092196 6.187832 -6.580184 0
M  V30 57 H 7.163624 6.449084 -12.298858 0
M  V30 58 H 8.345277 2.892970 -19.479391 0
M  V30 59 H 12.812281 9.325975 -8.892199 0
M  V30 60 H 6.958898 2.353953 -17.122044 0
M  V30 61 H 7.929028 2.012943 -15.716016 0
M  V30 62 H 13.390407 10.169032 -4.034909 0
M  V30 63 H 13.195456 5.640640 -18.806232 0
M  V30 64 H 12.512010 5.113226 -20.342274 0
M  V30 65 H 11.838914 6.508459 -19.501909 0
M  V30 66 H 8.014565 7.225691 -10.202984 0
M  V30 END ATOM
M  V30 BEGIN BOND
M  V30 1 1 8 4
M  V30 2 1 12 8
M  V30 3 2 13 7
M  V30 4 1 14 6
M  V30 5 1 15 6
M  V30 6 1 15 10
M  V30 7 1 4 16 CFG=1
M  V30 8 1 19 7
M  V30 9 1 20 4
M  V30 10 1 20 8
M  V30 11 1 21 7
M  V30 12 1 21 11
M  V30 13 1 22 9
M  V30 14 2 22 15
M  V30 15 1 23 19
M  V30 16 1 24 3
M  V30 17 1 24 17
M  V30 18 2 25 18
M  V30 19 1 25 22
M  V30 20 1 26 4
M  V30 21 1 26 14
M  V30 22 1 26 16
M  V30 23 1 27 9
M  V30 24 1 27 18
M  V30 25 1 27 24
M  V30 26 1 28 5
M  V30 27 1 28 19
M  V30 28 1 28 21
M  V30 29 1 29 9
M  V30 30 2 29 10
M  V30 31 1 30 12 CFG=1
M  V30 32 1 30 23
M  V30 33 1 31 5
M  V30 34 1 31 30
M  V30 35 1 32 1
M  V30 36 1 32 2
M  V30 37 1 32 24
M  V30 38 1 33 11
M  V30 39 1 34 5
M  V30 40 1 35 5
M  V30 41 1 36 6
M  V30 42 1 37 6
M  V30 43 1 8 38 CFG=3
M  V30 44 1 39 10
M  V30 45 1 40 11
M  V30 46 1 41 11
M  V30 47 1 42 12
M  V30 48 1 43 12
M  V30 49 1 44 13
M  V30 50 1 45 13
M  V30 51 1 46 14
M  V30 52 1 47 16
M  V30 53 1 48 16
M  V30 54 1 49 18
M  V30 55 1 19 50 CFG=3
M  V30 56 1 51 20
M  V30 57 1 52 20
M  V30 58 1 21 53 CFG=3
M  V30 59 1 54 23
M  V30 60 1 55 23
M  V30 61 1 56 25
M  V30 62 1 26 57 CFG=3
M  V30 63 1 28 58 CFG=3
M  V30 64 1 59 29
M  V30 65 1 60 31
M  V30 66 1 61 31
M  V30 67 1 62 32
M  V30 68 1 63 33
M  V30 69 1 64 33
M  V30 70 1 65 33
M  V30 71 1 66 14
M  V30 END BOND
M  V30 END CTAB
M  END
>  <i_epik_Tot_Q>  (1) 
2

>  <i_epik_Tot_abs_Q>  (1) 
2

>  <i_i_glide_confnum>  (1) 
117

>  <i_i_glide_lignum>  (1) 
57

>  <i_i_glide_posenum>  (1) 
236

>  <i_i_glide_rotatable_bonds>  (1) 
8

>  <i_lp_mmshare_version>  (1) 
72125

>  <i_m_source_file_index>  (1) 
21

>  <i_f3d_flags>  (1) 
0

>  <num_sample>  (1) 
50

>  <b_lp_Chiralities_Consistent>  (1) 
1

>  <r_epik_Charging_Adjusted_Penalty>  (1) 
0.37096612377333449

>  <r_epik_Ionization_Penalty>  (1) 
0.1854830618866673

>  <r_epik_Ionization_Penalty_Charging>  (1) 
0.1854830618866673

>  <r_epik_Ionization_Penalty_Neutral>  (1) 
0

>  <r_epik_State_Penalty>  (1) 
0.18548306188666719

>  <r_glide_ring_energy>  (1) 
0

>  <r_i_docking_score>  (1) 
-7.3405494338585537

>  <r_i_glide_ecoul>  (1) 
-9.6714027662552677

>  <r_i_glide_eff_state_penalty>  (1) 
0.18548306188666719

>  <r_i_glide_einternal>  (1) 
3.7789663743881059

>  <r_i_glide_emodel>  (1) 
-58.466996958246334

>  <r_i_glide_emodel_strain>  (1) 
0.13605208628661103

>  <r_i_glide_energy>  (1) 
-41.778509644707029

>  <r_i_glide_erotb>  (1) 
0.52081538215961176

>  <r_i_glide_esite>  (1) 
-0.083228113443839763

>  <r_i_glide_evdw>  (1) 
-32.107106878451759

>  <r_i_glide_gscore>  (1) 
-7.5260324957452207

>  <r_i_glide_gscore_strain>  (1) 
0

>  <r_i_glide_hbond>  (1) 
-0.17427994310172695

>  <r_i_glide_ligand_efficiency>  (1) 
-0.22244089193510769

>  <r_i_glide_ligand_efficiency_ln>  (1) 
-1.6325001867592823

>  <r_i_glide_ligand_efficiency_sa>  (1) 
-0.71348679727674968

>  <r_i_glide_lipo>  (1) 
-2.3455999030693988

>  <r_i_glide_metal>  (1) 
-0

>  <r_i_glide_rewards>  (1) 
-2.3876741594289896

>  <r_lp_Energy>  (1) 
12.133251999999999

>  <s_epik_cmdline>  (1) 
J2VwaWtfcHl0aG9uJywgJy1waHQnLCAnMS4wJywgJy1waCcsICc3LjQnLCAnLXRuJywgJzgnLCAnLW1hJywgJzUwMCcsICctaW1hZScsICc8aW5maWxlLm1hZT4nLCAnLW9tYWUnLCAnPG91dGZpbGUubWFlPic=

>  <s_epik_input>  (1) 
RltDSF0oRilDKEYpKEYpbjFbY0hdW2NIXWMobjEyKWMoW2NIXVtjSF0yKVtDSDJdW05IXVtDQEBIXTNbQ0gyXVtDQF0zNFtDQEhdKFtDSDJdNClbQ0gyXVtTK10oW0NIMl01KVtDSDJdW0NIMl1bQ0BASF0oW0NAQEhdNTYpW0NAQEhdKEM2PVtDSDJdKVtDSDJdW0NIM10=

>  <s_glide_docking_method>  (1) 
confgen

>  <s_i_glide_gridfile>  (1) 
gpcr_drd2_6luq_protein_autoprepared_prepared

>  <s_lp_Force_Field>  (1) 
S-OPLS

>  <s_lp_Variant>  (1) 
DiffSBDD_20_num_sample_50-1

>  <s_m_source_file>  (1) 
generated__ligand_DiffSBDD_2026-05-06_prepared.sdf

>  <GenAI_Model>  (1) 
DiffSBDD

>  <Protein>  (1) 
generic_title2

$$$$
DiffSBDD_20_num_sample_50
     RDKit          3D

  0  0  0  0  0  0  0  0  0  0999 V3000
M  V30 BEGIN CTAB
M  V30 COUNTS 66 71 0 0 1
M  V30 BEGIN ATOM
M  V30 1 F 12.233811 7.790003 -4.261132 0
M  V30 2 F 12.998871 9.769353 -3.831913 0
M  V30 3 F 13.348486 9.368453 -6.455240 0
M  V30 4 C 8.029575 4.683944 -12.387537 0 CFG=1
M  V30 5 C 10.217951 3.117512 -17.448512 0
M  V30 6 C 9.490910 6.124510 -10.390454 0
M  V30 7 C 9.887397 5.748375 -19.553393 0
M  V30 8 C 8.250247 3.970189 -13.677190 0 CFG=1
M  V30 9 N 11.331203 8.202040 -8.020131 0
M  V30 10 C 11.631790 7.785301 -10.157466 0
M  V30 11 C 11.882054 5.801494 -17.939214 0
M  V30 12 C 8.693604 4.727825 -14.910760 0
M  V30 13 C 9.726212 6.774742 -20.403825 0
M  V30 14 N 8.436448 6.847672 -11.105451 0 CHG=1
M  V30 15 C 10.422075 7.041098 -9.672404 0
M  V30 16 C 6.889484 4.807288 -11.428756 0
M  V30 17 F 11.622642 10.650877 -6.175781 0
M  V30 18 C 10.130147 7.841972 -6.284743 0
M  V30 19 C 8.873299 4.882575 -18.863710 0 CFG=2
M  V30 20 C 9.287403 3.894956 -12.521185 0
M  V30 21 C 11.138470 5.065851 -19.061511 0 CFG=1
M  V30 22 C 10.466132 7.451812 -8.386129 0
M  V30 23 C 8.297648 5.477338 -17.587275 0
M  V30 24 C 12.093111 9.415780 -6.011401 0
M  V30 25 C 9.507300 7.028296 -7.409881 0
M  V30 26 C 7.589401 6.071932 -12.051799 0 CFG=2
M  V30 27 N 11.236898 8.503232 -6.780790 0
M  V30 28 C 10.104089 3.944885 -18.726842 0 CFG=1
M  V30 29 C 12.171009 8.523625 -9.032609 0
M  V30 30 S 7.812968 4.180202 -16.402171 0 CHG=1
M  V30 31 C 8.831925 2.738566 -16.893199 0
M  V30 32 C 12.071500 9.090674 -4.496956 0
M  V30 33 C 12.567071 7.092662 -18.402964 0
M  V30 34 H 10.782161 2.207640 -17.649984 0
M  V30 35 H 10.799684 3.641635 -16.694207 0
M  V30 36 H 9.110886 5.310524 -9.768278 0
M  V30 37 H 10.167874 5.735060 -11.132500 0
M  V30 38 H 7.738543 3.029708 -13.860454 0
M  V30 39 H 12.040447 7.777133 -11.161914 0
M  V30 40 H 11.236137 6.020436 -17.089589 0
M  V30 41 H 12.656227 5.142183 -17.543690 0
M  V30 42 H 9.771024 4.618780 -15.049035 0
M  V30 43 H 8.516500 5.791152 -14.743282 0
M  V30 44 H 8.740743 7.120338 -20.680131 0
M  V30 45 H 10.577739 7.272378 -20.844151 0
M  V30 46 H 8.853357 7.603387 -11.627857 0
M  V30 47 H 5.879683 4.591313 -11.776515 0
M  V30 48 H 7.049960 4.595906 -10.373346 0
M  V30 49 H 9.851540 7.961231 -5.251117 0
M  V30 50 H 8.106542 4.435396 -19.499277 0
M  V30 51 H 9.382761 2.982086 -11.938284 0
M  V30 52 H 10.225680 4.398129 -12.743874 0
M  V30 53 H 11.822676 4.734928 -19.845340 0
M  V30 54 H 7.422676 6.096589 -17.794462 0
M  V30 55 H 9.021672 6.126939 -17.100233 0
M  V30 56 H 8.643145 6.370792 -7.457109 0
M  V30 57 H 6.995984 6.683576 -12.729553 0
M  V30 58 H 10.071462 3.264286 -19.578066 0
M  V30 59 H 13.011692 9.184196 -8.898440 0
M  V30 60 H 8.284021 2.191961 -17.660558 0
M  V30 61 H 8.923731 2.055599 -16.048285 0
M  V30 62 H 11.124157 9.369104 -4.037100 0
M  V30 63 H 13.160021 7.534664 -17.600307 0
M  V30 64 H 13.231651 6.902540 -19.246315 0
M  V30 65 H 11.835548 7.837675 -18.714419 0
M  V30 66 H 7.834862 7.289404 -10.390016 0
M  V30 END ATOM
M  V30 BEGIN BOND
M  V30 1 1 8 4
M  V30 2 1 12 8
M  V30 3 2 13 7
M  V30 4 1 14 6
M  V30 5 1 15 6
M  V30 6 1 15 10
M  V30 7 1 4 16 CFG=1
M  V30 8 1 19 7
M  V30 9 1 20 4
M  V30 10 1 20 8
M  V30 11 1 21 7
M  V30 12 1 21 11
M  V30 13 1 22 9
M  V30 14 2 22 15
M  V30 15 1 23 19
M  V30 16 1 24 3
M  V30 17 1 24 17
M  V30 18 2 25 18
M  V30 19 1 25 22
M  V30 20 1 26 4
M  V30 21 1 26 14
M  V30 22 1 26 16
M  V30 23 1 27 9
M  V30 24 1 27 18
M  V30 25 1 27 24
M  V30 26 1 28 5
M  V30 27 1 28 19
M  V30 28 1 28 21
M  V30 29 1 29 9
M  V30 30 2 29 10
M  V30 31 1 30 12 CFG=1
M  V30 32 1 30 23
M  V30 33 1 31 5
M  V30 34 1 31 30
M  V30 35 1 32 1
M  V30 36 1 32 2
M  V30 37 1 32 24
M  V30 38 1 33 11
M  V30 39 1 34 5
M  V30 40 1 35 5
M  V30 41 1 36 6
M  V30 42 1 37 6
M  V30 43 1 8 38 CFG=3
M  V30 44 1 39 10
M  V30 45 1 40 11
M  V30 46 1 41 11
M  V30 47 1 42 12
M  V30 48 1 43 12
M  V30 49 1 44 13
M  V30 50 1 45 13
M  V30 51 1 46 14
M  V30 52 1 47 16
M  V30 53 1 48 16
M  V30 54 1 49 18
M  V30 55 1 19 50 CFG=3
M  V30 56 1 51 20
M  V30 57 1 52 20
M  V30 58 1 21 53 CFG=3
M  V30 59 1 54 23
M  V30 60 1 55 23
M  V30 61 1 56 25
M  V30 62 1 26 57 CFG=3
M  V30 63 1 28 58 CFG=3
M  V30 64 1 59 29
M  V30 65 1 60 31
M  V30 66 1 61 31
M  V30 67 1 62 32
M  V30 68 1 63 33
M  V30 69 1 64 33
M  V30 70 1 65 33
M  V30 71 1 66 14
M  V30 END BOND
M  V30 END CTAB
M  END
>  <i_epik_Tot_Q>  (1) 
2

>  <i_epik_Tot_abs_Q>  (1) 
2

>  <i_i_glide_confnum>  (1) 
117

>  <i_i_glide_lignum>  (1) 
57

>  <i_i_glide_posenum>  (1) 
236

>  <i_i_glide_rotatable_bonds>  (1) 
8

>  <i_lp_mmshare_version>  (1) 
72125

>  <i_m_source_file_index>  (1) 
21

>  <i_f3d_flags>  (1) 
0

>  <num_sample>  (1) 
50

>  <b_lp_Chiralities_Consistent>  (1) 
1

>  <r_epik_Charging_Adjusted_Penalty>  (1) 
0.37096612377333449

>  <r_epik_Ionization_Penalty>  (1) 
0.1854830618866673

>  <r_epik_Ionization_Penalty_Charging>  (1) 
0.1854830618866673

>  <r_epik_Ionization_Penalty_Neutral>  (1) 
0

>  <r_epik_State_Penalty>  (1) 
0.18548306188666719

>  <r_glide_ring_energy>  (1) 
0

>  <r_i_docking_score>  (1) 
-7.1975992616823952

>  <r_i_glide_ecoul>  (1) 
-9.9506815509456796

>  <r_i_glide_eff_state_penalty>  (1) 
0.18548306188666719

>  <r_i_glide_einternal>  (1) 
3.0859958513665582

>  <r_i_glide_emodel>  (1) 
-57.641533487403727

>  <r_i_glide_emodel_strain>  (1) 
1.9038170081771568

>  <r_i_glide_energy>  (1) 
-42.729781747095409

>  <r_i_glide_erotb>  (1) 
0.52081538215961176

>  <r_i_glide_esite>  (1) 
-0.10000000000000001

>  <r_i_glide_evdw>  (1) 
-32.779100196149727

>  <r_i_glide_gscore>  (1) 
-7.3830823235690621

>  <r_i_glide_gscore_strain>  (1) 
0

>  <r_i_glide_hbond>  (1) 
-0.15574527911881247

>  <r_i_glide_ligand_efficiency>  (1) 
-0.21810906853583015

>  <r_i_glide_ligand_efficiency_ln>  (1) 
-1.600708808623684

>  <r_i_glide_ligand_efficiency_sa>  (1) 
-0.69959232501208779

>  <r_i_glide_lipo>  (1) 
-2.3536137442517502

>  <r_i_glide_metal>  (1) 
-0

>  <r_i_glide_rewards>  (1) 
-2.1629814399087723

>  <r_lp_Energy>  (1) 
12.133251999999999

>  <s_epik_cmdline>  (1) 
J2VwaWtfcHl0aG9uJywgJy1waHQnLCAnMS4wJywgJy1waCcsICc3LjQnLCAnLXRuJywgJzgnLCAnLW1hJywgJzUwMCcsICctaW1hZScsICc8aW5maWxlLm1hZT4nLCAnLW9tYWUnLCAnPG91dGZpbGUubWFlPic=

>  <s_epik_input>  (1) 
RltDSF0oRilDKEYpKEYpbjFbY0hdW2NIXWMobjEyKWMoW2NIXVtjSF0yKVtDSDJdW05IXVtDQEBIXTNbQ0gyXVtDQF0zNFtDQEhdKFtDSDJdNClbQ0gyXVtTK10oW0NIMl01KVtDSDJdW0NIMl1bQ0BASF0oW0NAQEhdNTYpW0NAQEhdKEM2PVtDSDJdKVtDSDJdW0NIM10=

>  <s_glide_docking_method>  (1) 
confgen

>  <s_i_glide_gridfile>  (1) 
gpcr_drd2_6luq_protein_autoprepared_prepared

>  <s_lp_Force_Field>  (1) 
S-OPLS

>  <s_lp_Variant>  (1) 
DiffSBDD_20_num_sample_50-1

>  <s_m_source_file>  (1) 
generated__ligand_DiffSBDD_2026-05-06_prepared.sdf

>  <GenAI_Model>  (1) 
DiffSBDD

>  <Protein>  (1) 
generic_title2

$$$$
DiffSBDD_18_num_sample_50
     RDKit          3D

  0  0  0  0  0  0  0  0  0  0999 V3000
M  V30 BEGIN CTAB
M  V30 COUNTS 58 61 0 0 1
M  V30 BEGIN ATOM
M  V30 1 C 5.630815 6.704845 -15.605331 0
M  V30 2 C 12.082663 8.154142 -8.656259 0 CFG=2
M  V30 3 C 7.588487 4.326742 -17.921892 0
M  V30 4 C 5.260737 7.369296 -17.921434 0
M  V30 5 C 5.034771 7.561624 -16.546511 0
M  V30 6 C 9.434759 6.169196 -8.650407 0
M  V30 7 O 11.275514 7.028897 -11.451415 0
M  V30 8 C 9.638450 6.414149 -9.919223 0
M  V30 9 C 7.090761 4.717698 -14.997313 0 CFG=2
M  V30 10 S 10.743890 8.765531 -6.228039 0
M  V30 11 C 8.985204 5.769389 -7.492028 0
M  V30 12 C 10.982303 8.578592 -9.638970 0
M  V30 13 C 8.953740 5.574239 -10.983829 0
M  V30 14 C 9.301606 6.465895 -6.187757 0
M  V30 15 C 8.142824 5.498130 -14.180165 0
M  V30 16 C 10.507126 6.660224 -12.576597 0
M  V30 17 N 10.415520 7.473262 -10.393288 0
M  V30 18 C 7.596853 3.397149 -15.612280 0
M  V30 19 C 12.071049 9.060767 -7.412470 0
M  V30 20 O 13.354617 8.249511 -9.274347 0
M  V30 21 C 6.090946 6.323467 -18.360621 0
M  V30 22 C 6.696460 5.460193 -17.426075 0
M  V30 23 C 6.459993 5.649152 -16.033793 0
M  V30 24 C 9.837138 5.336967 -12.202058 0 CFG=2
M  V30 25 C 10.721849 6.979395 -5.942397 0
M  V30 26 C 8.448222 3.667193 -16.844363 0
M  V30 27 C 9.079338 4.623920 -13.329575 0
M  V30 28 H 5.449240 6.855831 -14.550585 0
M  V30 29 H 11.963406 7.114593 -8.378156 0
M  V30 30 H 6.936440 3.574753 -18.368363 0
M  V30 31 H 8.227763 4.695226 -18.724344 0
M  V30 32 H 4.797741 8.029343 -18.641187 0
M  V30 33 H 4.399126 8.368361 -16.212565 0
M  V30 34 H 6.298222 4.440895 -14.299863 0
M  V30 35 H 8.272604 4.965290 -7.438336 0
M  V30 36 H 10.144706 9.017154 -9.095338 0
M  V30 37 H 11.369036 9.357242 -10.291683 0
M  V30 38 H 8.656225 4.611810 -10.562870 0
M  V30 39 H 8.030739 6.085435 -11.260974 0
M  V30 40 H 9.059926 5.770940 -5.391812 0
M  V30 41 H 8.584793 7.278428 -6.094678 0
M  V30 42 H 7.627972 6.221144 -13.546923 0
M  V30 43 H 8.743794 6.085930 -14.870281 0
M  V30 44 H 9.762847 7.441677 -12.732055 0
M  V30 45 H 11.144781 6.560502 -13.455627 0
M  V30 46 H 8.134189 2.779929 -14.894961 0
M  V30 47 H 6.738445 2.793127 -15.908555 0
M  V30 48 H 13.026198 9.043469 -6.887870 0
M  V30 49 H 11.834827 10.080081 -7.716584 0
M  V30 50 H 13.541497 9.155794 -9.491924 0
M  V30 51 H 6.263331 6.181214 -19.417643 0
M  V30 52 H 10.624841 4.649628 -11.891926 0
M  V30 53 H 11.478971 6.412747 -6.478468 0
M  V30 54 H 10.964744 6.840785 -4.888540 0
M  V30 55 H 8.887370 2.744366 -17.223260 0
M  V30 56 H 9.280281 4.320560 -16.578295 0
M  V30 57 H 9.816663 4.172131 -13.986509 0
M  V30 58 H 8.518539 3.798693 -12.888627 0
M  V30 END ATOM
M  V30 BEGIN BOND
M  V30 1 1 5 1
M  V30 2 2 5 4
M  V30 3 2 8 6
M  V30 4 2 11 6
M  V30 5 1 12 2
M  V30 6 1 13 8
M  V30 7 1 14 11
M  V30 8 1 15 9
M  V30 9 1 16 7
M  V30 10 1 17 7
M  V30 11 1 17 8
M  V30 12 1 17 12
M  V30 13 1 18 9
M  V30 14 1 19 2
M  V30 15 1 19 10
M  V30 16 1 20 2
M  V30 17 1 21 4
M  V30 18 1 22 3
M  V30 19 2 22 21
M  V30 20 2 23 1
M  V30 21 1 23 9
M  V30 22 1 23 22
M  V30 23 1 24 13
M  V30 24 1 24 16
M  V30 25 1 25 10
M  V30 26 1 25 14
M  V30 27 1 26 3
M  V30 28 1 26 18
M  V30 29 1 27 15
M  V30 30 1 27 24
M  V30 31 1 28 1
M  V30 32 1 2 29 CFG=1
M  V30 33 1 30 3
M  V30 34 1 31 3
M  V30 35 1 32 4
M  V30 36 1 33 5
M  V30 37 1 9 34 CFG=1
M  V30 38 1 35 11
M  V30 39 1 36 12
M  V30 40 1 37 12
M  V30 41 1 38 13
M  V30 42 1 39 13
M  V30 43 1 40 14
M  V30 44 1 41 14
M  V30 45 1 42 15
M  V30 46 1 43 15
M  V30 47 1 44 16
M  V30 48 1 45 16
M  V30 49 1 46 18
M  V30 50 1 47 18
M  V30 51 1 48 19
M  V30 52 1 49 19
M  V30 53 1 50 20
M  V30 54 1 51 21
M  V30 55 1 24 52 CFG=1
M  V30 56 1 53 25
M  V30 57 1 54 25
M  V30 58 1 55 26
M  V30 59 1 56 26
M  V30 60 1 57 27
M  V30 61 1 58 27
M  V30 END BOND
M  V30 END CTAB
M  END
>  <i_epik_Tot_Q>  (1) 
0

>  <i_epik_Tot_abs_Q>  (1) 
0

>  <i_i_glide_confnum>  (1) 
8

>  <i_i_glide_lignum>  (1) 
54

>  <i_i_glide_posenum>  (1) 
78

>  <i_i_glide_rotatable_bonds>  (1) 
4

>  <i_lp_mmshare_version>  (1) 
72125

>  <i_m_source_file_index>  (1) 
19

>  <i_f3d_flags>  (1) 
0

>  <num_sample>  (1) 
50

>  <b_lp_Chiralities_Consistent>  (1) 
1

>  <r_epik_Charging_Adjusted_Penalty>  (1) 
0

>  <r_epik_Ionization_Penalty>  (1) 
0.00079685504618355781

>  <r_epik_Ionization_Penalty_Charging>  (1) 
0

>  <r_epik_Ionization_Penalty_Neutral>  (1) 
0.00079685504618355781

>  <r_epik_State_Penalty>  (1) 
-0

>  <r_glide_ring_energy>  (1) 
0.85507922053399688

>  <r_i_docking_score>  (1) 
-7.1100723541724351

>  <r_i_glide_ecoul>  (1) 
-5.3042202095978794

>  <r_i_glide_eff_state_penalty>  (1) 
-0

>  <r_i_glide_einternal>  (1) 
4.4491546230756285

>  <r_i_glide_emodel>  (1) 
-38.679121294850816

>  <r_i_glide_emodel_strain>  (1) 
2.9252212001113378

>  <r_i_glide_energy>  (1) 
-35.190358538522055

>  <r_i_glide_erotb>  (1) 
0.39257817709614257

>  <r_i_glide_esite>  (1) 
-0.038165179816158717

>  <r_i_glide_evdw>  (1) 
-29.886138328924176

>  <r_i_glide_gscore>  (1) 
-7.1100723541724351

>  <r_i_glide_gscore_strain>  (1) 
0

>  <r_i_glide_hbond>  (1) 
-0.32000000000000001

>  <r_i_glide_ligand_efficiency>  (1) 
-0.2633360131174976

>  <r_i_glide_ligand_efficiency_ln>  (1) 
-1.6551076253474448

>  <r_i_glide_ligand_efficiency_sa>  (1) 
-0.79000803935249297

>  <r_i_glide_lipo>  (1) 
-3.1743614490210721

>  <r_i_glide_metal>  (1) 
-0

>  <r_i_glide_rewards>  (1) 
-1.680183954545456

>  <r_lp_Energy>  (1) 
7.009665

>  <r_lp_tautomer_probability>  (1) 
1

>  <s_epik_Chemistry_Notes>  (1) 
This compound has a N-S or N-O group and may undergo hydrolysis at high or low pH.

>  <s_epik_cmdline>  (1) 
J2VwaWtfcHl0aG9uJywgJy1waHQnLCAnMS4wJywgJy1waCcsICc3LjQnLCAnLXRuJywgJzgnLCAnLW1hJywgJzUwMCcsICctaW1hZScsICc8aW5maWxlLm1hZT4nLCAnLW9tYWUnLCAnPG91dGZpbGUubWFlPic=

>  <s_epik_input>  (1) 
W2NIXTFbY0hdW2NIXVtjSF1jKGMxMilbQ0BASF0oW0NIMl1bQ0gyXVtDSDJdMilbQ0gyXVtDSDJdW0NASF0oW0NIMl0zKVtDSDJdT04oQzM0KVtDSDJdW0NAQEhdKFtPSF0pW0NIMl1TW0NIMl1bQ0gyXVtDSF09Qz00

>  <s_glide_docking_method>  (1) 
confgen

>  <s_i_glide_gridfile>  (1) 
gpcr_drd2_6luq_protein_autoprepared_prepared

>  <s_lp_Force_Field>  (1) 
S-OPLS

>  <s_lp_Variant>  (1) 
DiffSBDD_18_num_sample_50-1

>  <s_m_source_file>  (1) 
generated__ligand_DiffSBDD_2026-05-06_prepared.sdf

>  <GenAI_Model>  (1) 
DiffSBDD

>  <Protein>  (1) 
generic_title2

$$$$
DiffSBDD_20_num_sample_50
     RDKit          3D

  0  0  0  0  0  0  0  0  0  0999 V3000
M  V30 BEGIN CTAB
M  V30 COUNTS 66 71 0 0 1
M  V30 BEGIN ATOM
M  V30 1 F 12.234842 7.808214 -4.193111 0
M  V30 2 F 13.066175 9.769303 -3.768954 0
M  V30 3 F 13.421844 9.369302 -6.352658 0
M  V30 4 C 7.896413 5.033135 -12.449108 0 CFG=1
M  V30 5 C 9.606400 2.695519 -17.436503 0
M  V30 6 C 9.654550 6.262316 -10.444458 0
M  V30 7 C 9.890713 5.106686 -19.752316 0
M  V30 8 C 7.887644 4.273004 -13.728457 0 CFG=1
M  V30 9 N 11.444248 8.273226 -7.965401 0
M  V30 10 C 11.841449 7.859051 -10.082988 0
M  V30 11 C 12.122323 4.310297 -18.766989 0
M  V30 12 C 8.451266 4.905030 -14.989099 0
M  V30 13 C 10.070642 6.236352 -20.453462 0
M  V30 14 N 8.634838 7.092256 -11.091668 0 CHG=1
M  V30 15 C 10.587321 7.145092 -9.668617 0
M  V30 16 C 6.763964 5.482711 -11.612068 0
M  V30 17 F 11.740786 10.704649 -6.102421 0
M  V30 18 C 10.152055 7.952374 -6.291675 0
M  V30 19 C 8.694274 4.611783 -18.986062 0 CFG=2
M  V30 20 C 8.849752 3.901449 -12.556551 0
M  V30 21 C 10.821107 3.945560 -19.507092 0 CFG=1
M  V30 22 C 10.576172 7.554343 -8.377312 0
M  V30 23 C 8.404420 5.412798 -17.728701 0
M  V30 24 C 12.158314 9.451122 -5.935161 0
M  V30 25 C 9.551060 7.167848 -7.448506 0
M  V30 26 C 7.824430 6.495930 -12.182683 0 CFG=2
M  V30 27 N 11.301690 8.574128 -6.736827 0
M  V30 28 C 9.558321 3.337988 -18.823546 0 CFG=1
M  V30 29 C 12.342691 8.569300 -8.930202 0
M  V30 30 S 7.551109 4.397856 -16.480769 0 CHG=1
M  V30 31 C 8.223261 2.715846 -16.759863 0
M  V30 32 C 12.113458 9.115424 -4.428748 0
M  V30 33 C 12.041500 5.361758 -17.644132 0
M  V30 34 H 9.946928 1.663228 -17.523720 0
M  V30 35 H 10.333021 3.183302 -16.793059 0
M  V30 36 H 9.203079 5.503029 -9.804835 0
M  V30 37 H 10.234838 5.763872 -11.213759 0
M  V30 38 H 7.034360 3.613447 -13.880417 0
M  V30 39 H 12.301249 7.853197 -11.059906 0
M  V30 40 H 12.568823 3.402256 -18.361430 0
M  V30 41 H 12.841943 4.676821 -19.499552 0
M  V30 42 H 9.510803 4.665613 -15.085196 0
M  V30 43 H 8.371796 5.989048 -14.907275 0
M  V30 44 H 9.285156 6.972898 -20.533496 0
M  V30 45 H 11.006226 6.436821 -20.955226 0
M  V30 46 H 9.094229 7.914203 -11.451919 0
M  V30 47 H 5.774556 5.474218 -12.065187 0
M  V30 48 H 6.791542 5.242449 -10.550387 0
M  V30 49 H 9.834837 8.077288 -5.268880 0
M  V30 50 H 7.798720 4.402735 -19.573047 0
M  V30 51 H 8.634826 2.992937 -11.998189 0
M  V30 52 H 9.904970 4.116500 -12.700772 0
M  V30 53 H 11.046456 3.356703 -20.397545 0
M  V30 54 H 7.810329 6.300173 -17.946818 0
M  V30 55 H 9.333819 5.769406 -17.291390 0
M  V30 56 H 8.666355 6.548271 -7.538414 0
M  V30 57 H 7.481711 7.205085 -12.933318 0
M  V30 58 H 9.146904 2.603648 -19.520450 0
M  V30 59 H 13.196040 9.201409 -8.747582 0
M  V30 60 H 7.518093 2.185092 -17.400442 0
M  V30 61 H 8.242929 2.173996 -15.813605 0
M  V30 62 H 11.168782 9.428631 -3.986137 0
M  V30 63 H 13.037195 5.557521 -17.245432 0
M  V30 64 H 11.657084 6.314855 -18.007117 0
M  V30 65 H 11.429907 5.041133 -16.804878 0
M  V30 66 H 7.971108 7.403728 -10.365046 0
M  V30 END ATOM
M  V30 BEGIN BOND
M  V30 1 1 8 4
M  V30 2 1 12 8
M  V30 3 2 13 7
M  V30 4 1 14 6
M  V30 5 1 15 6
M  V30 6 1 15 10
M  V30 7 1 4 16 CFG=1
M  V30 8 1 19 7
M  V30 9 1 20 4
M  V30 10 1 20 8
M  V30 11 1 21 7
M  V30 12 1 21 11
M  V30 13 1 22 9
M  V30 14 2 22 15
M  V30 15 1 23 19
M  V30 16 1 24 3
M  V30 17 1 24 17
M  V30 18 2 25 18
M  V30 19 1 25 22
M  V30 20 1 26 4
M  V30 21 1 26 14
M  V30 22 1 26 16
M  V30 23 1 27 9
M  V30 24 1 27 18
M  V30 25 1 27 24
M  V30 26 1 28 5
M  V30 27 1 28 19
M  V30 28 1 28 21
M  V30 29 1 29 9
M  V30 30 2 29 10
M  V30 31 1 30 12 CFG=1
M  V30 32 1 30 23
M  V30 33 1 31 5
M  V30 34 1 31 30
M  V30 35 1 32 1
M  V30 36 1 32 2
M  V30 37 1 32 24
M  V30 38 1 33 11
M  V30 39 1 34 5
M  V30 40 1 35 5
M  V30 41 1 36 6
M  V30 42 1 37 6
M  V30 43 1 8 38 CFG=3
M  V30 44 1 39 10
M  V30 45 1 40 11
M  V30 46 1 41 11
M  V30 47 1 42 12
M  V30 48 1 43 12
M  V30 49 1 44 13
M  V30 50 1 45 13
M  V30 51 1 46 14
M  V30 52 1 47 16
M  V30 53 1 48 16
M  V30 54 1 49 18
M  V30 55 1 19 50 CFG=3
M  V30 56 1 51 20
M  V30 57 1 52 20
M  V30 58 1 21 53 CFG=3
M  V30 59 1 54 23
M  V30 60 1 55 23
M  V30 61 1 56 25
M  V30 62 1 26 57 CFG=3
M  V30 63 1 28 58 CFG=3
M  V30 64 1 59 29
M  V30 65 1 60 31
M  V30 66 1 61 31
M  V30 67 1 62 32
M  V30 68 1 63 33
M  V30 69 1 64 33
M  V30 70 1 65 33
M  V30 71 1 66 14
M  V30 END BOND
M  V30 END CTAB
M  END
>  <i_epik_Tot_Q>  (1) 
2

>  <i_epik_Tot_abs_Q>  (1) 
2

>  <i_i_glide_confnum>  (1) 
117

>  <i_i_glide_lignum>  (1) 
57

>  <i_i_glide_posenum>  (1) 
236

>  <i_i_glide_rotatable_bonds>  (1) 
8

>  <i_lp_mmshare_version>  (1) 
72125

>  <i_m_source_file_index>  (1) 
21

>  <i_f3d_flags>  (1) 
0

>  <num_sample>  (1) 
50

>  <b_lp_Chiralities_Consistent>  (1) 
1

>  <r_epik_Charging_Adjusted_Penalty>  (1) 
0.37096612377333449

>  <r_epik_Ionization_Penalty>  (1) 
0.1854830618866673

>  <r_epik_Ionization_Penalty_Charging>  (1) 
0.1854830618866673

>  <r_epik_Ionization_Penalty_Neutral>  (1) 
0

>  <r_epik_State_Penalty>  (1) 
0.18548306188666719

>  <r_glide_ring_energy>  (1) 
0

>  <r_i_docking_score>  (1) 
-7.1006691674422919

>  <r_i_glide_ecoul>  (1) 
-9.3930028462378203

>  <r_i_glide_eff_state_penalty>  (1) 
0.18548306188666719

>  <r_i_glide_einternal>  (1) 
3.0806650794130164

>  <r_i_glide_emodel>  (1) 
-57.996954564481257

>  <r_i_glide_emodel_strain>  (1) 
0.43433907866375421

>  <r_i_glide_energy>  (1) 
-41.85408317872362

>  <r_i_glide_erotb>  (1) 
0.52081538215961176

>  <r_i_glide_esite>  (1) 
-0.10000000000000001

>  <r_i_glide_evdw>  (1) 
-32.4610803324858

>  <r_i_glide_gscore>  (1) 
-7.2861522293289589

>  <r_i_glide_gscore_strain>  (1) 
0

>  <r_i_glide_hbond>  (1) 
-0.17297560754078384

>  <r_i_glide_ligand_efficiency>  (1) 
-0.21517179295279673

>  <r_i_glide_ligand_efficiency_ln>  (1) 
-1.5791520575418532

>  <r_i_glide_ligand_efficiency_sa>  (1) 
-0.69017091274284958

>  <r_i_glide_lipo>  (1) 
-2.2626551835045192

>  <r_i_glide_metal>  (1) 
-0

>  <r_i_glide_rewards>  (1) 
-2.2393323768833033

>  <r_lp_Energy>  (1) 
12.133251999999999

>  <s_epik_cmdline>  (1) 
J2VwaWtfcHl0aG9uJywgJy1waHQnLCAnMS4wJywgJy1waCcsICc3LjQnLCAnLXRuJywgJzgnLCAnLW1hJywgJzUwMCcsICctaW1hZScsICc8aW5maWxlLm1hZT4nLCAnLW9tYWUnLCAnPG91dGZpbGUubWFlPic=

>  <s_epik_input>  (1) 
RltDSF0oRilDKEYpKEYpbjFbY0hdW2NIXWMobjEyKWMoW2NIXVtjSF0yKVtDSDJdW05IXVtDQEBIXTNbQ0gyXVtDQF0zNFtDQEhdKFtDSDJdNClbQ0gyXVtTK10oW0NIMl01KVtDSDJdW0NIMl1bQ0BASF0oW0NAQEhdNTYpW0NAQEhdKEM2PVtDSDJdKVtDSDJdW0NIM10=

>  <s_glide_docking_method>  (1) 
confgen

>  <s_i_glide_gridfile>  (1) 
gpcr_drd2_6luq_protein_autoprepared_prepared

>  <s_lp_Force_Field>  (1) 
S-OPLS

>  <s_lp_Variant>  (1) 
DiffSBDD_20_num_sample_50-1

>  <s_m_source_file>  (1) 
generated__ligand_DiffSBDD_2026-05-06_prepared.sdf

>  <GenAI_Model>  (1) 
DiffSBDD

>  <Protein>  (1) 
generic_title2

$$$$
DiffSBDD_13_num_sample_50
     RDKit          3D

  0  0  0  0  0  0  0  0  0  0999 V3000
M  V30 BEGIN CTAB
M  V30 COUNTS 46 50 0 0 1
M  V30 BEGIN ATOM
M  V30 1 C 9.583263 5.833950 -9.981024 0
M  V30 2 N 6.994453 6.888938 -11.891666 0 CFG=2 CHG=1
M  V30 3 C 12.209073 7.030761 -2.291411 0
M  V30 4 C 11.434839 7.008428 -4.602441 0
M  V30 5 C 9.434841 8.244135 -10.190101 0
M  V30 6 C 11.746946 8.407621 -4.670794 0
M  V30 7 C 10.129665 5.999342 -8.691738 0
M  V30 8 C 6.417140 4.497656 -14.281473 0
M  V30 9 C 11.672144 6.375006 -3.379159 0
M  V30 10 C 7.017338 3.824297 -13.044792 0
M  V30 11 O 8.634819 7.933846 -12.691667 0 CHG=-1
M  V30 12 C 6.013395 5.819584 -11.713263 0 CFG=1
M  V30 13 O 13.034830 8.969303 -1.274838 0
M  V30 14 C 10.003389 8.401633 -8.930924 0
M  V30 15 S 11.359521 9.017874 -6.241851 0
M  V30 16 C 6.041301 6.641549 -12.984009 0 CFG=2
M  V30 17 C 8.470803 6.808905 -12.071660 0 CFG=1
M  V30 18 C 10.925237 6.487541 -5.854838 0
M  V30 19 C 9.192358 6.958693 -10.719463 0
M  V30 20 C 12.517472 8.369756 -2.362223 0
M  V30 21 C 10.835509 7.460457 -6.799860 0
M  V30 22 C 6.573305 6.024993 -14.274600 0
M  V30 23 C 10.329912 7.295168 -8.155226 0
M  V30 24 C 6.368459 4.341082 -11.744105 0
M  V30 25 Cl 9.423867 4.256249 -10.646114 0
M  V30 26 C 12.285359 9.083733 -3.556225 0
M  V30 27 H 12.387306 6.485924 -1.381035 0
M  V30 28 H 9.118907 9.110936 -10.736492 0
M  V30 29 H 10.400891 5.128084 -8.115635 0
M  V30 30 H 5.358307 4.257296 -14.291677 0
M  V30 31 H 6.849099 4.075046 -15.189741 0
M  V30 32 H 11.437533 5.369298 -3.285486 0
M  V30 33 H 6.858939 2.746611 -13.108572 0
M  V30 34 H 8.096899 3.939889 -13.046713 0
M  V30 35 H 5.347771 6.126768 -10.907608 0
M  V30 36 H 13.358714 9.865251 -1.400305 0
M  V30 37 H 10.141428 9.369288 -8.542384 0
M  V30 38 H 5.417448 7.526620 -13.078625 0
M  V30 39 H 8.771044 5.884625 -12.541069 0
M  V30 40 H 10.642725 5.465761 -6.002015 0
M  V30 41 H 7.598665 6.325877 -14.482671 0
M  V30 42 H 5.987623 6.429751 -15.100870 0
M  V30 43 H 6.907949 4.072467 -10.843629 0
M  V30 44 H 5.422928 3.813248 -11.640320 0
M  V30 45 H 12.518655 10.132883 -3.620476 0
M  V30 46 H 6.754573 7.665474 -11.283643 0
M  V30 END ATOM
M  V30 BEGIN BOND
M  V30 1 2 6 4
M  V30 2 1 7 1
M  V30 3 2 9 3
M  V30 4 1 9 4
M  V30 5 1 10 8
M  V30 6 1 12 2
M  V30 7 2 14 5
M  V30 8 1 15 6
M  V30 9 1 16 2
M  V30 10 1 16 12
M  V30 11 1 17 2
M  V30 12 1 17 11
M  V30 13 1 18 4
M  V30 14 2 19 1
M  V30 15 1 19 5
M  V30 16 1 19 17
M  V30 17 1 20 3
M  V30 18 1 20 13
M  V30 19 1 21 15
M  V30 20 2 21 18
M  V30 21 1 22 8
M  V30 22 1 22 16
M  V30 23 2 23 7
M  V30 24 1 23 14
M  V30 25 1 23 21
M  V30 26 1 24 10
M  V30 27 1 24 12
M  V30 28 1 25 1
M  V30 29 1 26 6
M  V30 30 2 26 20
M  V30 31 1 27 3
M  V30 32 1 28 5
M  V30 33 1 29 7
M  V30 34 1 30 8
M  V30 35 1 31 8
M  V30 36 1 32 9
M  V30 37 1 33 10
M  V30 38 1 34 10
M  V30 39 1 12 35 CFG=1
M  V30 40 1 36 13
M  V30 41 1 37 14
M  V30 42 1 16 38 CFG=3
M  V30 43 1 17 39 CFG=3
M  V30 44 1 40 18
M  V30 45 1 41 22
M  V30 46 1 42 22
M  V30 47 1 43 24
M  V30 48 1 44 24
M  V30 49 1 45 26
M  V30 50 1 2 46 CFG=1
M  V30 END BOND
M  V30 END CTAB
M  END
>  <i_epik_Tot_Q>  (1) 
0

>  <i_epik_Tot_abs_Q>  (1) 
2

>  <i_i_glide_confnum>  (1) 
7

>  <i_i_glide_lignum>  (1) 
49

>  <i_i_glide_posenum>  (1) 
114

>  <i_i_glide_rotatable_bonds>  (1) 
4

>  <i_lp_mmshare_version>  (1) 
72125

>  <i_m_source_file_index>  (1) 
14

>  <i_f3d_flags>  (1) 
0

>  <num_sample>  (1) 
50

>  <b_lp_Chiralities_Consistent>  (1) 
1

>  <r_epik_Charging_Adjusted_Penalty>  (1) 
0.011735890959206876

>  <r_epik_Ionization_Penalty>  (1) 
0.011735890959206876

>  <r_epik_Ionization_Penalty_Charging>  (1) 
0.0019353161310539371

>  <r_epik_Ionization_Penalty_Neutral>  (1) 
0.009800574828152938

>  <r_epik_State_Penalty>  (1) 
0.0098005748281529397

>  <r_glide_ring_energy>  (1) 
0

>  <r_i_docking_score>  (1) 
-7.0932805883227612

>  <r_i_glide_ecoul>  (1) 
-10.380448454202611

>  <r_i_glide_eff_state_penalty>  (1) 
0.0098005748281529397

>  <r_i_glide_einternal>  (1) 
13.136996878121888

>  <r_i_glide_emodel>  (1) 
-29.853831342674468

>  <r_i_glide_emodel_strain>  (1) 
3.0467418553220966

>  <r_i_glide_energy>  (1) 
-27.941509385185562

>  <r_i_glide_erotb>  (1) 
0.39195233306171845

>  <r_i_glide_esite>  (1) 
-0.15053832765269615

>  <r_i_glide_evdw>  (1) 
-17.561060930982951

>  <r_i_glide_gscore>  (1) 
-7.1030811631509145

>  <r_i_glide_gscore_strain>  (1) 
0

>  <r_i_glide_hbond>  (1) 
-0.40049013145950396

>  <r_i_glide_ligand_efficiency>  (1) 
-0.27281848416626003

>  <r_i_glide_ligand_efficiency_ln>  (1) 
-1.6658336712155999

>  <r_i_glide_ligand_efficiency_sa>  (1) 
-0.80822368673140399

>  <r_i_glide_lipo>  (1) 
-2.8310396087845286

>  <r_i_glide_metal>  (1) 
-0

>  <r_i_glide_rewards>  (1) 
-1.6778451136363639

>  <r_lp_Energy>  (1) 
50.308721999999996

>  <s_epik_Chemistry_Notes>  (1) 
This compound contains an acetal/aminal-like group ( X-CH(R)-Y where X, Y are N, S, or O) that may be acid/base labile, releasing an aldehyde.

>  <s_epik_cmdline>  (1) 
J2VwaWtfcHl0aG9uJywgJy1waHQnLCAnMS4wJywgJy1waCcsICc3LjQnLCAnLXRuJywgJzgnLCAnLW1hJywgJzUwMCcsICctaW1hZScsICc8aW5maWxlLm1hZT4nLCAnLW9tYWUnLCAnPG91dGZpbGUubWFlPic=

>  <s_epik_input>  (1) 
W2NIXTFbY0hdYyhbT0hdKVtjSF1jKGMxMilzYyhbY0hdMiktYyhbY0hdYzNDbClbY0hdW2NIXWMzW0NASF0oW09IXSlONFtDQEhdKFtDQEhdNDUpW0NIMl1bQ0gyXVtDSDJdW0NIMl01

>  <s_glide_docking_method>  (1) 
confgen

>  <s_i_glide_gridfile>  (1) 
gpcr_drd2_6luq_protein_autoprepared_prepared

>  <s_lp_Force_Field>  (1) 
S-OPLS

>  <s_lp_Variant>  (1) 
DiffSBDD_13_num_sample_50-2

>  <s_m_source_file>  (1) 
generated__ligand_DiffSBDD_2026-05-06_prepared.sdf

>  <GenAI_Model>  (1) 
DiffSBDD

>  <Protein>  (1) 
generic_title2

$$$$
DiffSBDD_0_num_sample_50
     RDKit          3D

  0  0  0  0  0  0  0  0  0  0999 V3000
M  V30 BEGIN CTAB
M  V30 COUNTS 57 60 0 0 1
M  V30 BEGIN ATOM
M  V30 1 C 10.070989 6.977558 -6.760400 0
M  V30 2 C 6.801428 5.643420 -13.883218 0 CFG=2
M  V30 3 N 7.639716 5.872186 -12.692000 0
M  V30 4 N 8.977999 5.542492 -9.997976 0
M  V30 5 C 3.927076 7.314313 -18.691745 0
M  V30 6 C 6.178566 6.133879 -18.804786 0
M  V30 7 C 8.740934 4.706703 -15.295747 0
M  V30 8 S 5.318494 6.849187 -16.361251 0
M  V30 9 O 6.701701 7.853191 -11.891676 0
M  V30 10 C 9.954438 6.757987 -8.152039 0
M  V30 11 C 6.082091 4.296352 -13.660838 0
M  V30 12 C 9.034830 5.673031 -8.665404 0
M  V30 13 C 5.594571 5.149580 -11.250527 0
M  V30 14 C 7.599224 5.736236 -15.216242 0 CFG=1
M  V30 15 C 8.124966 4.554864 -10.650292 0
M  V30 16 N 9.834844 4.977505 -14.596015 0
M  V30 17 O 8.626120 3.692701 -15.979270 0
M  V30 18 F 12.490572 9.740380 -6.691685 0
M  V30 19 O 8.393631 4.969307 -7.891683 0
M  V30 20 C 10.926061 7.983401 -6.271790 0
M  V30 21 C 6.674952 5.649418 -16.449209 0 CFG=2
M  V30 22 C 6.101229 4.095978 -12.188419 0 CFG=2
M  V30 23 C 11.558769 8.564689 -8.554491 0
M  V30 24 F 3.141732 8.128205 -17.989880 0
M  V30 25 F 4.023138 7.769308 -19.943146 0
M  V30 26 C 7.072252 5.074862 -11.604652 0 CFG=2
M  V30 27 C 7.890934 7.286676 -12.384742 0
M  V30 28 F 11.035307 8.188901 -4.938056 0
M  V30 29 C 11.668793 8.774992 -7.166591 0
M  V30 30 C 5.333509 7.212850 -18.119745 0 CFG=2
M  V30 31 C 7.315164 5.784497 -17.847564 0
M  V30 32 C 10.704118 7.560201 -9.051457 0
M  V30 33 H 9.503136 6.371958 -6.067373 0
M  V30 34 H 6.031446 6.413983 -13.855544 0
M  V30 35 H 9.526483 6.152879 -10.579399 0
M  V30 36 H 3.451307 6.336561 -18.691646 0
M  V30 37 H 5.573503 5.243614 -18.981536 0
M  V30 38 H 6.551722 6.467689 -19.772696 0
M  V30 39 H 6.722875 7.800276 -10.922662 0
M  V30 40 H 6.589188 3.457441 -14.135296 0
M  V30 41 H 5.052846 4.327906 -14.012318 0
M  V30 42 H 5.258452 4.787649 -10.291652 0
M  V30 43 H 5.008598 5.963240 -11.664680 0
M  V30 44 H 8.053683 6.717277 -15.212340 0
M  V30 45 H 7.569392 3.977728 -9.914262 0
M  V30 46 H 8.768939 3.853752 -11.183530 0
M  V30 47 H 9.879544 5.818019 -14.042214 0
M  V30 48 H 10.617483 4.333617 -14.602454 0
M  V30 49 H 6.234841 4.661820 -16.424406 0
M  V30 50 H 6.108043 3.067970 -11.833500 0
M  V30 51 H 12.131071 9.174287 -9.238686 0
M  V30 52 H 8.206678 7.824841 -13.276730 0
M  V30 53 H 8.679345 7.412680 -11.646057 0
M  V30 54 H 5.825726 8.169304 -18.223275 0
M  V30 55 H 8.065631 6.569277 -17.891768 0
M  V30 56 H 7.808632 4.863834 -18.159002 0
M  V30 57 H 10.626836 7.407225 -10.115918 0
M  V30 END ATOM
M  V30 BEGIN BOND
M  V30 1 1 3 2
M  V30 2 2 10 1
M  V30 3 1 11 2
M  V30 4 1 12 4
M  V30 5 1 12 10
M  V30 6 1 14 2
M  V30 7 1 14 7
M  V30 8 1 15 4
M  V30 9 1 16 7
M  V30 10 2 17 7
M  V30 11 2 19 12
M  V30 12 1 20 1
M  V30 13 1 21 8
M  V30 14 1 21 14
M  V30 15 1 22 11
M  V30 16 1 22 13
M  V30 17 1 24 5
M  V30 18 1 25 5
M  V30 19 1 26 3
M  V30 20 1 26 13
M  V30 21 1 26 15 CFG=1
M  V30 22 1 26 22
M  V30 23 1 27 3
M  V30 24 1 27 9
M  V30 25 1 28 20
M  V30 26 1 29 18
M  V30 27 2 29 20
M  V30 28 1 29 23
M  V30 29 1 30 5
M  V30 30 1 30 6
M  V30 31 1 30 8
M  V30 32 1 31 6
M  V30 33 1 31 21
M  V30 34 1 32 10
M  V30 35 2 32 23
M  V30 36 1 33 1
M  V30 37 1 2 34 CFG=3
M  V30 38 1 35 4
M  V30 39 1 36 5
M  V30 40 1 37 6
M  V30 41 1 38 6
M  V30 42 1 39 9
M  V30 43 1 40 11
M  V30 44 1 41 11
M  V30 45 1 42 13
M  V30 46 1 43 13
M  V30 47 1 14 44 CFG=1
M  V30 48 1 45 15
M  V30 49 1 46 15
M  V30 50 1 47 16
M  V30 51 1 48 16
M  V30 52 1 21 49 CFG=3
M  V30 53 1 22 50 CFG=3
M  V30 54 1 51 23
M  V30 55 1 52 27
M  V30 56 1 53 27
M  V30 57 1 30 54 CFG=1
M  V30 58 1 55 31
M  V30 59 1 56 31
M  V30 60 1 57 32
M  V30 END BOND
M  V30 END CTAB
M  END
>  <i_epik_Tot_Q>  (1) 
0

>  <i_epik_Tot_abs_Q>  (1) 
0

>  <i_i_glide_confnum>  (1) 
165

>  <i_i_glide_lignum>  (1) 
1

>  <i_i_glide_posenum>  (1) 
87

>  <i_i_glide_rotatable_bonds>  (1) 
10

>  <i_lp_mmshare_version>  (1) 
72125

>  <i_m_source_file_index>  (1) 
1

>  <i_f3d_flags>  (1) 
0

>  <num_sample>  (1) 
50

>  <b_lp_Chiralities_Consistent>  (1) 
1

>  <r_epik_Charging_Adjusted_Penalty>  (1) 
0.071769471723160352

>  <r_epik_Ionization_Penalty>  (1) 
0.068537577392677768

>  <r_epik_Ionization_Penalty_Charging>  (1) 
0

>  <r_epik_Ionization_Penalty_Neutral>  (1) 
0.068537577392677768

>  <r_epik_State_Penalty>  (1) 
0.071769471723160352

>  <r_glide_ring_energy>  (1) 
0

>  <r_i_docking_score>  (1) 
-7.0525677732208711

>  <r_i_glide_ecoul>  (1) 
-10.168038818691382

>  <r_i_glide_eff_state_penalty>  (1) 
0.071769471723160352

>  <r_i_glide_einternal>  (1) 
16.698208893980166

>  <r_i_glide_emodel>  (1) 
-46.83722024641753

>  <r_i_glide_emodel_strain>  (1) 
0.71162947473972338

>  <r_i_glide_energy>  (1) 
-38.838129944231333

>  <r_i_glide_erotb>  (1) 
0.5371628550043247

>  <r_i_glide_esite>  (1) 
-0.2038825419970306

>  <r_i_glide_evdw>  (1) 
-28.670091125539951

>  <r_i_glide_gscore>  (1) 
-7.1243372449440319

>  <r_i_glide_gscore_strain>  (1) 
0

>  <r_i_glide_hbond>  (1) 
-0.36863495429227877

>  <r_i_glide_ligand_efficiency>  (1) 
-0.22039274291315222

>  <r_i_glide_ligand_efficiency_ln>  (1) 
-1.579262170160884

>  <r_i_glide_ligand_efficiency_sa>  (1) 
-0.69970334389298972

>  <r_i_glide_lipo>  (1) 
-2.4905653070565608

>  <r_i_glide_metal>  (1) 
-0

>  <r_i_glide_rewards>  (1) 
-1.6397069175217804

>  <r_lp_Energy>  (1) 
1.918968

>  <s_epik_Chemistry_Notes>  (1) 
This compound contains an acetal/aminal-like group ( X-CH(R)-Y where X, Y are N, S, or O) that may be acid/base labile, releasing an aldehyde.

>  <s_epik_cmdline>  (1) 
J2VwaWtfcHl0aG9uJywgJy1waHQnLCAnMS4wJywgJy1waCcsICc3LjQnLCAnLXRuJywgJzgnLCAnLW1hJywgJzUwMCcsICctaW1hZScsICc8aW5maWxlLm1hZT4nLCAnLW9tYWUnLCAnPG91dGZpbGUubWFlPic=

>  <s_epik_input>  (1) 
W2NIXTFbY0hdYyhGKWMoRilbY0hdYzFDKD1PKVtOSF1bQ0gyXVtDQF0yM1tDQEBIXShbQ0gyXTMpW0NIMl1bQ0BASF0oTjJbQ0gyXVtPSF0pW0NAQEhdKEMoPU8pW05IMl0pW0NASF00U1tDQEhdKFtDSF0oRilGKVtDSDJdW0NIMl00

>  <s_glide_docking_method>  (1) 
confgen

>  <s_i_glide_gridfile>  (1) 
gpcr_drd2_6luq_protein_autoprepared_prepared

>  <s_lp_Force_Field>  (1) 
S-OPLS

>  <s_lp_Variant>  (1) 
DiffSBDD_0_num_sample_50-1

>  <s_m_source_file>  (1) 
generated__ligand_DiffSBDD_2026-05-06_prepared.sdf

>  <GenAI_Model>  (1) 
DiffSBDD

>  <Protein>  (1) 
generic_title2

$$$$
DiffSBDD_0_num_sample_50
     RDKit          3D

  0  0  0  0  0  0  0  0  0  0999 V3000
M  V30 BEGIN CTAB
M  V30 COUNTS 57 60 0 0 1
M  V30 BEGIN ATOM
M  V30 1 C 10.680589 7.557581 -9.047020 0
M  V30 2 C 6.777153 5.621375 -13.898466 0 CFG=2
M  V30 3 N 7.597710 5.863763 -12.697550 0
M  V30 4 N 8.977023 5.531843 -10.003176 0
M  V30 5 C 4.016928 7.353733 -18.769377 0
M  V30 6 C 6.280486 6.134196 -18.855299 0
M  V30 7 C 8.744320 4.711122 -15.282404 0
M  V30 8 S 5.409474 6.950196 -16.423414 0
M  V30 9 O 6.564179 7.784504 -11.891668 0
M  V30 10 C 9.928353 6.757824 -8.151719 0
M  V30 11 C 6.081868 4.259679 -13.687822 0
M  V30 12 C 9.022195 5.668767 -8.666817 0
M  V30 13 C 5.591970 5.035372 -11.249119 0
M  V30 14 C 7.603095 5.739730 -15.213107 0 CFG=1
M  V30 15 C 8.136411 4.535042 -10.663898 0
M  V30 16 N 9.834788 4.984734 -14.576261 0
M  V30 17 O 8.632556 3.694836 -15.963119 0
M  V30 18 F 12.419964 9.769455 -6.683127 0
M  V30 19 O 8.375615 4.969282 -7.891866 0
M  V30 20 C 11.519723 8.571235 -8.548844 0
M  V30 21 C 6.711311 5.690339 -16.473680 0 CFG=2
M  V30 22 C 6.130068 4.026010 -12.218863 0 CFG=2
M  V30 23 C 10.867433 8.001521 -6.268383 0
M  V30 24 F 4.104086 7.769334 -20.035539 0
M  V30 25 F 3.434850 6.169532 -18.691651 0
M  V30 26 C 7.066991 5.030001 -11.617266 0 CFG=2
M  V30 27 C 7.782702 7.283305 -12.379212 0
M  V30 28 F 12.234747 9.336851 -9.406149 0
M  V30 29 C 11.613522 8.792751 -7.160169 0
M  V30 30 C 5.406622 7.212710 -18.203401 0 CFG=2
M  V30 31 C 7.387201 5.795614 -17.857831 0
M  V30 32 C 10.026905 6.986449 -6.760497 0
M  V30 33 H 10.615927 7.396885 -10.111402 0
M  V30 34 H 5.988693 6.373459 -13.889083 0
M  V30 35 H 9.528475 6.142903 -10.581187 0
M  V30 36 H 3.408250 8.073576 -18.220660 0
M  V30 37 H 5.692646 5.236587 -19.050476 0
M  V30 38 H 6.684225 6.468314 -19.811276 0
M  V30 39 H 6.634828 7.773535 -10.923343 0
M  V30 40 H 6.583773 3.433962 -14.191452 0
M  V30 41 H 5.044804 4.287417 -14.014548 0
M  V30 42 H 5.286053 4.641199 -10.291688 0
M  V30 43 H 4.969207 5.835045 -11.634933 0
M  V30 44 H 8.061944 6.719341 -15.179087 0
M  V30 45 H 7.598761 3.943374 -9.927300 0
M  V30 46 H 8.790532 3.846536 -11.200533 0
M  V30 47 H 9.874289 5.825335 -14.022785 0
M  V30 48 H 10.619409 4.343316 -14.578367 0
M  V30 49 H 6.234894 4.721759 -16.463824 0
M  V30 50 H 6.183948 2.989502 -11.891741 0
M  V30 51 H 10.938275 8.174251 -5.204961 0
M  V30 52 H 8.081366 7.844518 -13.262174 0
M  V30 53 H 8.556334 7.434197 -11.629633 0
M  V30 54 H 5.834841 8.170920 -18.376875 0
M  V30 55 H 8.148277 6.569299 -17.891654 0
M  V30 56 H 7.881457 4.866988 -18.142412 0
M  V30 57 H 9.453286 6.382445 -6.070756 0
M  V30 END ATOM
M  V30 BEGIN BOND
M  V30 1 1 3 2
M  V30 2 2 10 1
M  V30 3 1 11 2
M  V30 4 1 12 4
M  V30 5 1 12 10
M  V30 6 1 14 2
M  V30 7 1 14 7
M  V30 8 1 15 4
M  V30 9 1 16 7
M  V30 10 2 17 7
M  V30 11 2 19 12
M  V30 12 1 20 1
M  V30 13 1 21 8
M  V30 14 1 21 14
M  V30 15 1 22 11
M  V30 16 1 22 13
M  V30 17 1 24 5
M  V30 18 1 25 5
M  V30 19 1 26 3
M  V30 20 1 26 13
M  V30 21 1 26 15 CFG=1
M  V30 22 1 26 22
M  V30 23 1 27 3
M  V30 24 1 27 9
M  V30 25 1 28 20
M  V30 26 1 29 18
M  V30 27 2 29 20
M  V30 28 1 29 23
M  V30 29 1 30 5
M  V30 30 1 30 6
M  V30 31 1 30 8
M  V30 32 1 31 6
M  V30 33 1 31 21
M  V30 34 1 32 10
M  V30 35 2 32 23
M  V30 36 1 33 1
M  V30 37 1 2 34 CFG=3
M  V30 38 1 35 4
M  V30 39 1 36 5
M  V30 40 1 37 6
M  V30 41 1 38 6
M  V30 42 1 39 9
M  V30 43 1 40 11
M  V30 44 1 41 11
M  V30 45 1 42 13
M  V30 46 1 43 13
M  V30 47 1 14 44 CFG=1
M  V30 48 1 45 15
M  V30 49 1 46 15
M  V30 50 1 47 16
M  V30 51 1 48 16
M  V30 52 1 21 49 CFG=3
M  V30 53 1 22 50 CFG=3
M  V30 54 1 51 23
M  V30 55 1 52 27
M  V30 56 1 53 27
M  V30 57 1 30 54 CFG=1
M  V30 58 1 55 31
M  V30 59 1 56 31
M  V30 60 1 57 32
M  V30 END BOND
M  V30 END CTAB
M  END
>  <i_epik_Tot_Q>  (1) 
0

>  <i_epik_Tot_abs_Q>  (1) 
0

>  <i_i_glide_confnum>  (1) 
165

>  <i_i_glide_lignum>  (1) 
1

>  <i_i_glide_posenum>  (1) 
338

>  <i_i_glide_rotatable_bonds>  (1) 
10

>  <i_lp_mmshare_version>  (1) 
72125

>  <i_m_source_file_index>  (1) 
1

>  <i_f3d_flags>  (1) 
0

>  <num_sample>  (1) 
50

>  <b_lp_Chiralities_Consistent>  (1) 
1

>  <r_epik_Charging_Adjusted_Penalty>  (1) 
0.071769471723160352

>  <r_epik_Ionization_Penalty>  (1) 
0.068537577392677768

>  <r_epik_Ionization_Penalty_Charging>  (1) 
0

>  <r_epik_Ionization_Penalty_Neutral>  (1) 
0.068537577392677768

>  <r_epik_State_Penalty>  (1) 
0.071769471723160352

>  <r_glide_ring_energy>  (1) 
0

>  <r_i_docking_score>  (1) 
-7.0358656914697741

>  <r_i_glide_ecoul>  (1) 
-10.955911873565434

>  <r_i_glide_eff_state_penalty>  (1) 
0.071769471723160352

>  <r_i_glide_einternal>  (1) 
12.539911905770564

>  <r_i_glide_emodel>  (1) 
-47.670390578517647

>  <r_i_glide_emodel_strain>  (1) 
0.62681948766962847

>  <r_i_glide_energy>  (1) 
-37.547336333462468

>  <r_i_glide_erotb>  (1) 
0.5371628550043247

>  <r_i_glide_esite>  (1) 
-0.20604229015203057

>  <r_i_glide_evdw>  (1) 
-26.591424459897034

>  <r_i_glide_gscore>  (1) 
-7.1076351631929349

>  <r_i_glide_gscore_strain>  (1) 
0

>  <r_i_glide_hbond>  (1) 
-0.37864452437733442

>  <r_i_glide_ligand_efficiency>  (1) 
-0.21987080285843044

>  <r_i_glide_ligand_efficiency_ln>  (1) 
-1.5755221187752599

>  <r_i_glide_ligand_efficiency_sa>  (1) 
-0.69804628750913023

>  <r_i_glide_lipo>  (1) 
-2.4600873543315442

>  <r_i_glide_metal>  (1) 
-0

>  <r_i_glide_rewards>  (1) 
-1.627065845306684

>  <r_lp_Energy>  (1) 
1.918968

>  <s_epik_Chemistry_Notes>  (1) 
This compound contains an acetal/aminal-like group ( X-CH(R)-Y where X, Y are N, S, or O) that may be acid/base labile, releasing an aldehyde.

>  <s_epik_cmdline>  (1) 
J2VwaWtfcHl0aG9uJywgJy1waHQnLCAnMS4wJywgJy1waCcsICc3LjQnLCAnLXRuJywgJzgnLCAnLW1hJywgJzUwMCcsICctaW1hZScsICc8aW5maWxlLm1hZT4nLCAnLW9tYWUnLCAnPG91dGZpbGUubWFlPic=

>  <s_epik_input>  (1) 
W2NIXTFbY0hdYyhGKWMoRilbY0hdYzFDKD1PKVtOSF1bQ0gyXVtDQF0yM1tDQEBIXShbQ0gyXTMpW0NIMl1bQ0BASF0oTjJbQ0gyXVtPSF0pW0NAQEhdKEMoPU8pW05IMl0pW0NASF00U1tDQEhdKFtDSF0oRilGKVtDSDJdW0NIMl00

>  <s_glide_docking_method>  (1) 
confgen

>  <s_i_glide_gridfile>  (1) 
gpcr_drd2_6luq_protein_autoprepared_prepared

>  <s_lp_Force_Field>  (1) 
S-OPLS

>  <s_lp_Variant>  (1) 
DiffSBDD_0_num_sample_50-1

>  <s_m_source_file>  (1) 
generated__ligand_DiffSBDD_2026-05-06_prepared.sdf

>  <GenAI_Model>  (1) 
DiffSBDD

>  <Protein>  (1) 
generic_title2

$$$$
DiffSBDD_7_num_sample_50
     RDKit          3D

  0  0  0  0  0  0  0  0  0  0999 V3000
M  V30 BEGIN CTAB
M  V30 COUNTS 63 67 0 0 1
M  V30 BEGIN ATOM
M  V30 1 C 11.068094 7.267937 -7.728257 0 CFG=1
M  V30 2 C 6.970561 5.804925 -17.055487 0
M  V30 3 C 6.569122 5.269961 -18.294130 0
M  V30 4 C 11.070272 6.972769 -5.282507 0
M  V30 5 C 6.404886 4.599547 -13.699220 0 CFG=2
M  V30 6 C 5.434934 5.786486 -18.949293 0
M  V30 7 C 8.908935 5.437516 -10.440775 0
M  V30 8 C 7.469496 3.968671 -12.843588 0 CFG=2
M  V30 9 C 8.725422 4.857002 -12.903770 0 CFG=2
M  V30 10 C 6.087081 7.105608 -12.530733 0
M  V30 11 C 6.677176 7.448079 -15.139881 0
M  V30 12 C 4.700579 6.836241 -18.363785 0
M  V30 13 C 9.834826 5.712379 -9.281899 0
M  V30 14 C 10.984784 8.618481 -7.067273 0 CFG=2
M  V30 15 C 12.130915 8.313006 -7.991336 0
M  V30 16 O 9.434841 4.609161 -14.091112 0
M  V30 17 C 5.098095 7.369153 -17.124196 0
M  V30 18 C 5.758739 5.887535 -13.311745 0 CFG=1
M  V30 19 C 7.726564 2.487395 -13.215019 0
M  V30 20 C 11.247564 6.239768 -6.622676 0
M  V30 21 C 11.127869 8.478108 -5.577768 0
M  V30 22 C 5.678244 7.181890 -14.040733 0 CFG=1
M  V30 23 C 9.600457 4.775305 -11.653410 0
M  V30 24 C 10.157790 6.948743 -8.865586 0
M  V30 25 C 6.531643 1.555299 -12.962359 0
M  V30 26 C 6.234847 6.858560 -16.469204 0
M  V30 27 C 4.951500 4.649617 -13.180573 0
M  V30 28 H 7.844261 5.410922 -16.555494 0
M  V30 29 H 7.132312 4.464759 -18.742743 0
M  V30 30 H 10.093781 6.718751 -4.869762 0
M  V30 31 H 11.816170 6.668155 -4.547826 0
M  V30 32 H 6.524891 4.417774 -14.763381 0
M  V30 33 H 5.128069 5.377623 -19.900796 0
M  V30 34 H 8.461046 6.385157 -10.737691 0
M  V30 35 H 8.092911 4.820004 -10.066972 0
M  V30 36 H 7.087826 3.982008 -11.824417 0
M  V30 37 H 8.454217 5.901591 -12.999528 0
M  V30 38 H 7.112079 7.375670 -12.299655 0
M  V30 39 H 5.353402 7.435194 -11.797399 0
M  V30 40 H 7.647526 7.041237 -14.856359 0
M  V30 41 H 6.810262 8.524375 -15.250807 0
M  V30 42 H 3.834848 7.234080 -18.866134 0
M  V30 43 H 10.242448 4.849808 -8.779831 0
M  V30 44 H 10.176863 9.261234 -7.403974 0
M  V30 45 H 12.132923 8.811581 -8.959104 0
M  V30 46 H 13.112086 8.169329 -7.548921 0
M  V30 47 H 10.365165 4.569307 -13.891629 0
M  V30 48 H 4.534089 8.173575 -16.678580 0
M  V30 49 H 8.009099 2.412561 -14.265549 0
M  V30 50 H 8.580230 2.113301 -12.649818 0
M  V30 51 H 10.504986 5.449864 -6.700389 0
M  V30 52 H 12.234797 5.784101 -6.691701 0
M  V30 53 H 12.074892 8.914822 -5.259495 0
M  V30 54 H 10.323206 9.023096 -5.091650 0
M  V30 55 H 4.750319 7.723780 -14.178831 0
M  V30 56 H 10.534727 5.286693 -11.891657 0
M  V30 57 H 9.834841 3.738267 -11.424317 0
M  V30 58 H 9.732258 7.796388 -9.385044 0
M  V30 59 H 6.780987 0.527219 -13.227478 0
M  V30 60 H 5.665272 1.843572 -13.556072 0
M  V30 61 H 6.234792 1.560322 -11.914331 0
M  V30 62 H 4.148155 4.522655 -13.891556 0
M  V30 63 H 4.761699 4.266299 -12.180216 0
M  V30 END ATOM
M  V30 BEGIN BOND
M  V30 1 1 3 2
M  V30 2 2 6 3
M  V30 3 1 8 5
M  V30 4 1 9 8
M  V30 5 1 12 6
M  V30 6 1 13 7
M  V30 7 1 14 1
M  V30 8 1 15 1
M  V30 9 1 15 14
M  V30 10 1 16 9
M  V30 11 2 17 12
M  V30 12 1 18 5
M  V30 13 1 18 10 CFG=1
M  V30 14 1 19 8
M  V30 15 1 20 1
M  V30 16 1 20 4
M  V30 17 1 21 4
M  V30 18 1 21 14
M  V30 19 1 22 10
M  V30 20 1 22 11
M  V30 21 1 22 18
M  V30 22 1 23 7
M  V30 23 1 23 9
M  V30 24 1 1 24 CFG=3
M  V30 25 2 24 13
M  V30 26 1 25 19
M  V30 27 2 26 2
M  V30 28 1 26 11
M  V30 29 1 26 17
M  V30 30 1 27 5
M  V30 31 1 27 18
M  V30 32 1 28 2
M  V30 33 1 29 3
M  V30 34 1 30 4
M  V30 35 1 31 4
M  V30 36 1 5 32 CFG=3
M  V30 37 1 33 6
M  V30 38 1 34 7
M  V30 39 1 35 7
M  V30 40 1 8 36 CFG=1
M  V30 41 1 9 37 CFG=3
M  V30 42 1 38 10
M  V30 43 1 39 10
M  V30 44 1 40 11
M  V30 45 1 41 11
M  V30 46 1 42 12
M  V30 47 1 43 13
M  V30 48 1 14 44 CFG=1
M  V30 49 1 45 15
M  V30 50 1 46 15
M  V30 51 1 47 16
M  V30 52 1 48 17
M  V30 53 1 49 19
M  V30 54 1 50 19
M  V30 55 1 51 20
M  V30 56 1 52 20
M  V30 57 1 53 21
M  V30 58 1 54 21
M  V30 59 1 22 55 CFG=1
M  V30 60 1 56 23
M  V30 61 1 57 23
M  V30 62 1 58 24
M  V30 63 1 59 25
M  V30 64 1 60 25
M  V30 65 1 61 25
M  V30 66 1 62 27
M  V30 67 1 63 27
M  V30 END BOND
M  V30 END CTAB
M  END
>  <i_epik_Tot_Q>  (1) 
0

>  <i_epik_Tot_abs_Q>  (1) 
0

>  <i_i_glide_confnum>  (1) 
108

>  <i_i_glide_lignum>  (1) 
17

>  <i_i_glide_posenum>  (1) 
353

>  <i_i_glide_rotatable_bonds>  (1) 
10

>  <i_lp_mmshare_version>  (1) 
72125

>  <i_m_source_file_index>  (1) 
8

>  <i_f3d_flags>  (1) 
0

>  <num_sample>  (1) 
50

>  <b_lp_Chiralities_Consistent>  (1) 
1

>  <r_epik_Charging_Adjusted_Penalty>  (1) 
0

>  <r_epik_Ionization_Penalty>  (1) 
5.611789062664276e-07

>  <r_epik_Ionization_Penalty_Charging>  (1) 
0

>  <r_epik_Ionization_Penalty_Neutral>  (1) 
5.611789062664276e-07

>  <r_epik_State_Penalty>  (1) 
-0

>  <r_glide_ring_energy>  (1) 
0

>  <r_i_docking_score>  (1) 
-7.0322703065494432

>  <r_i_glide_ecoul>  (1) 
-4.1224953981185752

>  <r_i_glide_eff_state_penalty>  (1) 
-0

>  <r_i_glide_einternal>  (1) 
6.2460687263962376

>  <r_i_glide_emodel>  (1) 
-41.754890051863569

>  <r_i_glide_emodel_strain>  (1) 
1.2041992987280139

>  <r_i_glide_energy>  (1) 
-32.08249225329704

>  <r_i_glide_erotb>  (1) 
1.0125554383439441

>  <r_i_glide_esite>  (1) 
0

>  <r_i_glide_evdw>  (1) 
-27.959996855178463

>  <r_i_glide_gscore>  (1) 
-7.0322703065494432

>  <r_i_glide_gscore_strain>  (1) 
0

>  <r_i_glide_hbond>  (1) 
-0.32000000000000001

>  <r_i_glide_ligand_efficiency>  (1) 
-0.26045445579812754

>  <r_i_glide_ligand_efficiency_ln>  (1) 
-1.6369965913278133

>  <r_i_glide_ligand_efficiency_sa>  (1) 
-0.78136336739438272

>  <r_i_glide_lipo>  (1) 
-3.9524793065704773

>  <r_i_glide_metal>  (1) 
-0

>  <r_i_glide_rewards>  (1) 
-1.7559722858461999

>  <r_lp_Energy>  (1) 
23.350185999999997

>  <r_lp_tautomer_probability>  (1) 
1

>  <s_epik_cmdline>  (1) 
J2VwaWtfcHl0aG9uJywgJy1waHQnLCAnMS4wJywgJy1waCcsICc3LjQnLCAnLXRuJywgJzgnLCAnLW1hJywgJzUwMCcsICctaW1hZScsICc8aW5maWxlLm1hZT4nLCAnLW9tYWUnLCAnPG91dGZpbGUubWFlPic=

>  <s_epik_input>  (1) 
W0NIMl0xW0NIMl1bQ0gyXVtDQEBIXShbQ0gyXTIpW0NAXTEyXFtDSF09W0NIXVxbQ0gyXVtDSDJdW0NAQEhdKFtPSF0pW0NASF0oW0NIMl1bQ0gzXSlbQ0BASF0oW0NIMl0zKVtDQF0zNFtDSDJdW0NASF00W0NIMl1jNVtjSF1bY0hdW2NIXVtjSF1bY0hdNQ==

>  <s_glide_docking_method>  (1) 
confgen

>  <s_i_glide_gridfile>  (1) 
gpcr_drd2_6luq_protein_autoprepared_prepared

>  <s_lp_Force_Field>  (1) 
S-OPLS

>  <s_lp_Variant>  (1) 
DiffSBDD_7_num_sample_50-2

>  <s_m_source_file>  (1) 
generated__ligand_DiffSBDD_2026-05-06_prepared.sdf

>  <GenAI_Model>  (1) 
DiffSBDD

>  <Protein>  (1) 
generic_title2

$$$$
DiffSBDD_0_num_sample_50
     RDKit          3D

  0  0  0  0  0  0  0  0  0  0999 V3000
M  V30 BEGIN CTAB
M  V30 COUNTS 57 60 0 0 1
M  V30 BEGIN ATOM
M  V30 1 C 11.578939 9.026073 -6.775276 0
M  V30 2 C 7.939243 5.350850 -13.587061 0 CFG=2
M  V30 3 N 8.402774 6.528914 -12.813829 0
M  V30 4 N 10.273885 6.968364 -9.565543 0
M  V30 5 C 3.524651 7.371286 -17.091690 0
M  V30 6 C 5.592810 6.203862 -18.058098 0
M  V30 7 C 9.194837 4.736726 -15.836670 0
M  V30 8 S 5.638188 6.826244 -15.452574 0
M  V30 9 O 7.725725 8.569264 -11.891672 0
M  V30 10 C 11.064255 7.917740 -7.484256 0
M  V30 11 C 8.690112 4.162617 -12.928102 0
M  V30 12 C 10.903202 8.002874 -8.981927 0
M  V30 13 C 7.951321 5.246388 -10.610774 0
M  V30 14 C 8.085720 5.553324 -15.149195 0 CFG=1
M  V30 15 C 10.054958 6.905156 -11.011710 0
M  V30 16 N 10.400240 5.302045 -15.915711 0
M  V30 17 O 8.954999 3.621642 -16.291772 0
M  V30 18 F 11.629564 7.703437 -3.353952 0
M  V30 19 O 11.334934 8.969354 -9.603732 0
M  V30 20 C 11.759700 8.957043 -5.384395 0
M  V30 21 C 6.761749 5.507999 -15.963432 0 CFG=2
M  V30 22 C 8.966332 4.581224 -11.513007 0 CFG=2
M  V30 23 C 10.910775 6.670977 -5.387240 0
M  V30 24 F 3.065116 7.711175 -18.291667 0
M  V30 25 F 2.995015 6.210771 -16.707290 0
M  V30 26 C 8.866226 6.069595 -11.502068 0 CFG=2
M  V30 27 C 7.312452 7.502323 -12.705354 0
M  V30 28 F 12.255005 10.022058 -4.713128 0
M  V30 29 C 11.434839 7.777063 -4.691672 0
M  V30 30 C 5.049488 7.263420 -17.097603 0 CFG=2
M  V30 31 C 6.920526 5.701423 -17.491002 0
M  V30 32 C 10.720438 6.737187 -6.781423 0
M  V30 33 H 11.835005 9.930481 -7.302934 0
M  V30 34 H 6.885134 5.186772 -13.359357 0
M  V30 35 H 9.932044 6.208147 -8.998636 0
M  V30 36 H 3.182470 8.138519 -16.396411 0
M  V30 37 H 4.901483 5.369294 -18.118933 0
M  V30 38 H 5.704224 6.597307 -19.069151 0
M  V30 39 H 7.435239 8.383287 -10.992016 0
M  V30 40 H 9.665019 3.988440 -13.376354 0
M  V30 41 H 8.123732 3.231574 -12.963624 0
M  V30 42 H 8.145813 5.241394 -9.540889 0
M  V30 43 H 6.900347 5.167459 -10.880360 0
M  V30 44 H 8.405163 6.569328 -15.281878 0
M  V30 45 H 10.959322 6.534841 -11.491710 0
M  V30 46 H 9.973436 7.917885 -11.402655 0
M  V30 47 H 10.553933 6.220070 -15.526746 0
M  V30 48 H 11.159240 4.803933 -16.356212 0
M  V30 49 H 6.249413 4.569358 -15.765219 0
M  V30 50 H 9.829168 4.119295 -11.035313 0
M  V30 51 H 10.657337 5.769333 -4.850331 0
M  V30 52 H 6.386652 7.074513 -12.316804 0
M  V30 53 H 7.134311 7.929386 -13.685898 0
M  V30 54 H 5.478809 8.232664 -17.348484 0
M  V30 55 H 7.686137 6.447091 -17.703545 0
M  V30 56 H 7.227290 4.780467 -17.987973 0
M  V30 57 H 10.324304 5.881424 -7.306700 0
M  V30 END ATOM
M  V30 BEGIN BOND
M  V30 1 1 3 2
M  V30 2 2 10 1
M  V30 3 1 11 2
M  V30 4 1 12 4
M  V30 5 1 12 10
M  V30 6 1 14 2
M  V30 7 1 14 7
M  V30 8 1 15 4
M  V30 9 1 16 7
M  V30 10 2 17 7
M  V30 11 2 19 12
M  V30 12 1 20 1
M  V30 13 1 21 8
M  V30 14 1 21 14
M  V30 15 1 22 11
M  V30 16 1 22 13
M  V30 17 1 24 5
M  V30 18 1 25 5
M  V30 19 1 26 3
M  V30 20 1 26 13
M  V30 21 1 26 15 CFG=1
M  V30 22 1 26 22
M  V30 23 1 27 3
M  V30 24 1 27 9
M  V30 25 1 28 20
M  V30 26 1 29 18
M  V30 27 2 29 20
M  V30 28 1 29 23
M  V30 29 1 30 5
M  V30 30 1 30 6
M  V30 31 1 30 8
M  V30 32 1 31 6
M  V30 33 1 31 21
M  V30 34 1 32 10
M  V30 35 2 32 23
M  V30 36 1 33 1
M  V30 37 1 2 34 CFG=3
M  V30 38 1 35 4
M  V30 39 1 36 5
M  V30 40 1 37 6
M  V30 41 1 38 6
M  V30 42 1 39 9
M  V30 43 1 40 11
M  V30 44 1 41 11
M  V30 45 1 42 13
M  V30 46 1 43 13
M  V30 47 1 14 44 CFG=1
M  V30 48 1 45 15
M  V30 49 1 46 15
M  V30 50 1 47 16
M  V30 51 1 48 16
M  V30 52 1 21 49 CFG=3
M  V30 53 1 22 50 CFG=1
M  V30 54 1 51 23
M  V30 55 1 52 27
M  V30 56 1 53 27
M  V30 57 1 30 54 CFG=3
M  V30 58 1 55 31
M  V30 59 1 56 31
M  V30 60 1 57 32
M  V30 END BOND
M  V30 END CTAB
M  END
>  <i_epik_Tot_Q>  (1) 
0

>  <i_epik_Tot_abs_Q>  (1) 
0

>  <i_i_glide_confnum>  (1) 
208

>  <i_i_glide_lignum>  (1) 
1

>  <i_i_glide_posenum>  (1) 
288

>  <i_i_glide_rotatable_bonds>  (1) 
10

>  <i_lp_mmshare_version>  (1) 
72125

>  <i_m_source_file_index>  (1) 
1

>  <i_f3d_flags>  (1) 
0

>  <num_sample>  (1) 
50

>  <b_lp_Chiralities_Consistent>  (1) 
1

>  <r_epik_Charging_Adjusted_Penalty>  (1) 
0.071769471723160352

>  <r_epik_Ionization_Penalty>  (1) 
0.068537577392677768

>  <r_epik_Ionization_Penalty_Charging>  (1) 
0

>  <r_epik_Ionization_Penalty_Neutral>  (1) 
0.068537577392677768

>  <r_epik_State_Penalty>  (1) 
0.071769471723160352

>  <r_glide_ring_energy>  (1) 
0

>  <r_i_docking_score>  (1) 
-7.0099320502975004

>  <r_i_glide_ecoul>  (1) 
-7.0303267119770476

>  <r_i_glide_eff_state_penalty>  (1) 
0.071769471723160352

>  <r_i_glide_einternal>  (1) 
19.284474116731701

>  <r_i_glide_emodel>  (1) 
-44.840083487666732

>  <r_i_glide_emodel_strain>  (1) 
5.3397321057710911

>  <r_i_glide_energy>  (1) 
-42.864323249304

>  <r_i_glide_erotb>  (1) 
0.5371628550043247

>  <r_i_glide_esite>  (1) 
-0.1178003036445353

>  <r_i_glide_evdw>  (1) 
-35.833996537326954

>  <r_i_glide_gscore>  (1) 
-7.0817015220206612

>  <r_i_glide_gscore_strain>  (1) 
0.33493302644277279

>  <r_i_glide_hbond>  (1) 
-0.16

>  <r_i_glide_ligand_efficiency>  (1) 
-0.21906037657179689

>  <r_i_glide_ligand_efficiency_ln>  (1) 
-1.5697148695924288

>  <r_i_glide_ligand_efficiency_sa>  (1) 
-0.69547334442924069

>  <r_i_glide_lipo>  (1) 
-2.9544721992542748

>  <r_i_glide_metal>  (1) 
-0

>  <r_i_glide_rewards>  (1) 
-1.8752760669060433

>  <r_lp_Energy>  (1) 
1.918968

>  <s_epik_Chemistry_Notes>  (1) 
This compound contains an acetal/aminal-like group ( X-CH(R)-Y where X, Y are N, S, or O) that may be acid/base labile, releasing an aldehyde.

>  <s_epik_cmdline>  (1) 
J2VwaWtfcHl0aG9uJywgJy1waHQnLCAnMS4wJywgJy1waCcsICc3LjQnLCAnLXRuJywgJzgnLCAnLW1hJywgJzUwMCcsICctaW1hZScsICc8aW5maWxlLm1hZT4nLCAnLW9tYWUnLCAnPG91dGZpbGUubWFlPic=

>  <s_epik_input>  (1) 
W2NIXTFbY0hdYyhGKWMoRilbY0hdYzFDKD1PKVtOSF1bQ0gyXVtDQF0yM1tDQEBIXShbQ0gyXTMpW0NIMl1bQ0BASF0oTjJbQ0gyXVtPSF0pW0NAQEhdKEMoPU8pW05IMl0pW0NASF00U1tDQEhdKFtDSF0oRilGKVtDSDJdW0NIMl00

>  <s_glide_docking_method>  (1) 
confgen

>  <s_i_glide_gridfile>  (1) 
gpcr_drd2_6luq_protein_autoprepared_prepared

>  <s_lp_Force_Field>  (1) 
S-OPLS

>  <s_lp_Variant>  (1) 
DiffSBDD_0_num_sample_50-1

>  <s_m_source_file>  (1) 
generated__ligand_DiffSBDD_2026-05-06_prepared.sdf

>  <GenAI_Model>  (1) 
DiffSBDD

>  <Protein>  (1) 
generic_title2

$$$$
DiffSBDD_0_num_sample_50
     RDKit          3D

  0  0  0  0  0  0  0  0  0  0999 V3000
M  V30 BEGIN CTAB
M  V30 COUNTS 58 61 0 0 1
M  V30 BEGIN ATOM
M  V30 1 C 12.098951 8.980599 -5.212099 0
M  V30 2 C 8.498614 5.570887 -11.642543 0 CFG=2
M  V30 3 N 8.799269 6.169590 -10.320088 0 CFG=2 CHG=1
M  V30 4 N 10.046495 8.017680 -8.105875 0
M  V30 5 C 7.190059 1.265744 -15.200284 0
M  V30 6 C 5.788641 1.874305 -13.121626 0
M  V30 7 C 5.920417 5.906907 -11.693669 0
M  V30 8 S 8.235297 2.721042 -13.091847 0
M  V30 9 O 8.235221 5.369321 -8.269273 0
M  V30 10 C 11.311898 8.163289 -6.058818 0
M  V30 11 C 8.840471 6.635831 -12.697472 0
M  V30 12 C 11.093224 8.569129 -7.483166 0
M  V30 13 C 11.003640 7.077305 -11.392799 0
M  V30 14 C 7.095306 4.902864 -11.744304 0 CFG=1
M  V30 15 C 9.693694 8.390335 -9.480512 0
M  V30 16 N 5.056362 5.772808 -10.691584 0
M  V30 17 O 5.799038 6.771368 -12.555624 0
M  V30 18 F 12.087527 6.989852 -2.131873 0
M  V30 19 O 11.834844 9.369350 -8.017135 0
M  V30 20 C 12.353975 8.586736 -3.888650 0
M  V30 21 C 7.015046 4.055958 -13.034775 0 CFG=2
M  V30 22 C 9.727599 7.598144 -11.981491 0 CFG=2
M  V30 23 C 11.039571 6.568699 -4.241641 0
M  V30 24 F 6.337825 0.324727 -15.606680 0
M  V30 25 F 6.940534 2.400162 -15.853200 0
M  V30 26 C 9.763238 7.289636 -10.516482 0 CFG=2
M  V30 27 C 9.214589 5.194824 -9.280857 0
M  V30 28 F 13.105749 9.369657 -3.084548 0
M  V30 29 C 11.834846 7.375559 -3.405368 0
M  V30 30 C 7.129016 1.434655 -13.671933 0 CFG=2
M  V30 31 C 5.658501 3.397440 -13.283417 0
M  V30 32 C 10.770101 6.961666 -5.562367 0
M  V30 33 H 12.514184 9.906134 -5.585061 0
M  V30 34 H 9.263128 4.802300 -11.765463 0
M  V30 35 H 9.454890 7.364384 -7.611930 0
M  V30 36 H 8.184164 0.940220 -15.506680 0
M  V30 37 H 4.950158 1.329530 -13.552362 0
M  V30 38 H 5.835678 1.640467 -12.056162 0
M  V30 39 H 7.769692 6.198120 -8.342820 0
M  V30 40 H 8.012311 7.196456 -13.113931 0
M  V30 41 H 9.366632 6.169291 -13.528491 0
M  V30 42 H 11.827897 7.769290 -11.242942 0
M  V30 43 H 11.286828 6.156455 -11.891673 0
M  V30 44 H 6.984513 4.216181 -10.902097 0
M  V30 45 H 10.367016 9.160804 -9.846313 0
M  V30 46 H 8.733184 8.907737 -9.495332 0
M  V30 47 H 5.187467 5.048832 -9.994591 0
M  V30 48 H 4.274674 6.407113 -10.619577 0
M  V30 49 H 7.238615 4.700130 -13.886986 0
M  V30 50 H 9.683272 8.636892 -12.291533 0
M  V30 51 H 10.635945 5.647434 -3.866798 0
M  V30 52 H 10.213097 5.389701 -8.888690 0
M  V30 53 H 9.201412 4.169430 -9.645160 0
M  V30 54 H 7.419382 0.492233 -13.207253 0
M  V30 55 H 4.837046 3.769400 -12.676110 0
M  V30 56 H 5.434976 3.717843 -14.291672 0
M  V30 57 H 10.169121 6.326959 -6.197314 0
M  V30 58 H 7.952606 6.656616 -10.022417 0
M  V30 END ATOM
M  V30 BEGIN BOND
M  V30 1 1 3 2
M  V30 2 2 10 1
M  V30 3 1 11 2
M  V30 4 1 12 4
M  V30 5 1 12 10
M  V30 6 1 14 2
M  V30 7 1 14 7
M  V30 8 1 15 4
M  V30 9 1 16 7
M  V30 10 2 17 7
M  V30 11 2 19 12
M  V30 12 1 20 1
M  V30 13 1 21 8
M  V30 14 1 21 14
M  V30 15 1 22 11
M  V30 16 1 22 13
M  V30 17 1 24 5
M  V30 18 1 25 5
M  V30 19 1 26 3
M  V30 20 1 26 13
M  V30 21 1 26 15 CFG=1
M  V30 22 1 26 22
M  V30 23 1 27 3
M  V30 24 1 27 9
M  V30 25 1 28 20
M  V30 26 1 29 18
M  V30 27 2 29 20
M  V30 28 1 29 23
M  V30 29 1 30 5
M  V30 30 1 30 6
M  V30 31 1 30 8
M  V30 32 1 31 6
M  V30 33 1 31 21
M  V30 34 1 32 10
M  V30 35 2 32 23
M  V30 36 1 33 1
M  V30 37 1 2 34 CFG=3
M  V30 38 1 35 4
M  V30 39 1 36 5
M  V30 40 1 37 6
M  V30 41 1 38 6
M  V30 42 1 39 9
M  V30 43 1 40 11
M  V30 44 1 41 11
M  V30 45 1 42 13
M  V30 46 1 43 13
M  V30 47 1 14 44 CFG=1
M  V30 48 1 45 15
M  V30 49 1 46 15
M  V30 50 1 47 16
M  V30 51 1 48 16
M  V30 52 1 21 49 CFG=3
M  V30 53 1 22 50 CFG=1
M  V30 54 1 51 23
M  V30 55 1 52 27
M  V30 56 1 53 27
M  V30 57 1 30 54 CFG=1
M  V30 58 1 55 31
M  V30 59 1 56 31
M  V30 60 1 57 32
M  V30 61 1 3 58 CFG=1
M  V30 END BOND
M  V30 END CTAB
M  END
>  <i_epik_Tot_Q>  (1) 
1

>  <i_epik_Tot_abs_Q>  (1) 
1

>  <i_i_glide_confnum>  (1) 
10

>  <i_i_glide_lignum>  (1) 
2

>  <i_i_glide_posenum>  (1) 
33

>  <i_i_glide_rotatable_bonds>  (1) 
10

>  <i_lp_mmshare_version>  (1) 
72125

>  <i_m_source_file_index>  (1) 
1

>  <i_f3d_flags>  (1) 
0

>  <num_sample>  (1) 
50

>  <b_lp_Chiralities_Consistent>  (1) 
1

>  <r_epik_Charging_Adjusted_Penalty>  (1) 
2.6270329568783799

>  <r_epik_Ionization_Penalty>  (1) 
1.3408557112072272

>  <r_epik_Ionization_Penalty_Charging>  (1) 
1.3119003563655398

>  <r_epik_Ionization_Penalty_Neutral>  (1) 
0.028955354841687337

>  <r_epik_State_Penalty>  (1) 
1.3151326005128403

>  <r_glide_ring_energy>  (1) 
1.7094833596619941

>  <r_i_docking_score>  (1) 
-6.9441918215999499

>  <r_i_glide_ecoul>  (1) 
-11.027621355433622

>  <r_i_glide_eff_state_penalty>  (1) 
1.3151326005128403

>  <r_i_glide_einternal>  (1) 
5.6921190115191216

>  <r_i_glide_emodel>  (1) 
-62.056330048633292

>  <r_i_glide_emodel_strain>  (1) 
1.9086245240959556

>  <r_i_glide_energy>  (1) 
-41.897359580498438

>  <r_i_glide_erotb>  (1) 
0.53508942527165992

>  <r_i_glide_esite>  (1) 
-0.27574768506590808

>  <r_i_glide_evdw>  (1) 
-30.869738225064815

>  <r_i_glide_gscore>  (1) 
-8.2593244221127904

>  <r_i_glide_gscore_strain>  (1) 
0

>  <r_i_glide_hbond>  (1) 
-0.65601232435343215

>  <r_i_glide_ligand_efficiency>  (1) 
-0.21700599442499843

>  <r_i_glide_ligand_efficiency_ln>  (1) 
-1.5549938403760939

>  <r_i_glide_ligand_efficiency_sa>  (1) 
-0.68895108766729563

>  <r_i_glide_lipo>  (1) 
-2.4524444777293293

>  <r_i_glide_metal>  (1) 
-0

>  <r_i_glide_rewards>  (1) 
-2.2125792456674955

>  <r_lp_Energy>  (1) 
13.303457999999999

>  <s_epik_Chemistry_Notes>  (1) 
This compound contains an acetal/aminal-like group ( X-CH(R)-Y where X, Y are N, S, or O) that may be acid/base labile, releasing an aldehyde.

>  <s_epik_cmdline>  (1) 
J2VwaWtfcHl0aG9uJywgJy1waHQnLCAnMS4wJywgJy1waCcsICc3LjQnLCAnLXRuJywgJzgnLCAnLW1hJywgJzUwMCcsICctaW1hZScsICc8aW5maWxlLm1hZT4nLCAnLW9tYWUnLCAnPG91dGZpbGUubWFlPic=

>  <s_epik_input>  (1) 
W2NIXTFbY0hdYyhGKWMoRilbY0hdYzFDKD1PKVtOSF1bQ0gyXVtDQF0yM1tDQEBIXShbQ0gyXTMpW0NIMl1bQ0BASF0oTjJbQ0gyXVtPSF0pW0NAQEhdKEMoPU8pW05IMl0pW0NASF00U1tDQEhdKFtDSF0oRilGKVtDSDJdW0NIMl00

>  <s_glide_docking_method>  (1) 
confgen

>  <s_i_glide_gridfile>  (1) 
gpcr_drd2_6luq_protein_autoprepared_prepared

>  <s_lp_Force_Field>  (1) 
S-OPLS

>  <s_lp_Variant>  (1) 
DiffSBDD_0_num_sample_50-2

>  <s_m_source_file>  (1) 
generated__ligand_DiffSBDD_2026-05-06_prepared.sdf

>  <GenAI_Model>  (1) 
DiffSBDD

>  <Protein>  (1) 
generic_title2

$$$$
DiffSBDD_0_num_sample_50
     RDKit          3D

  0  0  0  0  0  0  0  0  0  0999 V3000
M  V30 BEGIN CTAB
M  V30 COUNTS 58 61 0 0 1
M  V30 BEGIN ATOM
M  V30 1 C 10.702658 6.432372 -5.949239 0
M  V30 2 C 6.657320 6.290659 -13.070067 0 CFG=2
M  V30 3 N 7.414563 6.880222 -11.915098 0 CFG=1 CHG=1
M  V30 4 N 9.832772 6.500290 -9.539887 0
M  V30 5 C 4.187248 7.177763 -18.421652 0
M  V30 6 C 6.214071 5.654156 -18.069202 0
M  V30 7 C 8.515929 4.882984 -14.289626 0
M  V30 8 S 5.572334 7.285991 -16.014427 0
M  V30 9 O 8.634841 8.619723 -11.091788 0
M  V30 10 C 10.404369 6.957090 -7.227160 0
M  V30 11 C 6.015293 5.021271 -12.497125 0
M  V30 12 C 9.796059 6.054685 -8.274697 0
M  V30 13 C 6.829028 5.228868 -10.063170 0
M  V30 14 C 7.478960 6.031533 -14.401179 0 CFG=1
M  V30 15 C 9.357852 5.676549 -10.668937 0
M  V30 16 N 9.800151 5.214469 -14.400191 0
M  V30 17 O 8.148770 3.725954 -14.113480 0
M  V30 18 F 12.049116 9.407802 -4.264924 0
M  V30 19 O 9.329963 4.968969 -7.963567 0
M  V30 20 C 11.259780 7.255803 -4.954313 0
M  V30 21 C 6.531222 5.792886 -15.615322 0 CFG=2
M  V30 22 C 6.973555 4.609863 -11.413220 0 CFG=2
M  V30 23 C 11.233647 9.141724 -6.497174 0
M  V30 24 F 4.236188 6.953328 -19.734093 0
M  V30 25 F 3.288829 6.393079 -17.837618 0
M  V30 26 C 7.866645 5.771601 -11.019443 0 CFG=2
M  V30 27 C 8.378495 7.945422 -12.295190 0
M  V30 28 F 11.548406 6.741971 -3.733894 0
M  V30 29 C 11.517476 8.612684 -5.225603 0
M  V30 30 C 5.580124 7.017818 -17.806097 0 CFG=2
M  V30 31 C 7.203657 5.372335 -16.937623 0
M  V30 32 C 10.680099 8.318211 -7.503067 0
M  V30 33 H 10.513624 5.378065 -5.736685 0
M  V30 34 H 5.864401 7.005174 -13.288750 0
M  V30 35 H 10.228562 7.407207 -9.740400 0
M  V30 36 H 3.796020 8.173976 -18.286291 0
M  V30 37 H 5.433599 4.902059 -18.077313 0
M  V30 38 H 6.692536 5.613761 -19.048364 0
M  V30 39 H 8.008165 8.332659 -10.412165 0
M  V30 40 H 5.860923 4.218163 -13.215612 0
M  V30 41 H 5.041729 5.236970 -12.053931 0
M  V30 42 H 7.154715 4.612183 -9.229683 0
M  V30 43 H 5.906298 5.771102 -9.891806 0
M  V30 44 H 8.013579 6.942229 -14.661212 0
M  V30 45 H 9.569982 4.628243 -10.447321 0
M  V30 46 H 9.976856 5.877479 -11.539307 0
M  V30 47 H 10.065301 6.169328 -14.573884 0
M  V30 48 H 10.515493 4.496989 -14.317441 0
M  V30 49 H 5.812776 5.014585 -15.363064 0
M  V30 50 H 7.466326 3.649915 -11.519934 0
M  V30 51 H 11.438801 10.181630 -6.700346 0
M  V30 52 H 7.917983 8.632152 -13.004310 0
M  V30 53 H 9.311433 7.565326 -12.696567 0
M  V30 54 H 6.232301 7.769244 -18.233618 0
M  V30 55 H 8.108276 5.955093 -17.107508 0
M  V30 56 H 7.490397 4.319547 -16.923727 0
M  V30 57 H 10.459021 8.735900 -8.472535 0
M  V30 58 H 6.717775 7.345132 -11.340840 0
M  V30 END ATOM
M  V30 BEGIN BOND
M  V30 1 1 3 2
M  V30 2 2 10 1
M  V30 3 1 11 2
M  V30 4 1 12 4
M  V30 5 1 12 10
M  V30 6 1 14 2
M  V30 7 1 14 7
M  V30 8 1 15 4
M  V30 9 1 16 7
M  V30 10 2 17 7
M  V30 11 2 19 12
M  V30 12 1 20 1
M  V30 13 1 21 8
M  V30 14 1 21 14
M  V30 15 1 22 11
M  V30 16 1 22 13
M  V30 17 1 24 5
M  V30 18 1 25 5
M  V30 19 1 26 3
M  V30 20 1 26 13
M  V30 21 1 26 15 CFG=1
M  V30 22 1 26 22
M  V30 23 1 27 3
M  V30 24 1 27 9
M  V30 25 1 28 20
M  V30 26 1 29 18
M  V30 27 2 29 20
M  V30 28 1 29 23
M  V30 29 1 30 5
M  V30 30 1 30 6
M  V30 31 1 30 8
M  V30 32 1 31 6
M  V30 33 1 31 21
M  V30 34 1 32 10
M  V30 35 2 32 23
M  V30 36 1 33 1
M  V30 37 1 2 34 CFG=3
M  V30 38 1 35 4
M  V30 39 1 36 5
M  V30 40 1 37 6
M  V30 41 1 38 6
M  V30 42 1 39 9
M  V30 43 1 40 11
M  V30 44 1 41 11
M  V30 45 1 42 13
M  V30 46 1 43 13
M  V30 47 1 14 44 CFG=3
M  V30 48 1 45 15
M  V30 49 1 46 15
M  V30 50 1 47 16
M  V30 51 1 48 16
M  V30 52 1 21 49 CFG=1
M  V30 53 1 22 50 CFG=1
M  V30 54 1 51 23
M  V30 55 1 52 27
M  V30 56 1 53 27
M  V30 57 1 30 54 CFG=3
M  V30 58 1 55 31
M  V30 59 1 56 31
M  V30 60 1 57 32
M  V30 61 1 3 58 CFG=1
M  V30 END BOND
M  V30 END CTAB
M  END
>  <i_epik_Tot_Q>  (1) 
1

>  <i_epik_Tot_abs_Q>  (1) 
1

>  <i_i_glide_confnum>  (1) 
246

>  <i_i_glide_lignum>  (1) 
3

>  <i_i_glide_posenum>  (1) 
69

>  <i_i_glide_rotatable_bonds>  (1) 
10

>  <i_lp_mmshare_version>  (1) 
72125

>  <i_m_source_file_index>  (1) 
1

>  <i_f3d_flags>  (1) 
0

>  <num_sample>  (1) 
50

>  <b_lp_Chiralities_Consistent>  (1) 
1

>  <r_epik_Charging_Adjusted_Penalty>  (1) 
2.6270329568783799

>  <r_epik_Ionization_Penalty>  (1) 
1.3408557112072272

>  <r_epik_Ionization_Penalty_Charging>  (1) 
1.3119003563655398

>  <r_epik_Ionization_Penalty_Neutral>  (1) 
0.028955354841687337

>  <r_epik_State_Penalty>  (1) 
1.3151326005128403

>  <r_glide_ring_energy>  (1) 
0

>  <r_i_docking_score>  (1) 
-6.9223648052690114

>  <r_i_glide_ecoul>  (1) 
-13.708988381573716

>  <r_i_glide_eff_state_penalty>  (1) 
1.3151326005128403

>  <r_i_glide_einternal>  (1) 
15.009468511803171

>  <r_i_glide_emodel>  (1) 
-52.930988410138582

>  <r_i_glide_emodel_strain>  (1) 
0.33193992132835604

>  <r_i_glide_energy>  (1) 
-37.207772742565403

>  <r_i_glide_erotb>  (1) 
0.53508942527165992

>  <r_i_glide_esite>  (1) 
-0.26809549585275166

>  <r_i_glide_evdw>  (1) 
-23.498784360991689

>  <r_i_glide_gscore>  (1) 
-8.237497405781852

>  <r_i_glide_gscore_strain>  (1) 
0

>  <r_i_glide_hbond>  (1) 
-0.53565893840974921

>  <r_i_glide_ligand_efficiency>  (1) 
-0.21632390016465661

>  <r_i_glide_ligand_efficiency_ln>  (1) 
-1.550106176437603

>  <r_i_glide_ligand_efficiency_sa>  (1) 
-0.68678557337447943

>  <r_i_glide_lipo>  (1) 
-2.6841780233993329

>  <r_i_glide_metal>  (1) 
-0

>  <r_i_glide_rewards>  (1) 
-2.0533668981060358

>  <r_lp_Energy>  (1) 
18.756574999999998

>  <s_epik_Chemistry_Notes>  (1) 
This compound contains an acetal/aminal-like group ( X-CH(R)-Y where X, Y are N, S, or O) that may be acid/base labile, releasing an aldehyde.

>  <s_epik_cmdline>  (1) 
J2VwaWtfcHl0aG9uJywgJy1waHQnLCAnMS4wJywgJy1waCcsICc3LjQnLCAnLXRuJywgJzgnLCAnLW1hJywgJzUwMCcsICctaW1hZScsICc8aW5maWxlLm1hZT4nLCAnLW9tYWUnLCAnPG91dGZpbGUubWFlPic=

>  <s_epik_input>  (1) 
W2NIXTFbY0hdYyhGKWMoRilbY0hdYzFDKD1PKVtOSF1bQ0gyXVtDQF0yM1tDQEBIXShbQ0gyXTMpW0NIMl1bQ0BASF0oTjJbQ0gyXVtPSF0pW0NAQEhdKEMoPU8pW05IMl0pW0NASF00U1tDQEhdKFtDSF0oRilGKVtDSDJdW0NIMl00

>  <s_glide_docking_method>  (1) 
confgen

>  <s_i_glide_gridfile>  (1) 
gpcr_drd2_6luq_protein_autoprepared_prepared

>  <s_lp_Force_Field>  (1) 
S-OPLS

>  <s_lp_Variant>  (1) 
DiffSBDD_0_num_sample_50-3

>  <s_m_source_file>  (1) 
generated__ligand_DiffSBDD_2026-05-06_prepared.sdf

>  <GenAI_Model>  (1) 
DiffSBDD

>  <Protein>  (1) 
generic_title2

$$$$
DiffSBDD_18_num_sample_50
     RDKit          3D

  0  0  0  0  0  0  0  0  0  0999 V3000
M  V30 BEGIN CTAB
M  V30 COUNTS 58 61 0 0 1
M  V30 BEGIN ATOM
M  V30 1 C 6.756426 5.415948 -15.321029 0
M  V30 2 C 12.420520 8.475163 -8.184447 0 CFG=2
M  V30 3 C 7.893541 1.744005 -15.640632 0
M  V30 4 C 7.239251 4.938873 -17.662178 0
M  V30 5 C 6.819206 5.834702 -16.661354 0
M  V30 6 C 9.773133 6.557618 -8.062567 0
M  V30 7 O 11.409957 7.436369 -10.985438 0
M  V30 8 C 9.932046 6.779555 -9.343548 0
M  V30 9 C 7.044605 3.654966 -13.517129 0 CFG=2
M  V30 10 S 11.554314 8.970271 -5.471843 0
M  V30 11 C 9.445151 6.168754 -6.861511 0
M  V30 12 C 11.271230 8.942627 -9.101648 0
M  V30 13 C 9.258372 5.877593 -10.373977 0
M  V30 14 C 9.939576 6.829860 -5.597462 0
M  V30 15 C 8.301058 4.047205 -12.700401 0
M  V30 16 C 10.534461 7.227458 -12.082918 0
M  V30 17 N 10.650894 7.856203 -9.853073 0
M  V30 18 C 6.731422 2.155618 -13.398321 0
M  V30 19 C 12.587912 9.328237 -6.901254 0
M  V30 20 O 13.618977 8.568764 -8.923682 0
M  V30 21 C 7.592232 3.617893 -17.324887 0
M  V30 22 C 7.528699 3.187378 -15.983461 0
M  V30 23 C 7.113893 4.095188 -14.972803 0
M  V30 24 C 9.840215 5.891629 -11.803474 0 CFG=2
M  V30 25 C 11.434512 7.164699 -5.422752 0
M  V30 26 C 7.743939 1.308463 -14.172340 0
M  V30 27 C 8.763492 5.515210 -12.834549 0
M  V30 28 H 6.435692 6.109425 -14.555143 0
M  V30 29 H 12.315892 7.424497 -7.937522 0
M  V30 30 H 7.239772 1.121264 -16.249509 0
M  V30 31 H 8.905031 1.536229 -15.992218 0
M  V30 32 H 7.287349 5.264050 -18.690976 0
M  V30 33 H 6.546656 6.847833 -16.922120 0
M  V30 34 H 6.201113 4.188097 -13.075734 0
M  V30 35 H 8.736032 5.373001 -6.727009 0
M  V30 36 H 10.475243 9.365974 -8.495509 0
M  V30 37 H 11.592883 9.740279 -9.771012 0
M  V30 38 H 9.293547 4.851995 -9.998733 0
M  V30 39 H 8.207423 6.163060 -10.389619 0
M  V30 40 H 9.652777 6.168207 -4.784264 0
M  V30 41 H 9.325917 7.723709 -5.493128 0
M  V30 42 H 9.147573 3.420714 -12.980875 0
M  V30 43 H 8.093609 3.810134 -11.655757 0
M  V30 44 H 9.828559 8.053361 -12.199288 0
M  V30 45 H 11.120210 7.159030 -13.000426 0
M  V30 46 H 6.698876 1.853848 -12.352357 0
M  V30 47 H 5.735684 1.964076 -13.795657 0
M  V30 48 H 13.625994 9.368827 -6.568394 0
M  V30 49 H 12.234571 10.329115 -7.085267 0
M  V30 50 H 13.844101 9.482611 -9.091710 0
M  V30 51 H 7.907096 2.931150 -18.098203 0
M  V30 52 H 10.622825 5.138895 -11.889527 0
M  V30 53 H 12.164739 6.604528 -6.032346 0
M  V30 54 H 11.710984 6.907223 -4.399205 0
M  V30 55 H 7.478044 0.251620 -14.125650 0
M  V30 56 H 8.711879 1.378485 -13.680456 0
M  V30 57 H 7.918213 6.194122 -12.732068 0
M  V30 58 H 9.170808 5.667234 -13.834535 0
M  V30 END ATOM
M  V30 BEGIN BOND
M  V30 1 1 5 1
M  V30 2 2 5 4
M  V30 3 2 8 6
M  V30 4 2 11 6
M  V30 5 1 12 2
M  V30 6 1 13 8
M  V30 7 1 14 11
M  V30 8 1 15 9
M  V30 9 1 16 7
M  V30 10 1 17 7
M  V30 11 1 17 8
M  V30 12 1 17 12
M  V30 13 1 18 9
M  V30 14 1 19 2
M  V30 15 1 19 10
M  V30 16 1 20 2
M  V30 17 1 21 4
M  V30 18 1 22 3
M  V30 19 2 22 21
M  V30 20 2 23 1
M  V30 21 1 23 9
M  V30 22 1 23 22
M  V30 23 1 24 13
M  V30 24 1 24 16
M  V30 25 1 25 10
M  V30 26 1 25 14
M  V30 27 1 26 3
M  V30 28 1 26 18
M  V30 29 1 27 15
M  V30 30 1 27 24
M  V30 31 1 28 1
M  V30 32 1 2 29 CFG=1
M  V30 33 1 30 3
M  V30 34 1 31 3
M  V30 35 1 32 4
M  V30 36 1 33 5
M  V30 37 1 9 34 CFG=1
M  V30 38 1 35 11
M  V30 39 1 36 12
M  V30 40 1 37 12
M  V30 41 1 38 13
M  V30 42 1 39 13
M  V30 43 1 40 14
M  V30 44 1 41 14
M  V30 45 1 42 15
M  V30 46 1 43 15
M  V30 47 1 44 16
M  V30 48 1 45 16
M  V30 49 1 46 18
M  V30 50 1 47 18
M  V30 51 1 48 19
M  V30 52 1 49 19
M  V30 53 1 50 20
M  V30 54 1 51 21
M  V30 55 1 24 52 CFG=1
M  V30 56 1 53 25
M  V30 57 1 54 25
M  V30 58 1 55 26
M  V30 59 1 56 26
M  V30 60 1 57 27
M  V30 61 1 58 27
M  V30 END BOND
M  V30 END CTAB
M  END
>  <i_epik_Tot_Q>  (1) 
0

>  <i_epik_Tot_abs_Q>  (1) 
0

>  <i_i_glide_confnum>  (1) 
13

>  <i_i_glide_lignum>  (1) 
54

>  <i_i_glide_posenum>  (1) 
294

>  <i_i_glide_rotatable_bonds>  (1) 
4

>  <i_lp_mmshare_version>  (1) 
72125

>  <i_m_source_file_index>  (1) 
19

>  <i_f3d_flags>  (1) 
0

>  <num_sample>  (1) 
50

>  <b_lp_Chiralities_Consistent>  (1) 
1

>  <r_epik_Charging_Adjusted_Penalty>  (1) 
0

>  <r_epik_Ionization_Penalty>  (1) 
0.00079685504618355781

>  <r_epik_Ionization_Penalty_Charging>  (1) 
0

>  <r_epik_Ionization_Penalty_Neutral>  (1) 
0.00079685504618355781

>  <r_epik_State_Penalty>  (1) 
-0

>  <r_glide_ring_energy>  (1) 
0.85507922053399688

>  <r_i_docking_score>  (1) 
-6.8427134159738863

>  <r_i_glide_ecoul>  (1) 
-6.3110365608751824

>  <r_i_glide_eff_state_penalty>  (1) 
-0

>  <r_i_glide_einternal>  (1) 
3.8311096509256926

>  <r_i_glide_emodel>  (1) 
-35.276158553585553

>  <r_i_glide_emodel_strain>  (1) 
4.546115685646825

>  <r_i_glide_energy>  (1) 
-33.42410226437422

>  <r_i_glide_erotb>  (1) 
0.39257817709614257

>  <r_i_glide_esite>  (1) 
-0.012296342277991121

>  <r_i_glide_evdw>  (1) 
-27.113065703499039

>  <r_i_glide_gscore>  (1) 
-6.8427134159738863

>  <r_i_glide_gscore_strain>  (1) 
0.13652892141170625

>  <r_i_glide_hbond>  (1) 
-0.32000000000000001

>  <r_i_glide_ligand_efficiency>  (1) 
-0.25343383022125504

>  <r_i_glide_ligand_efficiency_ln>  (1) 
-1.5928708722914038

>  <r_i_glide_ligand_efficiency_sa>  (1) 
-0.76030149066376529

>  <r_i_glide_lipo>  (1) 
-3.0570314483520575

>  <r_i_glide_metal>  (1) 
-0

>  <r_i_glide_rewards>  (1) 
-1.680183954545456

>  <r_lp_Energy>  (1) 
7.009665

>  <r_lp_tautomer_probability>  (1) 
1

>  <s_epik_Chemistry_Notes>  (1) 
This compound has a N-S or N-O group and may undergo hydrolysis at high or low pH.

>  <s_epik_cmdline>  (1) 
J2VwaWtfcHl0aG9uJywgJy1waHQnLCAnMS4wJywgJy1waCcsICc3LjQnLCAnLXRuJywgJzgnLCAnLW1hJywgJzUwMCcsICctaW1hZScsICc8aW5maWxlLm1hZT4nLCAnLW9tYWUnLCAnPG91dGZpbGUubWFlPic=

>  <s_epik_input>  (1) 
W2NIXTFbY0hdW2NIXVtjSF1jKGMxMilbQ0BASF0oW0NIMl1bQ0gyXVtDSDJdMilbQ0gyXVtDSDJdW0NASF0oW0NIMl0zKVtDSDJdT04oQzM0KVtDSDJdW0NAQEhdKFtPSF0pW0NIMl1TW0NIMl1bQ0gyXVtDSF09Qz00

>  <s_glide_docking_method>  (1) 
confgen

>  <s_i_glide_gridfile>  (1) 
gpcr_drd2_6luq_protein_autoprepared_prepared

>  <s_lp_Force_Field>  (1) 
S-OPLS

>  <s_lp_Variant>  (1) 
DiffSBDD_18_num_sample_50-1

>  <s_m_source_file>  (1) 
generated__ligand_DiffSBDD_2026-05-06_prepared.sdf

>  <GenAI_Model>  (1) 
DiffSBDD

>  <Protein>  (1) 
generic_title2

$$$$
DiffSBDD_14_num_sample_50
     RDKit          3D

  0  0  0  0  0  0  0  0  0  0999 V3000
M  V30 BEGIN CTAB
M  V30 COUNTS 70 74 0 0 1
M  V30 BEGIN ATOM
M  V30 1 C 7.074302 5.450407 -17.183343 0 CFG=2
M  V30 2 C 8.427413 4.814162 -11.231279 0 CFG=1
M  V30 3 C 8.865926 4.078684 -18.438040 0
M  V30 4 C 6.492126 6.592424 -19.308041 0
M  V30 5 C 6.024223 5.482938 -13.310915 0
M  V30 6 C 11.438489 7.291729 -4.591929 0
M  V30 7 O 11.753767 6.540835 -3.481350 0
M  V30 8 C 9.457824 4.617140 -10.163469 0
M  V30 9 O 7.435143 4.682014 -9.119845 0
M  V30 10 C 10.462490 6.686146 -8.241301 0
M  V30 11 N 9.034702 6.354643 -8.427933 0 CHG=1
M  V30 12 N 5.838104 4.415948 -12.507165 0
M  V30 13 C 7.285271 5.556891 -15.621386 0 CFG=2
M  V30 14 C 8.419638 5.477232 -17.975857 0 CFG=1
M  V30 15 C 5.862510 4.492108 -11.039855 0
M  V30 16 C 12.490756 8.577503 -2.397620 0
M  V30 17 O 11.834638 9.365239 -3.381678 0
M  V30 18 C 4.603277 6.518158 -17.608961 0
M  V30 19 O 6.207567 6.622510 -12.888734 0
M  V30 20 C 8.407435 4.596845 -15.141114 0
M  V30 21 C 7.151686 5.103443 -10.456682 0 CFG=2
M  V30 22 C 11.093366 6.642182 -5.790663 0
M  V30 23 O 8.817517 5.944482 -11.993971 0
M  V30 24 C 11.815383 7.216285 -2.234809 0
M  V30 25 C 6.101564 6.456996 -17.854069 0
M  V30 26 S 8.275468 6.569464 -19.407273 0
M  V30 27 C 11.162371 9.455528 -5.694467 0
M  V30 28 C 6.004975 5.213828 -14.812731 0
M  V30 29 C 5.489057 7.623756 -17.098763 0
M  V30 30 C 10.791027 7.392320 -6.941596 0
M  V30 31 C 10.821029 8.795955 -6.890971 0
M  V30 32 C 8.763533 4.823372 -8.824358 0 CFG=2
M  V30 33 C 11.482648 8.710999 -4.544662 0
M  V30 34 H 6.634354 4.469488 -17.363940 0
M  V30 35 H 8.346399 3.916498 -11.845737 0
M  V30 36 H 8.969717 3.384769 -17.605312 0
M  V30 37 H 8.150189 3.647597 -19.139276 0
M  V30 38 H 9.830590 4.126107 -18.942689 0
M  V30 39 H 6.092405 5.746897 -19.870215 0
M  V30 40 H 6.093514 7.509956 -19.741823 0
M  V30 41 H 9.834679 3.599593 -10.216911 0
M  V30 42 H 10.234827 5.332876 -10.321756 0
M  V30 43 H 11.034888 5.761325 -8.246161 0
M  V30 44 H 10.813463 7.278271 -9.087759 0
M  V30 45 H 8.586364 6.967705 -9.104611 0
M  V30 46 H 5.692885 3.509289 -12.926534 0
M  V30 47 H 7.594907 6.573693 -15.375946 0
M  V30 48 H 9.214456 5.920807 -17.378795 0
M  V30 49 H 5.745843 3.477582 -10.659846 0
M  V30 50 H 5.003573 5.053776 -10.679444 0
M  V30 51 H 12.506202 9.119606 -1.450521 0
M  V30 52 H 13.521655 8.422548 -2.690918 0
M  V30 53 H 3.962223 6.775576 -18.450931 0
M  V30 54 H 4.162218 5.793934 -16.935558 0
M  V30 55 H 8.201167 3.571656 -15.447985 0
M  V30 56 H 9.396953 4.868080 -15.505413 0
M  V30 57 H 8.500288 4.568562 -14.061500 0
M  V30 58 H 6.998153 6.168603 -10.454560 0
M  V30 59 H 11.076675 5.568010 -5.829891 0
M  V30 60 H 8.041662 6.287500 -12.425436 0
M  V30 61 H 10.821803 7.307585 -1.800030 0
M  V30 62 H 12.395573 6.600136 -1.546988 0
M  V30 63 H 11.187269 10.534187 -5.663559 0
M  V30 64 H 5.830589 4.162076 -14.966634 0
M  V30 65 H 5.128672 5.745132 -15.148443 0
M  V30 66 H 5.627611 7.712377 -16.024045 0
M  V30 67 H 5.434832 8.569788 -17.621532 0
M  V30 68 H 10.592486 9.367825 -7.773864 0
M  V30 69 H 9.080074 4.165026 -8.019967 0
M  V30 70 H 8.545022 6.553530 -7.564682 0
M  V30 END ATOM
M  V30 BEGIN BOND
M  V30 1 1 7 6
M  V30 2 1 8 2
M  V30 3 1 11 10
M  V30 4 1 12 5
M  V30 5 1 13 1
M  V30 6 1 14 1
M  V30 7 1 14 3
M  V30 8 1 15 12
M  V30 9 1 17 16
M  V30 10 2 19 5
M  V30 11 1 20 13
M  V30 12 1 21 2
M  V30 13 1 21 9
M  V30 14 1 21 15
M  V30 15 1 22 6
M  V30 16 1 23 2
M  V30 17 1 24 7
M  V30 18 1 24 16
M  V30 19 1 25 1
M  V30 20 1 25 4
M  V30 21 1 25 18
M  V30 22 1 26 4
M  V30 23 1 26 14
M  V30 24 1 28 5
M  V30 25 1 28 13
M  V30 26 1 29 18
M  V30 27 1 29 25
M  V30 28 1 30 10
M  V30 29 2 30 22
M  V30 30 2 31 27
M  V30 31 1 31 30
M  V30 32 1 32 8
M  V30 33 1 32 9
M  V30 34 1 32 11
M  V30 35 2 33 6
M  V30 36 1 33 17
M  V30 37 1 33 27
M  V30 38 1 1 34 CFG=1
M  V30 39 1 2 35 CFG=3
M  V30 40 1 36 3
M  V30 41 1 37 3
M  V30 42 1 38 3
M  V30 43 1 39 4
M  V30 44 1 40 4
M  V30 45 1 41 8
M  V30 46 1 42 8
M  V30 47 1 43 10
M  V30 48 1 44 10
M  V30 49 1 45 11
M  V30 50 1 46 12
M  V30 51 1 13 47 CFG=3
M  V30 52 1 14 48 CFG=1
M  V30 53 1 49 15
M  V30 54 1 50 15
M  V30 55 1 51 16
M  V30 56 1 52 16
M  V30 57 1 53 18
M  V30 58 1 54 18
M  V30 59 1 55 20
M  V30 60 1 56 20
M  V30 61 1 57 20
M  V30 62 1 21 58 CFG=1
M  V30 63 1 59 22
M  V30 64 1 60 23
M  V30 65 1 61 24
M  V30 66 1 62 24
M  V30 67 1 63 27
M  V30 68 1 64 28
M  V30 69 1 65 28
M  V30 70 1 66 29
M  V30 71 1 67 29
M  V30 72 1 68 31
M  V30 73 1 32 69 CFG=1
M  V30 74 1 70 11
M  V30 END BOND
M  V30 END CTAB
M  END
>  <i_epik_Tot_Q>  (1) 
1

>  <i_epik_Tot_abs_Q>  (1) 
1

>  <i_i_glide_confnum>  (1) 
1267

>  <i_i_glide_lignum>  (1) 
51

>  <i_i_glide_posenum>  (1) 
275

>  <i_i_glide_rotatable_bonds>  (1) 
10

>  <i_lp_mmshare_version>  (1) 
72125

>  <i_m_source_file_index>  (1) 
15

>  <i_f3d_flags>  (1) 
0

>  <num_sample>  (1) 
50

>  <b_lp_Chiralities_Consistent>  (1) 
1

>  <r_epik_Charging_Adjusted_Penalty>  (1) 
1.0556351429747846

>  <r_epik_Ionization_Penalty>  (1) 
0.52782311309915253

>  <r_epik_Ionization_Penalty_Charging>  (1) 
0.52781757148739228

>  <r_epik_Ionization_Penalty_Neutral>  (1) 
5.5416117603015013e-06

>  <r_epik_State_Penalty>  (1) 
0.52781757148739217

>  <r_glide_ring_energy>  (1) 
0.68507024839288677

>  <r_i_docking_score>  (1) 
-6.8396949504135174

>  <r_i_glide_ecoul>  (1) 
-4.2532581336732189

>  <r_i_glide_eff_state_penalty>  (1) 
0.52781757148739217

>  <r_i_glide_einternal>  (1) 
138.8403438196811

>  <r_i_glide_emodel>  (1) 
8.2485710335965621

>  <r_i_glide_emodel_strain>  (1) 
1.9465003244994961

>  <r_i_glide_energy>  (1) 
-40.289844042641668

>  <r_i_glide_erotb>  (1) 
0.5594165747052372

>  <r_i_glide_esite>  (1) 
-0.090092659189241753

>  <r_i_glide_evdw>  (1) 
-36.036585908968448

>  <r_i_glide_gscore>  (1) 
-7.3675125219009097

>  <r_i_glide_gscore_strain>  (1) 
0

>  <r_i_glide_hbond>  (1) 
-0.16003162192673473

>  <r_i_glide_ligand_efficiency>  (1) 
-0.20726348334586417

>  <r_i_glide_ligand_efficiency_ln>  (1) 
-1.5211127429268319

>  <r_i_glide_ligand_efficiency_sa>  (1) 
-0.66480473818637764

>  <r_i_glide_lipo>  (1) 
-3.8452978545038174

>  <r_i_glide_metal>  (1) 
-0

>  <r_i_glide_rewards>  (1) 
-1.3916889454869465

>  <r_lp_Energy>  (1) 
8.7074730000000002

>  <r_lp_tautomer_probability>  (1) 
1

>  <s_epik_Chemistry_Notes>  (1) 
This compound contains an acetal/aminal-like group ( X-CH(R)-Y where X, Y are N, S, or O) that may be acid/base labile, releasing an aldehyde.

>  <s_epik_cmdline>  (1) 
J2VwaWtfcHl0aG9uJywgJy1waHQnLCAnMS4wJywgJy1waCcsICc3LjQnLCAnLXRuJywgJzgnLCAnLW1hJywgJzUwMCcsICctaW1hZScsICc8aW5maWxlLm1hZT4nLCAnLW9tYWUnLCAnPG91dGZpbGUubWFlPic=

>  <s_epik_input>  (1) 
W0NIMl0xU1tDQEhdKFtDSDNdKVtDQEhdKEMxMltDSDJdW0NIMl0yKVtDQEhdKFtDSDNdKVtDSDJdQyg9TylbTkhdW0NIMl1bQ0BIXTNPW0NAQEhdKFtDSDJdW0NAQEhdM1tPSF0pW05IXVtDSDJdYyhbY0hdNClbY0hdW2NIXWMoYzQ1KU9bQ0gyXVtDSDJdTzU=

>  <s_glide_docking_method>  (1) 
confgen

>  <s_i_glide_gridfile>  (1) 
gpcr_drd2_6luq_protein_autoprepared_prepared

>  <s_lp_Force_Field>  (1) 
S-OPLS

>  <s_lp_Variant>  (1) 
DiffSBDD_14_num_sample_50-2

>  <s_m_source_file>  (1) 
generated__ligand_DiffSBDD_2026-05-06_prepared.sdf

>  <GenAI_Model>  (1) 
DiffSBDD

>  <Protein>  (1) 
generic_title2

$$$$
DiffSBDD_29_num_sample_50
     RDKit          3D

  0  0  0  0  0  0  0  0  0  0999 V3000
M  V30 BEGIN CTAB
M  V30 COUNTS 64 67 0 0 1
M  V30 BEGIN ATOM
M  V30 1 C 11.434830 7.500974 -5.550562 0
M  V30 2 O 7.749318 5.722484 -11.875021 0
M  V30 3 C 7.921796 5.183121 -15.669340 0
M  V30 4 C 11.154384 6.063669 -5.788989 0
M  V30 5 O 7.099537 2.866163 -12.697872 0
M  V30 6 N 9.034841 6.544685 -9.058562 0 CFG=1 CHG=1
M  V30 7 C 8.188214 4.338847 -14.407667 0
M  V30 8 C 6.621615 7.022765 -14.392373 0
M  V30 9 C 5.469431 7.434778 -12.173840 0
M  V30 10 C 11.918227 9.443524 -4.261218 0
M  V30 11 C 9.330022 6.057149 -7.688295 0
M  V30 12 C 9.435371 7.959619 -9.271477 0
M  V30 13 C 7.474325 1.616898 -13.277675 0
M  V30 14 C 6.605350 5.190909 -12.546537 0 CFG=1
M  V30 15 C 11.447571 8.254307 -6.653133 0
M  V30 16 C 10.919793 8.160122 -9.030764 0
M  V30 17 C 10.837475 6.172387 -7.380052 0 CFG=1
M  V30 18 C 5.866154 6.370582 -13.215477 0 CFG=2
M  V30 19 C 11.722574 8.059289 -4.306751 0
M  V30 20 C 8.230854 4.923539 -10.803237 0
M  V30 21 N 11.630089 9.586611 -6.691694 0
M  V30 22 C 6.955634 4.026947 -13.520559 0 CFG=2
M  V30 23 C 6.714430 6.131575 -15.638361 0
M  V30 24 N 11.320409 7.516761 -7.786191 0
M  V30 25 C 11.834812 10.169332 -5.481911 0
M  V30 26 N 11.929130 6.574006 -2.169628 0
M  V30 27 C 9.431549 5.606354 -10.140341 0
M  V30 28 C 11.834842 7.234469 -3.111657 0
M  V30 29 C 6.547817 1.153312 -14.409478 0
M  V30 30 H 7.785589 4.509079 -16.515756 0
M  V30 31 H 8.822994 5.752739 -15.899187 0
M  V30 32 H 12.031084 5.452960 -5.573308 0
M  V30 33 H 10.293938 5.769309 -5.190749 0
M  V30 34 H 8.634451 3.420757 -14.775837 0
M  V30 35 H 8.970267 4.805371 -13.809286 0
M  V30 36 H 6.071293 7.914682 -14.691722 0
M  V30 37 H 7.608313 7.369635 -14.083559 0
M  V30 38 H 6.344372 7.980296 -11.819394 0
M  V30 39 H 4.777050 8.167905 -12.589578 0
M  V30 40 H 4.988003 6.988792 -11.303365 0
M  V30 41 H 12.120676 9.946294 -3.326623 0
M  V30 42 H 8.977401 5.033241 -7.558896 0
M  V30 43 H 8.757934 6.668736 -6.987878 0
M  V30 44 H 8.908736 8.593997 -8.558069 0
M  V30 45 H 9.143065 8.297261 -10.266900 0
M  V30 46 H 8.514343 1.633473 -13.601138 0
M  V30 47 H 7.439325 0.876059 -12.478918 0
M  V30 48 H 5.915339 4.799086 -11.795900 0
M  V30 49 H 11.174419 9.219667 -9.068570 0
M  V30 50 H 11.486290 7.693488 -9.837007 0
M  V30 51 H 11.380088 5.389031 -7.891653 0
M  V30 52 H 4.940334 5.962184 -13.615303 0
M  V30 53 H 8.580334 3.967843 -11.190628 0
M  V30 54 H 7.448513 4.714123 -10.071603 0
M  V30 55 H 6.092159 3.832626 -14.156388 0
M  V30 56 H 5.789552 5.569004 -15.767204 0
M  V30 57 H 6.774946 6.772325 -16.519173 0
M  V30 58 H 11.947340 11.238876 -5.491674 0
M  V30 59 H 10.047551 6.094369 -10.897101 0
M  V30 60 H 10.038632 4.817062 -9.702251 0
M  V30 61 H 6.827111 0.156664 -14.753199 0
M  V30 62 H 5.512408 1.105796 -14.071987 0
M  V30 63 H 6.603166 1.817534 -15.271254 0
M  V30 64 H 8.019637 6.662370 -9.119685 0
M  V30 END ATOM
M  V30 BEGIN BOND
M  V30 1 1 4 1
M  V30 2 1 7 3
M  V30 3 1 11 6
M  V30 4 1 12 6
M  V30 5 1 13 5
M  V30 6 1 14 2
M  V30 7 1 15 1
M  V30 8 1 16 12
M  V30 9 1 17 4
M  V30 10 1 17 11
M  V30 11 1 18 8
M  V30 12 1 18 9
M  V30 13 1 18 14
M  V30 14 2 19 1
M  V30 15 1 19 10
M  V30 16 1 20 2
M  V30 17 2 21 15
M  V30 18 1 22 5
M  V30 19 1 22 7
M  V30 20 1 22 14
M  V30 21 1 23 3
M  V30 22 1 23 8
M  V30 23 1 24 15
M  V30 24 1 24 16
M  V30 25 1 24 17
M  V30 26 2 25 10
M  V30 27 1 25 21
M  V30 28 1 27 6
M  V30 29 1 27 20
M  V30 30 1 28 19
M  V30 31 3 28 26
M  V30 32 1 29 13
M  V30 33 1 30 3
M  V30 34 1 31 3
M  V30 35 1 32 4
M  V30 36 1 33 4
M  V30 37 1 34 7
M  V30 38 1 35 7
M  V30 39 1 36 8
M  V30 40 1 37 8
M  V30 41 1 38 9
M  V30 42 1 39 9
M  V30 43 1 40 9
M  V30 44 1 41 10
M  V30 45 1 42 11
M  V30 46 1 43 11
M  V30 47 1 44 12
M  V30 48 1 45 12
M  V30 49 1 46 13
M  V30 50 1 47 13
M  V30 51 1 14 48 CFG=1
M  V30 52 1 49 16
M  V30 53 1 50 16
M  V30 54 1 17 51 CFG=3
M  V30 55 1 18 52 CFG=3
M  V30 56 1 53 20
M  V30 57 1 54 20
M  V30 58 1 22 55 CFG=3
M  V30 59 1 56 23
M  V30 60 1 57 23
M  V30 61 1 58 25
M  V30 62 1 59 27
M  V30 63 1 60 27
M  V30 64 1 61 29
M  V30 65 1 62 29
M  V30 66 1 63 29
M  V30 67 1 6 64 CFG=1
M  V30 END BOND
M  V30 END CTAB
M  END
>  <i_epik_Tot_Q>  (1) 
1

>  <i_epik_Tot_abs_Q>  (1) 
1

>  <i_i_glide_confnum>  (1) 
213

>  <i_i_glide_lignum>  (1) 
76

>  <i_i_glide_posenum>  (1) 
193

>  <i_i_glide_rotatable_bonds>  (1) 
6

>  <i_lp_mmshare_version>  (1) 
72125

>  <i_m_source_file_index>  (1) 
30

>  <i_f3d_flags>  (1) 
0

>  <num_sample>  (1) 
50

>  <b_lp_Chiralities_Consistent>  (1) 
1

>  <r_epik_Charging_Adjusted_Penalty>  (1) 
1.0026227849201053

>  <r_epik_Ionization_Penalty>  (1) 
0.50131159217577048

>  <r_epik_Ionization_Penalty_Charging>  (1) 
0.50131139246005263

>  <r_epik_Ionization_Penalty_Neutral>  (1) 
1.9971571790720627e-07

>  <r_epik_State_Penalty>  (1) 
0.50131139246005263

>  <r_glide_ring_energy>  (1) 
0.98146617588620499

>  <r_i_docking_score>  (1) 
-6.8306129096911414

>  <r_i_glide_ecoul>  (1) 
-6.1701149349888649

>  <r_i_glide_eff_state_penalty>  (1) 
0.50131139246005263

>  <r_i_glide_einternal>  (1) 
18.333257860935827

>  <r_i_glide_emodel>  (1) 
-41.468461892778038

>  <r_i_glide_emodel_strain>  (1) 
0.21699563255764076

>  <r_i_glide_energy>  (1) 
-39.030494272484951

>  <r_i_glide_erotb>  (1) 
0.42959825739445412

>  <r_i_glide_esite>  (1) 
-0.10000000000000001

>  <r_i_glide_evdw>  (1) 
-32.860379337496084

>  <r_i_glide_gscore>  (1) 
-7.3319243021511937

>  <r_i_glide_gscore_strain>  (1) 
0

>  <r_i_glide_hbond>  (1) 
-0.15772699581829716

>  <r_i_glide_ligand_efficiency>  (1) 
-0.23553837619624626

>  <r_i_glide_ligand_efficiency_ln>  (1) 
-1.5640371469207974

>  <r_i_glide_ligand_efficiency_sa>  (1) 
-0.7236485162824503

>  <r_i_glide_lipo>  (1) 
-2.6107330554424517

>  <r_i_glide_metal>  (1) 
-0

>  <r_i_glide_rewards>  (1) 
-2.3245263011617636

>  <r_lp_Energy>  (1) 
44.423873

>  <s_epik_cmdline>  (1) 
J2VwaWtfcHl0aG9uJywgJy1waHQnLCAnMS4wJywgJy1waCcsICc3LjQnLCAnLXRuJywgJzgnLCAnLW1hJywgJzUwMCcsICctaW1hZScsICc8aW5maWxlLm1hZT4nLCAnLW9tYWUnLCAnPG91dGZpbGUubWFlPic=

>  <s_epik_input>  (1) 
TiNDYzFbY0hdW2NIXW5jKGMxMilOM1tDQEhdKFtDSDJdMilbQ0gyXU4oW0NIMl1bQ0gyXTMpW0NIMl1bQ0gyXU9bQ0BIXTRbQ0BASF0oW0NIM10pW0NIMl1bQ0gyXVtDSDJdW0NIMl1bQ0BIXTRPW0NIMl1bQ0gzXQ==

>  <s_glide_docking_method>  (1) 
confgen

>  <s_i_glide_gridfile>  (1) 
gpcr_drd2_6luq_protein_autoprepared_prepared

>  <s_lp_Force_Field>  (1) 
S-OPLS

>  <s_lp_Variant>  (1) 
DiffSBDD_29_num_sample_50-6

>  <s_m_source_file>  (1) 
generated__ligand_DiffSBDD_2026-05-06_prepared.sdf

>  <GenAI_Model>  (1) 
DiffSBDD

>  <Protein>  (1) 
generic_title2

$$$$
DiffSBDD_28_num_sample_50
     RDKit          3D

  0  0  0  0  0  0  0  0  0  0999 V3000
M  V30 BEGIN CTAB
M  V30 COUNTS 71 73 0 0 1
M  V30 BEGIN ATOM
M  V30 1 N 9.292560 7.090542 -10.242848 0 CFG=1 CHG=1
M  V30 2 C 5.833148 3.865231 -11.205657 0
M  V30 3 C 12.110494 9.466750 -4.106015 0 CFG=2
M  V30 4 C 10.050487 7.504387 -11.437599 0
M  V30 5 N 6.422845 6.168887 -16.371064 0
M  V30 6 O 11.658911 9.369376 -9.488529 0 CHG=-1
M  V30 7 C 8.598398 5.767560 -10.224591 0 CFG=1
M  V30 8 N 9.042542 6.417915 -8.091880 0
M  V30 9 F 4.457737 6.519360 -17.536088 0
M  V30 10 C 10.990411 9.593965 -6.291513 0
M  V30 11 O 7.834867 4.520023 -8.257358 0
M  V30 12 C 11.171007 10.332959 -4.951222 0
M  V30 13 C 11.834838 8.338568 -6.179072 0 CFG=1
M  V30 14 C 11.881149 8.074347 -4.664452 0
M  V30 15 O 6.234955 2.866757 -13.335752 0
M  V30 16 N 7.265500 5.254482 -14.426294 0
M  V30 17 N 8.007220 4.303954 -16.755930 0
M  V30 18 C 6.473042 6.187271 -14.982359 0
M  V30 19 C 6.453704 3.826365 -12.597966 0
M  V30 20 C 9.163139 4.633551 -11.119687 0
M  V30 21 C 6.939008 5.440663 -18.770136 0 CFG=2
M  V30 22 C 8.826013 4.677236 -12.631789 0
M  V30 23 F 8.123090 3.873159 -20.235042 0
M  V30 24 C 11.233199 7.224841 -8.544352 0 CFG=1
M  V30 25 F 7.450716 6.568223 -19.267963 0
M  V30 26 O 5.834742 6.992471 -14.305727 0
M  V30 27 O 13.317204 7.889189 -9.483617 0
M  V30 28 C 7.357404 5.009986 -12.988932 0 CFG=1
M  V30 29 C 11.921081 9.540201 -2.591962 0
M  V30 30 C 9.736030 7.415600 -8.850672 0 CFG=1
M  V30 31 C 8.376096 3.755703 -17.948812 0
M  V30 32 C 12.149883 8.251415 -9.229734 0
M  V30 33 C 8.489375 5.422022 -8.741840 0
M  V30 34 C 5.538315 7.136994 -17.060656 0
M  V30 35 C 7.184744 5.242405 -17.201676 0
M  V30 36 C 7.848994 4.312456 -18.996176 0
M  V30 37 C 11.550816 7.078204 -7.022051 0
M  V30 38 H 5.035090 4.604865 -11.168630 0
M  V30 39 H 5.434954 2.897667 -10.919532 0
M  V30 40 H 6.566307 4.117197 -10.449963 0
M  V30 41 H 13.135251 9.766524 -4.336113 0
M  V30 42 H 10.992836 6.967647 -11.545028 0
M  V30 43 H 9.449003 7.371894 -12.332747 0
M  V30 44 H 10.234910 8.569297 -11.384193 0
M  V30 45 H 7.572052 5.980928 -10.495558 0
M  V30 46 H 8.957818 6.508364 -7.089978 0
M  V30 47 H 11.434855 10.187381 -7.091522 0
M  V30 48 H 9.946028 9.368980 -6.504801 0
M  V30 49 H 11.568922 11.329926 -5.108518 0
M  V30 50 H 10.234826 10.474343 -4.432910 0
M  V30 51 H 12.786549 8.720801 -6.544862 0
M  V30 52 H 10.931859 7.657578 -4.344698 0
M  V30 53 H 12.634807 7.379865 -4.291691 0
M  V30 54 H 7.743965 4.612997 -15.049809 0
M  V30 55 H 8.797931 3.688149 -10.733639 0
M  V30 56 H 10.234827 4.569411 -11.009929 0
M  V30 57 H 5.920122 5.238278 -19.103465 0
M  V30 58 H 9.100236 3.714841 -13.070475 0
M  V30 59 H 9.487691 5.385744 -13.125904 0
M  V30 60 H 11.434827 6.260298 -8.992028 0
M  V30 61 H 7.030472 5.909967 -12.473635 0
M  V30 62 H 11.034847 9.003977 -2.273619 0
M  V30 63 H 12.766984 9.081421 -2.079557 0
M  V30 64 H 11.835452 10.569033 -2.249170 0
M  V30 65 H 9.388147 8.410794 -8.571202 0
M  V30 66 H 9.061624 2.920053 -17.957978 0
M  V30 67 H 5.154174 7.914818 -16.399016 0
M  V30 68 H 6.007211 7.687818 -17.869578 0
M  V30 69 H 10.820863 6.470266 -6.491414 0
M  V30 70 H 12.437477 6.451583 -6.970327 0
M  V30 71 H 8.461629 7.683309 -10.261472 0
M  V30 END ATOM
M  V30 BEGIN BOND
M  V30 1 1 4 1
M  V30 2 1 7 1
M  V30 3 1 12 3
M  V30 4 1 12 10
M  V30 5 1 13 10
M  V30 6 1 14 3
M  V30 7 1 14 13
M  V30 8 1 18 5
M  V30 9 1 18 16
M  V30 10 1 19 2
M  V30 11 2 19 15
M  V30 12 1 20 7
M  V30 13 1 22 20
M  V30 14 1 25 21
M  V30 15 2 26 18
M  V30 16 1 28 16
M  V30 17 1 28 19
M  V30 18 1 28 22
M  V30 19 1 29 3
M  V30 20 1 30 1
M  V30 21 1 30 8
M  V30 22 1 30 24
M  V30 23 1 31 17
M  V30 24 1 32 6
M  V30 25 1 32 24
M  V30 26 2 32 27
M  V30 27 1 33 7
M  V30 28 1 33 8
M  V30 29 2 33 11
M  V30 30 1 34 5
M  V30 31 1 34 9
M  V30 32 1 35 5
M  V30 33 2 35 17
M  V30 34 1 35 21
M  V30 35 1 36 21
M  V30 36 1 36 23
M  V30 37 2 36 31
M  V30 38 1 37 13
M  V30 39 1 37 24
M  V30 40 1 38 2
M  V30 41 1 39 2
M  V30 42 1 40 2
M  V30 43 1 3 41 CFG=1
M  V30 44 1 42 4
M  V30 45 1 43 4
M  V30 46 1 44 4
M  V30 47 1 7 45 CFG=3
M  V30 48 1 46 8
M  V30 49 1 47 10
M  V30 50 1 48 10
M  V30 51 1 49 12
M  V30 52 1 50 12
M  V30 53 1 13 51 CFG=3
M  V30 54 1 52 14
M  V30 55 1 53 14
M  V30 56 1 54 16
M  V30 57 1 55 20
M  V30 58 1 56 20
M  V30 59 1 21 57 CFG=1
M  V30 60 1 58 22
M  V30 61 1 59 22
M  V30 62 1 24 60 CFG=3
M  V30 63 1 28 61 CFG=1
M  V30 64 1 62 29
M  V30 65 1 63 29
M  V30 66 1 64 29
M  V30 67 1 30 65 CFG=1
M  V30 68 1 66 31
M  V30 69 1 67 34
M  V30 70 1 68 34
M  V30 71 1 69 37
M  V30 72 1 70 37
M  V30 73 1 1 71 CFG=3
M  V30 END BOND
M  V30 END CTAB
M  END
>  <i_epik_Tot_Q>  (1) 
0

>  <i_epik_Tot_abs_Q>  (1) 
2

>  <i_i_glide_confnum>  (1) 
1527

>  <i_i_glide_lignum>  (1) 
70

>  <i_i_glide_posenum>  (1) 
37

>  <i_i_glide_rotatable_bonds>  (1) 
13

>  <i_lp_mmshare_version>  (1) 
72125

>  <i_m_source_file_index>  (1) 
29

>  <i_f3d_flags>  (1) 
0

>  <num_sample>  (1) 
50

>  <b_lp_Chiralities_Consistent>  (1) 
1

>  <r_epik_Charging_Adjusted_Penalty>  (1) 
0.054083419880676768

>  <r_epik_Ionization_Penalty>  (1) 
0.12983459298085004

>  <r_epik_Ionization_Penalty_Charging>  (1) 
0.054083419880676768

>  <r_epik_Ionization_Penalty_Neutral>  (1) 
0.075751173100173264

>  <r_epik_State_Penalty>  (1) 
-0

>  <r_glide_ring_energy>  (1) 
0

>  <r_i_docking_score>  (1) 
-6.7697169486741169

>  <r_i_glide_ecoul>  (1) 
-6.3057326975172217

>  <r_i_glide_eff_state_penalty>  (1) 
-0

>  <r_i_glide_einternal>  (1) 
46.667567305109507

>  <r_i_glide_emodel>  (1) 
-29.266550640799366

>  <r_i_glide_emodel_strain>  (1) 
2.9937303218576972

>  <r_i_glide_energy>  (1) 
-38.712691191059385

>  <r_i_glide_erotb>  (1) 
0.66137813184917615

>  <r_i_glide_esite>  (1) 
-0.36021200051760455

>  <r_i_glide_evdw>  (1) 
-32.406958493542163

>  <r_i_glide_gscore>  (1) 
-6.7697169486741169

>  <r_i_glide_gscore_strain>  (1) 
0

>  <r_i_glide_hbond>  (1) 
-0.15891395324556903

>  <r_i_glide_ligand_efficiency>  (1) 
-0.1829653229371383

>  <r_i_glide_ligand_efficiency_ln>  (1) 
-1.468192901484964

>  <r_i_glide_ligand_efficiency_sa>  (1) 
-0.60968104718459082

>  <r_i_glide_lipo>  (1) 
-2.3811347779840468

>  <r_i_glide_metal>  (1) 
-0

>  <r_i_glide_rewards>  (1) 
-1.9646265194713817

>  <r_lp_Energy>  (1) 
39.617291999999999

>  <r_lp_tautomer_probability>  (1) 
1

>  <s_epik_Chemistry_Notes>  (1) 
This compound has an imine and may undergo hydrolysis. This compound contains an acetal/aminal-like group ( X-CH(R)-Y where X, Y are N, S, or O) that may be acid/base labile, releasing an aldehyde.

>  <s_epik_cmdline>  (1) 
J2VwaWtfcHl0aG9uJywgJy1waHQnLCAnMS4wJywgJy1waCcsICc3LjQnLCAnLXRuJywgJzgnLCAnLW1hJywgJzUwMCcsICctaW1hZScsICc8aW5maWxlLm1hZT4nLCAnLW9tYWUnLCAnPG91dGZpbGUubWFlPic=

>  <s_epik_input>  (1) 
W0NIM11bQ0BASF0xW0NIMl1bQ0gyXVtDQEBIXShbQ0gyXTEpW0NIMl1bQ0BIXShDKD1PKVtPSF0pW0NAQEhdMltOSF1DKD1PKVtDQEBIXShOMltDSDNdKVtDSDJdW0NIMl1bQ0BIXShDKD1PKVtDSDNdKVtOSF1DKD1PKU4oW0NIMl1GKUMoW0NASF0zRik9TltDSF09QzNG

>  <s_glide_docking_method>  (1) 
confgen

>  <s_i_glide_gridfile>  (1) 
gpcr_drd2_6luq_protein_autoprepared_prepared

>  <s_lp_Force_Field>  (1) 
S-OPLS

>  <s_lp_Variant>  (1) 
DiffSBDD_28_num_sample_50-2

>  <s_m_source_file>  (1) 
generated__ligand_DiffSBDD_2026-05-06_prepared.sdf

>  <GenAI_Model>  (1) 
DiffSBDD

>  <Protein>  (1) 
generic_title2

$$$$
DiffSBDD_7_num_sample_50
     RDKit          3D

  0  0  0  0  0  0  0  0  0  0999 V3000
M  V30 BEGIN CTAB
M  V30 COUNTS 63 67 0 0 1
M  V30 BEGIN ATOM
M  V30 1 C 7.145259 3.132797 -14.096851 0 CFG=1
M  V30 2 C 11.609834 9.269336 -4.618587 0
M  V30 3 C 12.408811 9.255865 -3.459803 0
M  V30 4 C 6.913742 0.763054 -14.695515 0
M  V30 5 C 9.602012 7.311970 -9.590961 0 CFG=2
M  V30 6 C 12.634833 8.052979 -2.769805 0
M  V30 7 C 9.020721 5.570056 -13.744774 0
M  V30 8 C 10.628124 7.584154 -10.690252 0 CFG=2
M  V30 9 C 10.508703 6.585134 -11.884103 0 CFG=2
M  V30 10 C 11.034844 6.034514 -7.559668 0
M  V30 11 C 10.127563 8.105322 -6.319457 0
M  V30 12 C 12.072721 6.853772 -3.241296 0
M  V30 13 C 7.635906 5.601069 -14.374634 0
M  V30 14 C 6.252549 2.452127 -13.095407 0 CFG=2
M  V30 15 C 7.644136 2.846026 -12.691670 0
M  V30 16 O 11.532582 6.825941 -12.821903 0
M  V30 17 C 11.278392 6.857265 -4.403274 0
M  V30 18 C 9.903975 6.500580 -8.382548 0 CFG=1
M  V30 19 C 12.028773 7.731971 -10.035192 0
M  V30 20 C 7.361436 2.139340 -15.223961 0
M  V30 21 C 5.931480 1.048714 -13.549055 0
M  V30 22 C 9.817987 6.753905 -6.923175 0 CFG=1
M  V30 23 C 9.144939 6.612920 -12.610973 0
M  V30 24 C 6.829696 4.529163 -14.521946 0
M  V30 25 C 13.065365 8.613668 -10.703517 0
M  V30 26 C 11.034838 8.073112 -5.091676 0
M  V30 27 C 8.988446 5.865873 -9.323005 0
M  V30 28 H 11.427340 10.199133 -5.137509 0
M  V30 29 H 12.842800 10.169299 -3.093276 0
M  V30 30 H 6.474943 0.137428 -15.473447 0
M  V30 31 H 7.779074 0.229403 -14.300198 0
M  V30 32 H 9.034839 8.201486 -9.340115 0
M  V30 33 H 13.241649 8.052148 -1.877058 0
M  V30 34 H 9.738176 5.769298 -14.537949 0
M  V30 35 H 9.297543 4.585252 -13.381418 0
M  V30 36 H 10.367297 8.566368 -11.084915 0
M  V30 37 H 10.634840 5.567142 -11.545066 0
M  V30 38 H 11.963744 6.591012 -7.491657 0
M  V30 39 H 11.130221 4.969304 -7.455952 0
M  V30 40 H 9.182171 8.573066 -6.047631 0
M  V30 41 H 10.579713 8.744016 -7.078495 0
M  V30 42 H 12.246635 5.928911 -2.710369 0
M  V30 43 H 7.294840 6.565165 -14.723528 0
M  V30 44 H 5.434836 3.034429 -12.685249 0
M  V30 45 H 7.723331 3.670141 -11.984169 0
M  V30 46 H 8.392612 2.063810 -12.576096 0
M  V30 47 H 11.563911 6.080890 -13.409299 0
M  V30 48 H 10.840220 5.934793 -4.752083 0
M  V30 49 H 11.907051 8.173109 -9.046987 0
M  V30 50 H 12.482415 6.765935 -9.891668 0
M  V30 51 H 6.741145 2.424932 -16.074486 0
M  V30 52 H 8.399551 2.137513 -15.553616 0
M  V30 53 H 6.038417 0.339359 -12.727602 0
M  V30 54 H 4.897924 1.007654 -13.894253 0
M  V30 55 H 9.129162 6.134674 -6.352000 0
M  V30 56 H 8.940819 7.615218 -12.987469 0
M  V30 57 H 8.350506 6.416646 -11.890660 0
M  V30 58 H 5.865132 4.673053 -14.986269 0
M  V30 59 H 13.998063 8.569290 -10.140419 0
M  V30 60 H 12.713999 9.644066 -10.691664 0
M  V30 61 H 13.301929 8.312018 -11.722445 0
M  V30 62 H 7.949187 5.769293 -9.011522 0
M  V30 63 H 9.379414 5.001254 -9.851525 0
M  V30 END ATOM
M  V30 BEGIN BOND
M  V30 1 1 3 2
M  V30 2 2 6 3
M  V30 3 1 8 5
M  V30 4 1 9 8
M  V30 5 1 12 6
M  V30 6 1 13 7
M  V30 7 1 14 1
M  V30 8 1 15 1
M  V30 9 1 15 14
M  V30 10 1 16 9
M  V30 11 2 17 12
M  V30 12 1 18 5
M  V30 13 1 18 10 CFG=3
M  V30 14 1 19 8
M  V30 15 1 20 1
M  V30 16 1 20 4
M  V30 17 1 21 4
M  V30 18 1 21 14
M  V30 19 1 22 10
M  V30 20 1 22 11
M  V30 21 1 22 18
M  V30 22 1 23 7
M  V30 23 1 23 9
M  V30 24 1 1 24 CFG=3
M  V30 25 2 24 13
M  V30 26 1 25 19
M  V30 27 2 26 2
M  V30 28 1 26 11
M  V30 29 1 26 17
M  V30 30 1 27 5
M  V30 31 1 27 18
M  V30 32 1 28 2
M  V30 33 1 29 3
M  V30 34 1 30 4
M  V30 35 1 31 4
M  V30 36 1 5 32 CFG=1
M  V30 37 1 33 6
M  V30 38 1 34 7
M  V30 39 1 35 7
M  V30 40 1 8 36 CFG=3
M  V30 41 1 9 37 CFG=1
M  V30 42 1 38 10
M  V30 43 1 39 10
M  V30 44 1 40 11
M  V30 45 1 41 11
M  V30 46 1 42 12
M  V30 47 1 43 13
M  V30 48 1 14 44 CFG=1
M  V30 49 1 45 15
M  V30 50 1 46 15
M  V30 51 1 47 16
M  V30 52 1 48 17
M  V30 53 1 49 19
M  V30 54 1 50 19
M  V30 55 1 51 20
M  V30 56 1 52 20
M  V30 57 1 53 21
M  V30 58 1 54 21
M  V30 59 1 22 55 CFG=1
M  V30 60 1 56 23
M  V30 61 1 57 23
M  V30 62 1 58 24
M  V30 63 1 59 25
M  V30 64 1 60 25
M  V30 65 1 61 25
M  V30 66 1 62 27
M  V30 67 1 63 27
M  V30 END BOND
M  V30 END CTAB
M  END
>  <i_epik_Tot_Q>  (1) 
0

>  <i_epik_Tot_abs_Q>  (1) 
0

>  <i_i_glide_confnum>  (1) 
58

>  <i_i_glide_lignum>  (1) 
16

>  <i_i_glide_posenum>  (1) 
205

>  <i_i_glide_rotatable_bonds>  (1) 
10

>  <i_lp_mmshare_version>  (1) 
72125

>  <i_m_source_file_index>  (1) 
8

>  <i_f3d_flags>  (1) 
0

>  <num_sample>  (1) 
50

>  <b_lp_Chiralities_Consistent>  (1) 
1

>  <r_epik_Charging_Adjusted_Penalty>  (1) 
0

>  <r_epik_Ionization_Penalty>  (1) 
5.611789062664276e-07

>  <r_epik_Ionization_Penalty_Charging>  (1) 
0

>  <r_epik_Ionization_Penalty_Neutral>  (1) 
5.611789062664276e-07

>  <r_epik_State_Penalty>  (1) 
-0

>  <r_glide_ring_energy>  (1) 
0

>  <r_i_docking_score>  (1) 
-6.7398967102759677

>  <r_i_glide_ecoul>  (1) 
-3.8139923543263006

>  <r_i_glide_eff_state_penalty>  (1) 
-0

>  <r_i_glide_einternal>  (1) 
14.380220106434331

>  <r_i_glide_emodel>  (1) 
-36.473390420898639

>  <r_i_glide_emodel_strain>  (1) 
0.52112887462007507

>  <r_i_glide_energy>  (1) 
-31.231783401255903

>  <r_i_glide_erotb>  (1) 
1.0125554383439441

>  <r_i_glide_esite>  (1) 
0

>  <r_i_glide_evdw>  (1) 
-27.417791046929601

>  <r_i_glide_gscore>  (1) 
-6.7398967102759677

>  <r_i_glide_gscore_strain>  (1) 
0

>  <r_i_glide_hbond>  (1) 
-0.25579146303177569

>  <r_i_glide_ligand_efficiency>  (1) 
-0.24962580408429511

>  <r_i_glide_ligand_efficiency_ln>  (1) 
-1.5689368382707984

>  <r_i_glide_ligand_efficiency_sa>  (1) 
-0.7488774122528854

>  <r_i_glide_lipo>  (1) 
-3.7303283255472559

>  <r_i_glide_metal>  (1) 
-0

>  <r_i_glide_rewards>  (1) 
-1.8233439545454555

>  <r_lp_Energy>  (1) 
25.483521999999997

>  <r_lp_tautomer_probability>  (1) 
1

>  <s_epik_cmdline>  (1) 
J2VwaWtfcHl0aG9uJywgJy1waHQnLCAnMS4wJywgJy1waCcsICc3LjQnLCAnLXRuJywgJzgnLCAnLW1hJywgJzUwMCcsICctaW1hZScsICc8aW5maWxlLm1hZT4nLCAnLW9tYWUnLCAnPG91dGZpbGUubWFlPic=

>  <s_epik_input>  (1) 
W0NIMl0xW0NIMl1bQ0gyXVtDQEBIXShbQ0gyXTIpW0NAXTEyL1tDSF09W0NIXVxbQ0gyXVtDSDJdW0NAQEhdKFtPSF0pW0NASF0oW0NIMl1bQ0gzXSlbQ0BASF0oW0NIMl0zKVtDQF0zNFtDSDJdW0NASF00W0NIMl1jNVtjSF1bY0hdW2NIXVtjSF1bY0hdNQ==

>  <s_glide_docking_method>  (1) 
confgen

>  <s_i_glide_gridfile>  (1) 
gpcr_drd2_6luq_protein_autoprepared_prepared

>  <s_lp_Force_Field>  (1) 
S-OPLS

>  <s_lp_Variant>  (1) 
DiffSBDD_7_num_sample_50-1

>  <s_m_source_file>  (1) 
generated__ligand_DiffSBDD_2026-05-06_prepared.sdf

>  <GenAI_Model>  (1) 
DiffSBDD

>  <Protein>  (1) 
generic_title2

$$$$
DiffSBDD_0_num_sample_50
     RDKit          3D

  0  0  0  0  0  0  0  0  0  0999 V3000
M  V30 BEGIN CTAB
M  V30 COUNTS 58 61 0 0 1
M  V30 BEGIN ATOM
M  V30 1 C 11.539010 8.673017 -7.862197 0
M  V30 2 C 6.637515 6.140859 -13.509074 0 CFG=2
M  V30 3 N 7.269028 6.810620 -12.329371 0 CFG=1 CHG=1
M  V30 4 N 9.509447 6.152568 -9.675197 0
M  V30 5 C 4.850061 6.677154 -19.279725 0
M  V30 6 C 6.796054 5.225946 -18.489597 0
M  V30 7 C 8.782958 4.969279 -14.476362 0
M  V30 8 S 5.611778 6.695920 -16.593467 0
M  V30 9 O 8.234771 8.686062 -11.491656 0
M  V30 10 C 10.674630 7.582998 -8.117232 0
M  V30 11 C 5.995327 4.870813 -12.925822 0
M  V30 12 C 10.366362 7.182887 -9.540312 0
M  V30 13 C 6.551838 5.361613 -10.398276 0
M  V30 14 C 7.580406 5.902291 -14.756124 0 CFG=1
M  V30 15 C 9.131143 5.591632 -10.971105 0
M  V30 16 N 9.967461 5.353517 -14.953876 0
M  V30 17 O 8.634675 3.934427 -13.840493 0
M  V30 18 F 11.556079 8.695248 -4.188904 0
M  V30 19 O 10.888322 7.767374 -10.491669 0
M  V30 20 C 11.832248 9.048133 -6.535404 0
M  V30 21 C 6.803796 5.441478 -16.019771 0 CFG=2
M  V30 22 C 6.768038 4.588143 -11.669515 0 CFG=2
M  V30 23 C 10.417072 7.244464 -5.709893 0
M  V30 24 F 4.235701 7.847085 -19.108260 0
M  V30 25 F 5.232020 6.573751 -20.552972 0
M  V30 26 C 7.656464 5.767527 -11.335103 0 CFG=2
M  V30 27 C 8.220509 7.900378 -12.654420 0
M  V30 28 F 12.655942 10.095733 -6.291670 0
M  V30 29 C 11.271408 8.334647 -5.462480 0
M  V30 30 C 6.061559 6.559581 -18.347084 0 CFG=2
M  V30 31 C 7.670202 5.083082 -17.246225 0
M  V30 32 C 10.112907 6.868838 -7.029855 0
M  V30 33 H 11.974263 9.223285 -8.684100 0
M  V30 34 H 5.835483 6.809865 -13.823194 0
M  V30 35 H 9.113906 5.732962 -8.847281 0
M  V30 36 H 4.124260 5.889208 -19.091830 0
M  V30 37 H 6.079530 4.403973 -18.531581 0
M  V30 38 H 7.387646 5.185939 -19.404444 0
M  V30 39 H 7.781916 8.256155 -10.760082 0
M  V30 40 H 6.014727 4.012648 -13.597031 0
M  V30 41 H 4.961068 5.041851 -12.650062 0
M  V30 42 H 6.856998 4.855059 -9.491666 0
M  V30 43 H 5.665667 5.987674 -10.310705 0
M  V30 44 H 7.988304 6.867788 -15.040596 0
M  V30 45 H 9.304505 4.519499 -10.867353 0
M  V30 46 H 9.799994 5.874698 -11.781257 0
M  V30 47 H 10.049171 6.208173 -15.483214 0
M  V30 48 H 10.790663 4.782742 -14.776714 0
M  V30 49 H 6.234834 4.557247 -15.762697 0
M  V30 50 H 7.190588 3.592592 -11.587610 0
M  V30 51 H 9.990210 6.695566 -4.883253 0
M  V30 52 H 7.834827 8.514273 -13.468966 0
M  V30 53 H 9.216286 7.554054 -12.900932 0
M  V30 54 H 6.758199 7.369271 -18.565202 0
M  V30 55 H 8.511838 5.769304 -17.333217 0
M  V30 56 H 8.083650 4.077053 -17.169114 0
M  V30 57 H 9.453531 6.032653 -7.204083 0
M  V30 58 H 6.497949 7.276078 -11.868834 0
M  V30 END ATOM
M  V30 BEGIN BOND
M  V30 1 1 3 2
M  V30 2 2 10 1
M  V30 3 1 11 2
M  V30 4 1 12 4
M  V30 5 1 12 10
M  V30 6 1 14 2
M  V30 7 1 14 7
M  V30 8 1 15 4
M  V30 9 1 16 7
M  V30 10 2 17 7
M  V30 11 2 19 12
M  V30 12 1 20 1
M  V30 13 1 21 8
M  V30 14 1 21 14
M  V30 15 1 22 11
M  V30 16 1 22 13
M  V30 17 1 24 5
M  V30 18 1 25 5
M  V30 19 1 26 3
M  V30 20 1 26 13
M  V30 21 1 26 15 CFG=1
M  V30 22 1 26 22
M  V30 23 1 27 3
M  V30 24 1 27 9
M  V30 25 1 28 20
M  V30 26 1 29 18
M  V30 27 2 29 20
M  V30 28 1 29 23
M  V30 29 1 30 5
M  V30 30 1 30 6
M  V30 31 1 30 8
M  V30 32 1 31 6
M  V30 33 1 31 21
M  V30 34 1 32 10
M  V30 35 2 32 23
M  V30 36 1 33 1
M  V30 37 1 2 34 CFG=3
M  V30 38 1 35 4
M  V30 39 1 36 5
M  V30 40 1 37 6
M  V30 41 1 38 6
M  V30 42 1 39 9
M  V30 43 1 40 11
M  V30 44 1 41 11
M  V30 45 1 42 13
M  V30 46 1 43 13
M  V30 47 1 14 44 CFG=3
M  V30 48 1 45 15
M  V30 49 1 46 15
M  V30 50 1 47 16
M  V30 51 1 48 16
M  V30 52 1 21 49 CFG=1
M  V30 53 1 22 50 CFG=1
M  V30 54 1 51 23
M  V30 55 1 52 27
M  V30 56 1 53 27
M  V30 57 1 30 54 CFG=3
M  V30 58 1 55 31
M  V30 59 1 56 31
M  V30 60 1 57 32
M  V30 61 1 3 58 CFG=1
M  V30 END BOND
M  V30 END CTAB
M  END
>  <i_epik_Tot_Q>  (1) 
1

>  <i_epik_Tot_abs_Q>  (1) 
1

>  <i_i_glide_confnum>  (1) 
241

>  <i_i_glide_lignum>  (1) 
3

>  <i_i_glide_posenum>  (1) 
119

>  <i_i_glide_rotatable_bonds>  (1) 
10

>  <i_lp_mmshare_version>  (1) 
72125

>  <i_m_source_file_index>  (1) 
1

>  <i_f3d_flags>  (1) 
0

>  <num_sample>  (1) 
50

>  <b_lp_Chiralities_Consistent>  (1) 
1

>  <r_epik_Charging_Adjusted_Penalty>  (1) 
2.6270329568783799

>  <r_epik_Ionization_Penalty>  (1) 
1.3408557112072272

>  <r_epik_Ionization_Penalty_Charging>  (1) 
1.3119003563655398

>  <r_epik_Ionization_Penalty_Neutral>  (1) 
0.028955354841687337

>  <r_epik_State_Penalty>  (1) 
1.3151326005128403

>  <r_glide_ring_energy>  (1) 
0

>  <r_i_docking_score>  (1) 
-6.7065345948543973

>  <r_i_glide_ecoul>  (1) 
-11.574033185835335

>  <r_i_glide_eff_state_penalty>  (1) 
1.3151326005128403

>  <r_i_glide_einternal>  (1) 
18.317909184569295

>  <r_i_glide_emodel>  (1) 
-56.433491416537905

>  <r_i_glide_emodel_strain>  (1) 
0.1680719593235267

>  <r_i_glide_energy>  (1) 
-42.817919484063736

>  <r_i_glide_erotb>  (1) 
0.53508942527165992

>  <r_i_glide_esite>  (1) 
-0.24958559824118104

>  <r_i_glide_evdw>  (1) 
-31.2438862982284

>  <r_i_glide_gscore>  (1) 
-8.0216671953672378

>  <r_i_glide_gscore_strain>  (1) 
0

>  <r_i_glide_hbond>  (1) 
-0.45599999999999996

>  <r_i_glide_ligand_efficiency>  (1) 
-0.20957920608919992

>  <r_i_glide_ligand_efficiency_ln>  (1) 
-1.5017759090164366

>  <r_i_glide_ligand_efficiency_sa>  (1) 
-0.6653725044333122

>  <r_i_glide_lipo>  (1) 
-2.3531470501406799

>  <r_i_glide_metal>  (1) 
-0

>  <r_i_glide_rewards>  (1) 
-2.1997246794703136

>  <r_lp_Energy>  (1) 
18.756574999999998

>  <s_epik_Chemistry_Notes>  (1) 
This compound contains an acetal/aminal-like group ( X-CH(R)-Y where X, Y are N, S, or O) that may be acid/base labile, releasing an aldehyde.

>  <s_epik_cmdline>  (1) 
J2VwaWtfcHl0aG9uJywgJy1waHQnLCAnMS4wJywgJy1waCcsICc3LjQnLCAnLXRuJywgJzgnLCAnLW1hJywgJzUwMCcsICctaW1hZScsICc8aW5maWxlLm1hZT4nLCAnLW9tYWUnLCAnPG91dGZpbGUubWFlPic=

>  <s_epik_input>  (1) 
W2NIXTFbY0hdYyhGKWMoRilbY0hdYzFDKD1PKVtOSF1bQ0gyXVtDQF0yM1tDQEBIXShbQ0gyXTMpW0NIMl1bQ0BASF0oTjJbQ0gyXVtPSF0pW0NAQEhdKEMoPU8pW05IMl0pW0NASF00U1tDQEhdKFtDSF0oRilGKVtDSDJdW0NIMl00

>  <s_glide_docking_method>  (1) 
confgen

>  <s_i_glide_gridfile>  (1) 
gpcr_drd2_6luq_protein_autoprepared_prepared

>  <s_lp_Force_Field>  (1) 
S-OPLS

>  <s_lp_Variant>  (1) 
DiffSBDD_0_num_sample_50-3

>  <s_m_source_file>  (1) 
generated__ligand_DiffSBDD_2026-05-06_prepared.sdf

>  <GenAI_Model>  (1) 
DiffSBDD

>  <Protein>  (1) 
generic_title2

$$$$
DiffSBDD_15_num_sample_50
     RDKit          3D

  0  0  0  0  0  0  0  0  0  0999 V3000
M  V30 BEGIN CTAB
M  V30 COUNTS 104 108 0 0 1
M  V30 BEGIN ATOM
M  V30 1 N 11.530132 7.557696 -10.525485 0
M  V30 2 C 7.314551 2.632754 -16.640936 0
M  V30 3 C 10.546283 0.854569 -17.872433 0 CFG=1
M  V30 4 C 12.506542 2.497145 -17.941264 0
M  V30 5 O 10.044814 1.047104 -20.198920 0
M  V30 6 C 11.242164 7.704351 -6.169955 0 CFG=1
M  V30 7 C 13.381845 5.291993 -17.839460 0
M  V30 8 O 9.653497 8.808226 -7.495455 0
M  V30 9 C 11.834662 7.073810 -11.867264 0
M  V30 10 O 13.515605 8.569244 -10.299118 0
M  V30 11 C 5.734985 6.072077 -13.177357 0
M  V30 12 C 10.040734 0.378023 -21.448133 0
M  V30 13 C 10.198475 7.251201 -10.048813 0 CFG=1
M  V30 14 C 12.966295 0.097330 -18.020559 0
M  V30 15 O 8.633285 -0.221424 -18.832349 0
M  V30 16 C 12.003055 8.827811 -8.404328 0 CFG=1
M  V30 17 C 14.342668 0.362045 -18.085902 0
M  V30 18 C 10.315425 6.825970 -8.549545 0 CFG=2
M  V30 19 F 6.757187 5.568316 -17.119068 0
M  V30 20 C 7.069638 5.799827 -15.845939 0
M  V30 21 C 6.151696 3.695836 -12.619574 0
M  V30 22 O 10.635024 9.795436 -5.091634 0
M  V30 23 C 13.605161 9.769070 -6.272065 0
M  V30 24 C 8.243622 5.997636 -11.481350 0
M  V30 25 C 11.519002 9.018292 -5.367656 0
M  V30 26 C 7.757218 3.383299 -15.344399 0
M  V30 27 O 15.619210 4.443666 -18.018977 0
M  V30 28 C 14.421382 4.166309 -17.962018 0
M  V30 29 O 9.090256 6.252858 -8.132182 0
M  V30 30 O 9.432793 8.420748 -10.193782 0
M  V30 31 C 13.366846 8.968788 -7.608255 0
M  V30 32 C 13.895864 2.760298 -17.993839 0
M  V30 33 C 12.412565 8.300806 -9.837278 0
M  V30 34 C 6.722863 4.902118 -13.395541 0
M  V30 35 C 10.283758 6.780371 -5.410273 0
M  V30 36 C 8.111264 5.279526 -12.859347 0
M  V30 37 C 12.927690 9.334637 -4.997416 0
M  V30 38 C 6.822630 4.562845 -14.932526 0 CFG=1
M  V30 39 C 9.950318 0.177547 -19.117209 0 CFG=2
M  V30 40 C 8.261131 1.519348 -17.137516 0 CFG=2
M  V30 41 C 10.831684 8.024112 -7.655153 0 CFG=1
M  V30 42 C 12.869613 5.474858 -16.398290 0
M  V30 43 C 10.481106 6.755976 -12.381959 0
M  V30 44 C 12.041644 1.159406 -17.952877 0
M  V30 45 C 9.647338 2.045832 -17.511133 0
M  V30 46 C 7.731977 0.808161 -18.406731 0
M  V30 47 C 14.805160 1.686650 -18.074821 0
M  V30 48 C 9.737975 6.226816 -11.147547 0 CFG=1
M  V30 49 H 6.341389 2.170045 -16.464445 0
M  V30 50 H 7.176790 3.331196 -17.464410 0
M  V30 51 H 10.463489 0.104477 -17.091785 0
M  V30 52 H 11.804015 3.310160 -17.885440 0
M  V30 53 H 12.156368 7.122685 -6.224846 0
M  V30 54 H 13.884546 6.214663 -18.135054 0
M  V30 55 H 12.566528 5.164903 -18.550933 0
M  V30 56 H 9.731502 9.311025 -6.692597 0
M  V30 57 H 12.424155 7.741232 -12.498952 0
M  V30 58 H 12.328520 6.121890 -11.891703 0
M  V30 59 H 4.821133 5.908930 -13.746651 0
M  V30 60 H 5.452894 6.178792 -12.129302 0
M  V30 61 H 6.149165 7.034639 -13.478191 0
M  V30 62 H 10.054399 1.112511 -22.253034 0
M  V30 63 H 10.928675 -0.248975 -21.553994 0
M  V30 64 H 9.153100 -0.245602 -21.564813 0
M  V30 65 H 12.616215 -0.919985 -18.019812 0
M  V30 66 H 11.646457 9.831482 -8.606097 0
M  V30 67 H 15.045345 -0.455589 -18.144629 0
M  V30 68 H 11.035772 6.013519 -8.477824 0
M  V30 69 H 6.462174 6.661511 -15.582945 0
M  V30 70 H 8.112667 6.113186 -15.833488 0
M  V30 71 H 5.195221 3.381866 -13.040536 0
M  V30 72 H 6.815331 2.833195 -12.634377 0
M  V30 73 H 5.978627 3.941989 -11.571481 0
M  V30 74 H 14.671544 9.739010 -6.061554 0
M  V30 75 H 13.352820 10.827528 -6.291558 0
M  V30 76 H 7.770062 5.417087 -10.688935 0
M  V30 77 H 7.730669 6.957197 -11.521637 0
M  V30 78 H 8.762319 3.786241 -15.457051 0
M  V30 79 H 7.828951 2.645553 -14.547535 0
M  V30 80 H 8.416794 6.924689 -8.181130 0
M  V30 81 H 8.536972 8.230386 -9.891528 0
M  V30 82 H 13.632495 7.932339 -7.492128 0
M  V30 83 H 14.161487 9.369301 -8.237431 0
M  V30 84 H 10.541915 6.697553 -4.354519 0
M  V30 85 H 9.258380 7.122867 -5.492858 0
M  V30 86 H 10.325747 5.771983 -5.816536 0
M  V30 87 H 8.505231 5.948956 -13.618369 0
M  V30 88 H 8.753800 4.397889 -12.867027 0
M  V30 89 H 13.429953 8.569566 -4.428247 0
M  V30 90 H 12.911095 10.168502 -4.299063 0
M  V30 91 H 5.834989 4.212872 -15.139106 0
M  V30 92 H 10.510062 -0.731633 -19.330153 0
M  V30 93 H 8.353149 0.780870 -16.337285 0
M  V30 94 H 12.367790 6.435711 -16.284823 0
M  V30 95 H 12.154316 4.703122 -16.114183 0
M  V30 96 H 13.686374 5.445107 -15.676324 0
M  V30 97 H 9.994211 7.678802 -12.691132 0
M  V30 98 H 10.567826 6.057779 -13.217813 0
M  V30 99 H 9.575449 2.750141 -18.342299 0
M  V30 100 H 10.085980 2.596189 -16.690272 0
M  V30 101 H 6.755687 0.361175 -18.215909 0
M  V30 102 H 7.593297 1.522730 -19.220136 0
M  V30 103 H 15.857727 1.881259 -18.123404 0
M  V30 104 H 10.138198 5.243174 -10.911461 0
M  V30 END ATOM
M  V30 BEGIN BOND
M  V30 1 1 9 1
M  V30 2 1 12 5
M  V30 3 1 13 1
M  V30 4 1 17 14
M  V30 5 1 18 13
M  V30 6 1 20 19
M  V30 7 1 25 6
M  V30 8 2 25 22
M  V30 9 1 26 2
M  V30 10 1 28 7
M  V30 11 2 28 27
M  V30 12 1 29 18
M  V30 13 1 13 30 CFG=1
M  V30 14 1 31 16
M  V30 15 1 31 23
M  V30 16 2 32 4
M  V30 17 1 32 28
M  V30 18 1 33 1
M  V30 19 2 33 10
M  V30 20 1 33 16
M  V30 21 1 34 11
M  V30 22 1 34 21
M  V30 23 1 35 6
M  V30 24 1 36 24
M  V30 25 1 36 34
M  V30 26 1 37 23
M  V30 27 1 37 25
M  V30 28 1 38 20
M  V30 29 1 38 26
M  V30 30 1 38 34
M  V30 31 1 39 3
M  V30 32 1 39 5
M  V30 33 1 39 15
M  V30 34 1 40 2
M  V30 35 1 41 6
M  V30 36 1 41 8 CFG=1
M  V30 37 1 41 16
M  V30 38 1 41 18
M  V30 39 1 42 7
M  V30 40 1 43 9
M  V30 41 1 44 3
M  V30 42 1 44 4
M  V30 43 2 44 14
M  V30 44 1 45 3
M  V30 45 1 45 40
M  V30 46 1 46 15
M  V30 47 1 46 40
M  V30 48 2 47 17
M  V30 49 1 47 32
M  V30 50 1 48 13
M  V30 51 1 48 24
M  V30 52 1 48 43
M  V30 53 1 49 2
M  V30 54 1 50 2
M  V30 55 1 3 51 CFG=1
M  V30 56 1 52 4
M  V30 57 1 6 53 CFG=3
M  V30 58 1 54 7
M  V30 59 1 55 7
M  V30 60 1 56 8
M  V30 61 1 57 9
M  V30 62 1 58 9
M  V30 63 1 59 11
M  V30 64 1 60 11
M  V30 65 1 61 11
M  V30 66 1 62 12
M  V30 67 1 63 12
M  V30 68 1 64 12
M  V30 69 1 65 14
M  V30 70 1 16 66 CFG=3
M  V30 71 1 67 17
M  V30 72 1 18 68 CFG=3
M  V30 73 1 69 20
M  V30 74 1 70 20
M  V30 75 1 71 21
M  V30 76 1 72 21
M  V30 77 1 73 21
M  V30 78 1 74 23
M  V30 79 1 75 23
M  V30 80 1 76 24
M  V30 81 1 77 24
M  V30 82 1 78 26
M  V30 83 1 79 26
M  V30 84 1 80 29
M  V30 85 1 81 30
M  V30 86 1 82 31
M  V30 87 1 83 31
M  V30 88 1 84 35
M  V30 89 1 85 35
M  V30 90 1 86 35
M  V30 91 1 87 36
M  V30 92 1 88 36
M  V30 93 1 89 37
M  V30 94 1 90 37
M  V30 95 1 38 91 CFG=3
M  V30 96 1 39 92 CFG=3
M  V30 97 1 40 93 CFG=1
M  V30 98 1 94 42
M  V30 99 1 95 42
M  V30 100 1 96 42
M  V30 101 1 97 43
M  V30 102 1 98 43
M  V30 103 1 99 45
M  V30 104 1 100 45
M  V30 105 1 101 46
M  V30 106 1 102 46
M  V30 107 1 103 47
M  V30 108 1 48 104 CFG=1
M  V30 END BOND
M  V30 END CTAB
M  END
>  <i_epik_Tot_Q>  (1) 
0

>  <i_epik_Tot_abs_Q>  (1) 
0

>  <i_i_glide_confnum>  (1) 
554

>  <i_i_glide_lignum>  (1) 
52

>  <i_i_glide_posenum>  (1) 
12

>  <i_i_glide_rotatable_bonds>  (1) 
15

>  <i_lp_mmshare_version>  (1) 
72125

>  <i_m_source_file_index>  (1) 
16

>  <i_f3d_flags>  (1) 
0

>  <num_sample>  (1) 
50

>  <b_lp_Chiralities_Consistent>  (1) 
1

>  <r_epik_Charging_Adjusted_Penalty>  (1) 
0

>  <r_epik_Ionization_Penalty>  (1) 
3.3580720903009909e-06

>  <r_epik_Ionization_Penalty_Charging>  (1) 
0

>  <r_epik_Ionization_Penalty_Neutral>  (1) 
3.3580720903009909e-06

>  <r_epik_State_Penalty>  (1) 
-0

>  <r_glide_ring_energy>  (1) 
0

>  <r_i_docking_score>  (1) 
-6.6422533175242275

>  <r_i_glide_ecoul>  (1) 
-6.0783360567035096

>  <r_i_glide_eff_state_penalty>  (1) 
-0

>  <r_i_glide_einternal>  (1) 
51.158045391626828

>  <r_i_glide_emodel>  (1) 
-7.1216879672075422

>  <r_i_glide_emodel_strain>  (1) 
7.2154949869012484

>  <r_i_glide_energy>  (1) 
-31.215659994683232

>  <r_i_glide_erotb>  (1) 
0.25945655678467749

>  <r_i_glide_esite>  (1) 
-0.060226285716328015

>  <r_i_glide_evdw>  (1) 
-25.137323937979723

>  <r_i_glide_gscore>  (1) 
-6.6422533175242275

>  <r_i_glide_gscore_strain>  (1) 
0.80387374672531209

>  <r_i_glide_hbond>  (1) 
-0.29476319775139576

>  <r_i_glide_ligand_efficiency>  (1) 
-0.13838027744842141

>  <r_i_glide_ligand_efficiency_ln>  (1) 
-1.3635761083663944

>  <r_i_glide_ligand_efficiency_sa>  (1) 
-0.50290730358670299

>  <r_i_glide_lipo>  (1) 
-3.2583665127313748

>  <r_i_glide_metal>  (1) 
-0

>  <r_i_glide_rewards>  (1) 
-1.9236110194306049

>  <r_lp_Energy>  (1) 
45.559846

>  <r_lp_tautomer_probability>  (1) 
1

>  <s_epik_Chemistry_Notes>  (1) 
This compound contains an acetal/aminal-like group ( X-CH(R)-Y where X, Y are N, S, or O) that may be acid/base labile, releasing an aldehyde.

>  <s_epik_cmdline>  (1) 
J2VwaWtfcHl0aG9uJywgJy1waHQnLCAnMS4wJywgJy1waCcsICc3LjQnLCAnLXRuJywgJzgnLCAnLW1hJywgJzUwMCcsICctaW1hZScsICc8aW5maWxlLm1hZT4nLCAnLW9tYWUnLCAnPG91dGZpbGUubWFlPic=

>  <s_epik_input>  (1) 
W0NIMl0xW0NIMl1bQ0gyXUMoPU8pW0NAQEhdKFtDSDNdKVtDQF0oW09IXSkoW0NASF0yW09IXSlbQ0BASF0xQyg9TylOKFtDQF0yM1tPSF0pW0NIMl1bQ0gyXVtDQEBIXTNbQ0gyXVtDSDJdQyhbQ0gzXSkoW0NIM10pW0NAQEhdKFtDSDJdRilbQ0gyXVtDSDJdW0NASF0oW0NIMl00KVtDSDJdT1tDQEBIXShPW0NIM10pW0NASF00YyhbY0hdW2NIXVtjSF01KVtjSF1jNUMoPU8pW0NIMl1bQ0gzXQ==

>  <s_glide_docking_method>  (1) 
confgen

>  <s_i_glide_gridfile>  (1) 
gpcr_drd2_6luq_protein_autoprepared_prepared

>  <s_lp_Force_Field>  (1) 
S-OPLS

>  <s_lp_Variant>  (1) 
DiffSBDD_15_num_sample_50-1

>  <s_m_source_file>  (1) 
generated__ligand_DiffSBDD_2026-05-06_prepared.sdf

>  <GenAI_Model>  (1) 
DiffSBDD

>  <Protein>  (1) 
generic_title2

$$$$
DiffSBDD_17_num_sample_50
     RDKit          3D

  0  0  0  0  0  0  0  0  0  0999 V3000
M  V30 BEGIN CTAB
M  V30 COUNTS 58 60 0 0 1
M  V30 BEGIN ATOM
M  V30 1 C 10.170216 8.499668 -7.886605 0 CFG=2
M  V30 2 C 6.570246 6.430607 -18.455489 0 CFG=2
M  V30 3 C 9.493529 4.910578 -9.090537 0
M  V30 4 C 5.961494 4.171065 -13.576927 0
M  V30 5 N 9.434811 7.321702 -8.402469 0 CHG=1
M  V30 6 C 11.655598 7.454687 -4.459039 0
M  V30 7 C 8.622062 4.750101 -10.317975 0
M  V30 8 C 11.416379 8.840369 -8.738567 0
M  V30 9 C 6.289462 6.899195 -16.219449 0 CFG=2
M  V30 10 C 11.689018 8.992024 -4.353309 0
M  V30 11 C 11.214528 9.528445 -5.708818 0
M  V30 12 C 8.313336 4.168041 -12.634562 0
M  V30 13 C 6.104625 6.265779 -14.844988 0
M  V30 14 C 4.978771 7.489573 -16.769945 0
M  V30 15 N 6.395954 4.798611 -11.278085 0
M  V30 16 C 10.409154 8.387534 -6.353531 0
M  V30 17 C 11.127785 7.124561 -5.862773 0
M  V30 18 N 6.234821 4.935731 -14.781592 0
M  V30 19 O 5.834118 6.963677 -13.870352 0
M  V30 20 C 7.237959 4.969315 -10.240258 0
M  V30 21 C 10.242857 6.238297 -8.990608 0
M  V30 22 C 9.174260 4.349118 -11.545924 0
M  V30 23 C 6.935246 4.394074 -12.447524 0
M  V30 24 S 5.034747 7.362958 -18.569899 0
M  V30 25 C 6.591845 5.267340 -19.449868 0
M  V30 26 O 6.705422 5.902690 -17.152554 0
M  V30 27 H 9.451589 9.309054 -8.017451 0
M  V30 28 H 7.405581 7.103857 -18.650323 0
M  V30 29 H 8.891541 4.748720 -8.194271 0
M  V30 30 H 10.213552 4.092426 -9.091478 0
M  V30 31 H 5.982117 3.111362 -13.833466 0
M  V30 32 H 4.943664 4.382334 -13.241717 0
M  V30 33 H 8.751484 7.633426 -9.091599 0
M  V30 34 H 11.034827 7.001546 -3.690183 0
M  V30 35 H 12.634830 7.016636 -4.290927 0
M  V30 36 H 11.833856 9.805900 -8.475112 0
M  V30 37 H 12.216160 8.109302 -8.618167 0
M  V30 38 H 11.167381 8.897584 -9.798405 0
M  V30 39 H 7.034789 7.680571 -16.117613 0
M  V30 40 H 11.034841 9.356478 -3.560090 0
M  V30 41 H 12.692007 9.353234 -4.121984 0
M  V30 42 H 12.100445 9.762760 -6.297222 0
M  V30 43 H 10.635834 10.446695 -5.607821 0
M  V30 44 H 8.695898 3.847188 -13.591940 0
M  V30 45 H 4.114092 6.919268 -16.430622 0
M  V30 46 H 4.845697 8.522958 -16.450545 0
M  V30 47 H 9.422716 8.389657 -5.888983 0
M  V30 48 H 10.475589 6.249589 -5.854891 0
M  V30 49 H 11.962965 6.898062 -6.521480 0
M  V30 50 H 6.472409 4.428203 -15.622526 0
M  V30 51 H 6.794098 5.284786 -9.315751 0
M  V30 52 H 11.094595 6.066767 -8.341099 0
M  V30 53 H 10.634737 6.551120 -9.959201 0
M  V30 54 H 10.234282 4.169301 -11.646332 0
M  V30 55 H 7.525444 4.708335 -19.376046 0
M  V30 56 H 5.771959 4.573583 -19.260862 0
M  V30 57 H 6.497918 5.625349 -20.475163 0
M  V30 58 H 8.878350 6.951574 -7.643531 0
M  V30 END ATOM
M  V30 BEGIN BOND
M  V30 1 1 5 1
M  V30 2 1 7 3
M  V30 3 1 8 1
M  V30 4 1 10 6
M  V30 5 1 11 10
M  V30 6 1 13 9
M  V30 7 1 14 9
M  V30 8 1 16 1
M  V30 9 1 16 11
M  V30 10 1 17 6
M  V30 11 1 17 16
M  V30 12 1 18 4
M  V30 13 1 18 13
M  V30 14 2 19 13
M  V30 15 2 20 7
M  V30 16 1 20 15
M  V30 17 1 21 3
M  V30 18 1 21 5
M  V30 19 1 22 7
M  V30 20 2 22 12
M  V30 21 1 23 4
M  V30 22 1 23 12
M  V30 23 2 23 15
M  V30 24 1 24 2
M  V30 25 1 24 14
M  V30 26 1 25 2
M  V30 27 1 26 2
M  V30 28 1 26 9
M  V30 29 1 1 27 CFG=1
M  V30 30 1 2 28 CFG=3
M  V30 31 1 29 3
M  V30 32 1 30 3
M  V30 33 1 31 4
M  V30 34 1 32 4
M  V30 35 1 33 5
M  V30 36 1 34 6
M  V30 37 1 35 6
M  V30 38 1 36 8
M  V30 39 1 37 8
M  V30 40 1 38 8
M  V30 41 1 9 39 CFG=1
M  V30 42 1 40 10
M  V30 43 1 41 10
M  V30 44 1 42 11
M  V30 45 1 43 11
M  V30 46 1 44 12
M  V30 47 1 45 14
M  V30 48 1 46 14
M  V30 49 1 47 16
M  V30 50 1 48 17
M  V30 51 1 49 17
M  V30 52 1 50 18
M  V30 53 1 51 20
M  V30 54 1 52 21
M  V30 55 1 53 21
M  V30 56 1 54 22
M  V30 57 1 55 25
M  V30 58 1 56 25
M  V30 59 1 57 25
M  V30 60 1 58 5
M  V30 END BOND
M  V30 END CTAB
M  END
>  <i_epik_Tot_Q>  (1) 
1

>  <i_epik_Tot_abs_Q>  (1) 
1

>  <i_i_glide_confnum>  (1) 
851

>  <i_i_glide_lignum>  (1) 
53

>  <i_i_glide_posenum>  (1) 
319

>  <i_i_glide_rotatable_bonds>  (1) 
9

>  <i_lp_mmshare_version>  (1) 
72125

>  <i_m_source_file_index>  (1) 
18

>  <i_f3d_flags>  (1) 
0

>  <num_sample>  (1) 
50

>  <b_lp_Chiralities_Consistent>  (1) 
1

>  <r_epik_Charging_Adjusted_Penalty>  (1) 
0.0010304682105854765

>  <r_epik_Ionization_Penalty>  (1) 
0.0013061012703679969

>  <r_epik_Ionization_Penalty_Charging>  (1) 
0.0010304682105854765

>  <r_epik_Ionization_Penalty_Neutral>  (1) 
0.00027563305978252047

>  <r_epik_State_Penalty>  (1) 
-0

>  <r_glide_ring_energy>  (1) 
0

>  <r_i_docking_score>  (1) 
-6.6086614353768018

>  <r_i_glide_ecoul>  (1) 
-3.6239120559601696

>  <r_i_glide_eff_state_penalty>  (1) 
-0

>  <r_i_glide_einternal>  (1) 
8.7664633944883796

>  <r_i_glide_emodel>  (1) 
-46.659000693153125

>  <r_i_glide_emodel_strain>  (1) 
0.7167742846471441

>  <r_i_glide_energy>  (1) 
-35.653390802365493

>  <r_i_glide_erotb>  (1) 
1.0818897874691362

>  <r_i_glide_esite>  (1) 
-0.10000000000000001

>  <r_i_glide_evdw>  (1) 
-32.029478746405324

>  <r_i_glide_gscore>  (1) 
-6.6086614353768018

>  <r_i_glide_gscore_strain>  (1) 
0

>  <r_i_glide_hbond>  (1) 
-0.17248616075482234

>  <r_i_glide_ligand_efficiency>  (1) 
-0.25417928597603084

>  <r_i_glide_ligand_efficiency_ln>  (1) 
-1.5520224533113818

>  <r_i_glide_ligand_efficiency_sa>  (1) 
-0.75300513537458424

>  <r_i_glide_lipo>  (1) 
-3.2909015945768343

>  <r_i_glide_metal>  (1) 
-0

>  <r_i_glide_rewards>  (1) 
-1.9821027217999889

>  <r_lp_Energy>  (1) 
26.862019999999998

>  <r_lp_tautomer_probability>  (1) 
1

>  <s_epik_Chemistry_Notes>  (1) 
This compound contains an acetal/aminal-like group ( X-CH(R)-Y where X, Y are N, S, or O) that may be acid/base labile, releasing an aldehyde.

>  <s_epik_cmdline>  (1) 
J2VwaWtfcHl0aG9uJywgJy1waHQnLCAnMS4wJywgJy1waCcsICc3LjQnLCAnLXRuJywgJzgnLCAnLW1hJywgJzUwMCcsICctaW1hZScsICc8aW5maWxlLm1hZT4nLCAnLW9tYWUnLCAnPG91dGZpbGUubWFlPic=

>  <s_epik_input>  (1) 
W0NIMl0xW0NIMl1bQ0gyXVtDSDJdW0NIXTFbQ0BASF0oW0NIM10pW05IXVtDSDJdW0NIMl1jMltjSF1uYyhbY0hdW2NIXTIpW0NIMl1bTkhdQyg9TylbQ0BASF0oTzMpW0NIMl1TW0NAQEhdM1tDSDNd

>  <s_glide_docking_method>  (1) 
confgen

>  <s_i_glide_gridfile>  (1) 
gpcr_drd2_6luq_protein_autoprepared_prepared

>  <s_lp_Force_Field>  (1) 
S-OPLS

>  <s_lp_Variant>  (1) 
DiffSBDD_17_num_sample_50-1

>  <s_m_source_file>  (1) 
generated__ligand_DiffSBDD_2026-05-06_prepared.sdf

>  <GenAI_Model>  (1) 
DiffSBDD

>  <Protein>  (1) 
generic_title2

$$$$
DiffSBDD_17_num_sample_50
     RDKit          3D

  0  0  0  0  0  0  0  0  0  0999 V3000
M  V30 BEGIN CTAB
M  V30 COUNTS 58 60 0 0 1
M  V30 BEGIN ATOM
M  V30 1 C 9.872348 8.380538 -7.547475 0 CFG=2
M  V30 2 C 8.870732 1.222205 -17.796480 0 CFG=2
M  V30 3 C 8.821195 4.945927 -8.970102 0
M  V30 4 C 6.716325 5.056352 -14.358645 0
M  V30 5 N 9.035881 7.227970 -7.976016 0 CHG=1
M  V30 6 C 11.691811 7.316462 -4.289582 0
M  V30 7 C 8.317850 4.979924 -10.406742 0
M  V30 8 C 11.004040 8.704868 -8.550788 0
M  V30 9 C 7.420799 1.705711 -16.093776 0 CFG=2
M  V30 10 C 11.864139 8.842461 -4.247221 0
M  V30 11 C 11.191928 9.392737 -5.512634 0
M  V30 12 C 8.686328 4.762852 -12.779179 0
M  V30 13 C 7.034994 2.684230 -14.978365 0
M  V30 14 C 7.879158 0.315260 -15.636609 0
M  V30 15 N 6.455880 5.273078 -11.945979 0
M  V30 16 C 10.312616 8.253207 -6.063744 0
M  V30 17 C 11.069101 6.988714 -5.650680 0
M  V30 18 N 7.144947 3.993251 -15.269440 0
M  V30 19 O 6.628418 2.266065 -13.894465 0
M  V30 20 C 6.961126 5.242228 -10.691642 0
M  V30 21 C 9.754677 6.084764 -8.574010 0
M  V30 22 C 9.194385 4.735600 -11.476398 0
M  V30 23 C 7.315407 5.030389 -12.964264 0
M  V30 24 S 8.651422 -0.426354 -17.089535 0
M  V30 25 C 10.318666 1.461444 -18.230095 0
M  V30 26 O 8.511002 2.217161 -16.850425 0
M  V30 27 H 9.181103 9.224397 -7.573613 0
M  V30 28 H 8.206170 1.306206 -18.657030 0
M  V30 29 H 7.993781 4.835359 -8.266352 0
M  V30 30 H 9.435627 4.061372 -8.866629 0
M  V30 31 H 5.627253 5.034537 -14.290526 0
M  V30 32 H 6.971524 6.014085 -14.812019 0
M  V30 33 H 8.362905 7.551888 -8.678299 0
M  V30 34 H 11.040591 6.969215 -3.488161 0
M  V30 35 H 12.633508 6.802636 -4.130065 0
M  V30 36 H 11.468501 9.668679 -8.354678 0
M  V30 37 H 11.798326 7.959451 -8.525865 0
M  V30 38 H 10.617902 8.759175 -9.569356 0
M  V30 39 H 6.553968 1.604068 -16.750036 0
M  V30 40 H 11.419242 9.260728 -3.344384 0
M  V30 41 H 12.919776 9.117607 -4.228351 0
M  V30 42 H 11.982218 9.651493 -6.215484 0
M  V30 43 H 10.635708 10.307774 -5.313634 0
M  V30 44 H 9.332412 4.575239 -13.624864 0
M  V30 45 H 8.630069 0.399557 -14.848559 0
M  V30 46 H 7.056828 -0.298677 -15.267597 0
M  V30 47 H 9.390923 8.235859 -5.493014 0
M  V30 48 H 10.410535 6.123996 -5.578537 0
M  V30 49 H 11.844254 6.758464 -6.377668 0
M  V30 50 H 7.495978 4.262455 -16.176922 0
M  V30 51 H 6.261267 5.429179 -9.891857 0
M  V30 52 H 10.465426 5.696776 -7.848877 0
M  V30 53 H 10.339467 6.383500 -9.443008 0
M  V30 54 H 10.234789 4.526728 -11.300379 0
M  V30 55 H 10.434800 2.452433 -18.668479 0
M  V30 56 H 10.997732 1.393673 -17.380455 0
M  V30 57 H 10.634090 0.727830 -18.972662 0
M  V30 58 H 8.462523 6.921464 -7.201244 0
M  V30 END ATOM
M  V30 BEGIN BOND
M  V30 1 1 5 1
M  V30 2 1 7 3
M  V30 3 1 8 1
M  V30 4 1 10 6
M  V30 5 1 11 10
M  V30 6 1 13 9
M  V30 7 1 14 9
M  V30 8 1 16 1
M  V30 9 1 16 11
M  V30 10 1 17 6
M  V30 11 1 17 16
M  V30 12 1 18 4
M  V30 13 1 18 13
M  V30 14 2 19 13
M  V30 15 2 20 7
M  V30 16 1 20 15
M  V30 17 1 21 3
M  V30 18 1 21 5
M  V30 19 1 22 7
M  V30 20 2 22 12
M  V30 21 1 23 4
M  V30 22 1 23 12
M  V30 23 2 23 15
M  V30 24 1 24 2
M  V30 25 1 24 14
M  V30 26 1 25 2
M  V30 27 1 26 2
M  V30 28 1 26 9
M  V30 29 1 1 27 CFG=1
M  V30 30 1 2 28 CFG=3
M  V30 31 1 29 3
M  V30 32 1 30 3
M  V30 33 1 31 4
M  V30 34 1 32 4
M  V30 35 1 33 5
M  V30 36 1 34 6
M  V30 37 1 35 6
M  V30 38 1 36 8
M  V30 39 1 37 8
M  V30 40 1 38 8
M  V30 41 1 9 39 CFG=3
M  V30 42 1 40 10
M  V30 43 1 41 10
M  V30 44 1 42 11
M  V30 45 1 43 11
M  V30 46 1 44 12
M  V30 47 1 45 14
M  V30 48 1 46 14
M  V30 49 1 47 16
M  V30 50 1 48 17
M  V30 51 1 49 17
M  V30 52 1 50 18
M  V30 53 1 51 20
M  V30 54 1 52 21
M  V30 55 1 53 21
M  V30 56 1 54 22
M  V30 57 1 55 25
M  V30 58 1 56 25
M  V30 59 1 57 25
M  V30 60 1 58 5
M  V30 END BOND
M  V30 END CTAB
M  END
>  <i_epik_Tot_Q>  (1) 
1

>  <i_epik_Tot_abs_Q>  (1) 
1

>  <i_i_glide_confnum>  (1) 
380

>  <i_i_glide_lignum>  (1) 
53

>  <i_i_glide_posenum>  (1) 
347

>  <i_i_glide_rotatable_bonds>  (1) 
9

>  <i_lp_mmshare_version>  (1) 
72125

>  <i_m_source_file_index>  (1) 
18

>  <i_f3d_flags>  (1) 
0

>  <num_sample>  (1) 
50

>  <b_lp_Chiralities_Consistent>  (1) 
1

>  <r_epik_Charging_Adjusted_Penalty>  (1) 
0.0010304682105854765

>  <r_epik_Ionization_Penalty>  (1) 
0.0013061012703679969

>  <r_epik_Ionization_Penalty_Charging>  (1) 
0.0010304682105854765

>  <r_epik_Ionization_Penalty_Neutral>  (1) 
0.00027563305978252047

>  <r_epik_State_Penalty>  (1) 
-0

>  <r_glide_ring_energy>  (1) 
0

>  <r_i_docking_score>  (1) 
-6.6074357934616632

>  <r_i_glide_ecoul>  (1) 
-5.3839705374518898

>  <r_i_glide_eff_state_penalty>  (1) 
-0

>  <r_i_glide_einternal>  (1) 
12.377608941534344

>  <r_i_glide_emodel>  (1) 
-45.326674003681838

>  <r_i_glide_emodel_strain>  (1) 
1.51242802207517

>  <r_i_glide_energy>  (1) 
-36.92527757030566

>  <r_i_glide_erotb>  (1) 
0.75732285122839527

>  <r_i_glide_esite>  (1) 
-0.099795104660329037

>  <r_i_glide_evdw>  (1) 
-31.541307032853773

>  <r_i_glide_gscore>  (1) 
-6.6074357934616632

>  <r_i_glide_gscore_strain>  (1) 
0

>  <r_i_glide_hbond>  (1) 
-0.22923867539035625

>  <r_i_glide_ligand_efficiency>  (1) 
-0.25413214590237165

>  <r_i_glide_ligand_efficiency_ln>  (1) 
-1.5517346153292708

>  <r_i_glide_ligand_efficiency_sa>  (1) 
-0.75286548309170442

>  <r_i_glide_lipo>  (1) 
-2.2895552121762512

>  <r_i_glide_metal>  (1) 
-0

>  <r_i_glide_rewards>  (1) 
-2.3615087202026497

>  <r_lp_Energy>  (1) 
26.862019999999998

>  <r_lp_tautomer_probability>  (1) 
1

>  <s_epik_Chemistry_Notes>  (1) 
This compound contains an acetal/aminal-like group ( X-CH(R)-Y where X, Y are N, S, or O) that may be acid/base labile, releasing an aldehyde.

>  <s_epik_cmdline>  (1) 
J2VwaWtfcHl0aG9uJywgJy1waHQnLCAnMS4wJywgJy1waCcsICc3LjQnLCAnLXRuJywgJzgnLCAnLW1hJywgJzUwMCcsICctaW1hZScsICc8aW5maWxlLm1hZT4nLCAnLW9tYWUnLCAnPG91dGZpbGUubWFlPic=

>  <s_epik_input>  (1) 
W0NIMl0xW0NIMl1bQ0gyXVtDSDJdW0NIXTFbQ0BASF0oW0NIM10pW05IXVtDSDJdW0NIMl1jMltjSF1uYyhbY0hdW2NIXTIpW0NIMl1bTkhdQyg9TylbQ0BASF0oTzMpW0NIMl1TW0NAQEhdM1tDSDNd

>  <s_glide_docking_method>  (1) 
confgen

>  <s_i_glide_gridfile>  (1) 
gpcr_drd2_6luq_protein_autoprepared_prepared

>  <s_lp_Force_Field>  (1) 
S-OPLS

>  <s_lp_Variant>  (1) 
DiffSBDD_17_num_sample_50-1

>  <s_m_source_file>  (1) 
generated__ligand_DiffSBDD_2026-05-06_prepared.sdf

>  <GenAI_Model>  (1) 
DiffSBDD

>  <Protein>  (1) 
generic_title2

$$$$
DiffSBDD_23_num_sample_50
     RDKit          3D

  0  0  0  0  0  0  0  0  0  0999 V3000
M  V30 BEGIN CTAB
M  V30 COUNTS 68 70 0 0 1
M  V30 BEGIN ATOM
M  V30 1 C 7.893916 4.565805 -10.349610 0
M  V30 2 C 9.656996 6.865527 -10.235534 0
M  V30 3 C 11.434848 6.846915 -4.665711 0
M  V30 4 C 11.834803 9.231354 -4.318241 0
M  V30 5 C 8.205033 5.189254 -8.986954 0
M  V30 6 C 12.234894 8.968052 -2.993724 0
M  V30 7 C 7.552674 5.561113 -14.063833 0 CFG=1
M  V30 8 O 7.369077 2.390277 -17.509686 0 CHG=-1
M  V30 9 C 9.517035 5.994558 -8.965233 0 CFG=2
M  V30 10 O 11.041935 8.456048 -6.452693 0
M  V30 11 C 7.335214 3.456380 -18.164284 0
M  V30 12 C 9.318960 6.123359 -11.540738 0
M  V30 13 C 8.409162 4.528724 -17.828341 0
M  V30 14 N 7.966456 5.506449 -11.493758 0 CFG=1 CHG=1
M  V30 15 O 6.506439 3.735359 -19.060652 0
M  V30 16 C 6.221303 6.304438 -14.305611 0
M  V30 17 C 7.591128 4.762196 -12.737172 0
M  V30 18 C 6.663934 6.203388 -16.813222 0
M  V30 19 C 8.647031 5.442919 -19.061332 0
M  V30 20 C 11.834935 6.590274 -3.338974 0
M  V30 21 C 9.649489 6.829975 -7.668399 0
M  V30 22 C 11.049719 7.443309 -7.456042 0
M  V30 23 C 9.760943 3.819860 -17.553044 0
M  V30 24 C 7.830736 4.616820 -15.253723 0
M  V30 25 C 4.989586 7.860516 -15.945951 0
M  V30 26 C 7.966552 5.389503 -16.587848 0 CFG=1
M  V30 27 C 6.279755 7.104449 -15.622977 0 CFG=1
M  V30 28 C 11.434279 8.175364 -5.160285 0
M  V30 29 C 12.234998 7.649321 -2.505855 0
M  V30 30 H 8.612548 3.769674 -10.543036 0
M  V30 31 H 6.899529 4.119329 -10.307301 0
M  V30 32 H 9.034888 7.754444 -10.151278 0
M  V30 33 H 10.677582 7.237009 -10.320914 0
M  V30 34 H 11.126329 6.028256 -5.296324 0
M  V30 35 H 11.834046 10.244426 -4.690857 0
M  V30 36 H 8.259155 4.403348 -8.234123 0
M  V30 37 H 7.346851 5.769342 -8.691336 0
M  V30 38 H 12.542380 9.777965 -2.351421 0
M  V30 39 H 8.353224 6.292838 -14.074649 0
M  V30 40 H 10.311123 5.254547 -8.969584 0
M  V30 41 H 10.064661 5.351324 -11.740325 0
M  V30 42 H 9.394971 6.845623 -12.350237 0
M  V30 43 H 5.395684 5.592099 -14.343988 0
M  V30 44 H 6.014403 6.978583 -13.473152 0
M  V30 45 H 8.305664 3.943403 -12.841300 0
M  V30 46 H 6.620828 4.282640 -12.595509 0
M  V30 47 H 6.756626 6.837580 -17.693361 0
M  V30 48 H 5.837298 5.522442 -17.018350 0
M  V30 49 H 9.374563 6.223621 -18.840264 0
M  V30 50 H 9.032432 4.871389 -19.906911 0
M  V30 51 H 7.740568 5.935103 -19.412416 0
M  V30 52 H 11.834618 5.580577 -2.960643 0
M  V30 53 H 9.392828 6.213042 -6.807175 0
M  V30 54 H 8.908630 7.630937 -7.685913 0
M  V30 55 H 11.364590 7.959522 -8.360437 0
M  V30 56 H 11.809710 6.679634 -7.286685 0
M  V30 57 H 10.536993 4.536954 -17.283376 0
M  V30 58 H 9.704338 3.083694 -16.751843 0
M  V30 59 H 10.108829 3.283900 -18.437613 0
M  V30 60 H 8.750425 4.071584 -15.051910 0
M  V30 61 H 7.040064 3.869158 -15.323622 0
M  V30 62 H 4.200018 7.191822 -16.291651 0
M  V30 63 H 4.633835 8.431270 -15.090373 0
M  V30 64 H 5.171041 8.568402 -16.752717 0
M  V30 65 H 8.777500 6.098405 -16.426888 0
M  V30 66 H 7.035682 7.874520 -15.494764 0
M  V30 67 H 12.542952 7.449918 -1.491887 0
M  V30 68 H 7.295534 6.246468 -11.323013 0
M  V30 END ATOM
M  V30 BEGIN BOND
M  V30 1 1 5 1
M  V30 2 1 6 4
M  V30 3 1 9 2
M  V30 4 1 9 5
M  V30 5 1 11 8
M  V30 6 1 12 2
M  V30 7 1 13 11
M  V30 8 1 14 1
M  V30 9 1 14 12
M  V30 10 2 15 11
M  V30 11 1 16 7
M  V30 12 1 17 7
M  V30 13 1 17 14
M  V30 14 1 19 13
M  V30 15 2 20 3
M  V30 16 1 21 9
M  V30 17 1 22 10
M  V30 18 1 22 21
M  V30 19 1 23 13
M  V30 20 1 24 7
M  V30 21 1 26 13
M  V30 22 1 26 18
M  V30 23 1 26 24
M  V30 24 1 27 16
M  V30 25 1 27 18
M  V30 26 1 27 25
M  V30 27 1 28 3
M  V30 28 2 28 4
M  V30 29 1 28 10
M  V30 30 2 29 6
M  V30 31 1 29 20
M  V30 32 1 30 1
M  V30 33 1 31 1
M  V30 34 1 32 2
M  V30 35 1 33 2
M  V30 36 1 34 3
M  V30 37 1 35 4
M  V30 38 1 36 5
M  V30 39 1 37 5
M  V30 40 1 38 6
M  V30 41 1 7 39 CFG=1
M  V30 42 1 9 40 CFG=1
M  V30 43 1 41 12
M  V30 44 1 42 12
M  V30 45 1 43 16
M  V30 46 1 44 16
M  V30 47 1 45 17
M  V30 48 1 46 17
M  V30 49 1 47 18
M  V30 50 1 48 18
M  V30 51 1 49 19
M  V30 52 1 50 19
M  V30 53 1 51 19
M  V30 54 1 52 20
M  V30 55 1 53 21
M  V30 56 1 54 21
M  V30 57 1 55 22
M  V30 58 1 56 22
M  V30 59 1 57 23
M  V30 60 1 58 23
M  V30 61 1 59 23
M  V30 62 1 60 24
M  V30 63 1 61 24
M  V30 64 1 62 25
M  V30 65 1 63 25
M  V30 66 1 64 25
M  V30 67 1 26 65 CFG=1
M  V30 68 1 27 66 CFG=1
M  V30 69 1 67 29
M  V30 70 1 14 68 CFG=1
M  V30 END BOND
M  V30 END CTAB
M  END
>  <i_epik_Tot_Q>  (1) 
0

>  <i_epik_Tot_abs_Q>  (1) 
2

>  <i_i_glide_confnum>  (1) 
32

>  <i_i_glide_lignum>  (1) 
62

>  <i_i_glide_posenum>  (1) 
202

>  <i_i_glide_rotatable_bonds>  (1) 
8

>  <i_lp_mmshare_version>  (1) 
72125

>  <i_m_source_file_index>  (1) 
24

>  <i_f3d_flags>  (1) 
0

>  <num_sample>  (1) 
50

>  <b_lp_Chiralities_Consistent>  (1) 
1

>  <r_epik_Charging_Adjusted_Penalty>  (1) 
0.003094722008017318

>  <r_epik_Ionization_Penalty>  (1) 
0.003094722008017318

>  <r_epik_Ionization_Penalty_Charging>  (1) 
0.003094722008017318

>  <r_epik_Ionization_Penalty_Neutral>  (1) 
0

>  <r_epik_State_Penalty>  (1) 
-0

>  <r_glide_ring_energy>  (1) 
0

>  <r_i_docking_score>  (1) 
-6.5071648570743461

>  <r_i_glide_ecoul>  (1) 
-3.6639552383020204

>  <r_i_glide_eff_state_penalty>  (1) 
-0

>  <r_i_glide_einternal>  (1) 
6.9125098064404398

>  <r_i_glide_emodel>  (1) 
-47.931589602118144

>  <r_i_glide_emodel_strain>  (1) 
0.72357572180465013

>  <r_i_glide_energy>  (1) 
-38.642206328830881

>  <r_i_glide_erotb>  (1) 
0.72975461734148295

>  <r_i_glide_esite>  (1) 
-0.039967451419005373

>  <r_i_glide_evdw>  (1) 
-34.978251090528858

>  <r_i_glide_gscore>  (1) 
-6.5071648570743461

>  <r_i_glide_gscore_strain>  (1) 
0

>  <r_i_glide_hbond>  (1) 
0

>  <r_i_glide_ligand_efficiency>  (1) 
-0.22438499507152918

>  <r_i_glide_ligand_efficiency_ln>  (1) 
-1.4899757448064832

>  <r_i_glide_ligand_efficiency_sa>  (1) 
-0.68938179578969516

>  <r_i_glide_lipo>  (1) 
-3.2841810344570161

>  <r_i_glide_metal>  (1) 
-0

>  <r_i_glide_rewards>  (1) 
-1.6142651482680614

>  <r_lp_Energy>  (1) 
52.616563999999997

>  <r_lp_tautomer_probability>  (1) 
1

>  <s_epik_cmdline>  (1) 
J2VwaWtfcHl0aG9uJywgJy1waHQnLCAnMS4wJywgJy1waCcsICc3LjQnLCAnLXRuJywgJzgnLCAnLW1hJywgJzUwMCcsICctaW1hZScsICc8aW5maWxlLm1hZT4nLCAnLW9tYWUnLCAnPG91dGZpbGUubWFlPic=

>  <s_epik_input>  (1) 
W09IXUMoPU8pQyhbQ0gzXSkoW0NIM10pW0NASF0oW0NIMl0xKVtDSDJdW0NAQEhdKFtDSDNdKVtDSDJdW0NASF0xW0NIMl1OKFtDSDJdW0NIMl0yKVtDSDJdW0NIMl1bQ0hdMltDSDJdW0NIMl1PYzNbY0hdW2NIXVtjSF1bY0hdW2NIXTM=

>  <s_glide_docking_method>  (1) 
confgen

>  <s_i_glide_gridfile>  (1) 
gpcr_drd2_6luq_protein_autoprepared_prepared

>  <s_lp_Force_Field>  (1) 
S-OPLS

>  <s_lp_Variant>  (1) 
DiffSBDD_23_num_sample_50-1

>  <s_m_source_file>  (1) 
generated__ligand_DiffSBDD_2026-05-06_prepared.sdf

>  <GenAI_Model>  (1) 
DiffSBDD

>  <Protein>  (1) 
generic_title2

$$$$
DiffSBDD_0_num_sample_50
     RDKit          3D

  0  0  0  0  0  0  0  0  0  0999 V3000
M  V30 BEGIN CTAB
M  V30 COUNTS 58 61 0 0 1
M  V30 BEGIN ATOM
M  V30 1 C 10.227835 6.791196 -7.086011 0
M  V30 2 C 6.598214 6.126650 -13.535863 0 CFG=2
M  V30 3 N 7.189962 6.785600 -12.331731 0 CFG=1 CHG=1
M  V30 4 N 9.434865 6.049561 -9.687232 0
M  V30 5 C 4.878712 6.614460 -19.299490 0
M  V30 6 C 6.851146 5.206831 -18.500189 0
M  V30 7 C 8.767911 4.969299 -14.449135 0
M  V30 8 S 5.658581 6.712270 -16.630607 0
M  V30 9 O 7.952873 8.754273 -11.491682 0
M  V30 10 C 10.643804 7.539670 -8.216493 0
M  V30 11 C 5.931512 4.850208 -12.990069 0
M  V30 12 C 10.243890 7.119812 -9.612438 0
M  V30 13 C 6.371779 5.369306 -10.427790 0
M  V30 14 C 7.574496 5.901758 -14.755335 0 CFG=1
M  V30 15 C 8.987181 5.484426 -10.958563 0
M  V30 16 N 9.957270 5.338075 -14.922898 0
M  V30 17 O 8.608706 3.945404 -13.796784 0
M  V30 18 F 11.792333 8.720480 -4.375316 0
M  V30 19 O 10.658145 7.728752 -10.598905 0
M  V30 20 C 10.622396 7.190354 -5.793352 0
M  V30 21 C 6.823873 5.446106 -16.036055 0 CFG=2
M  V30 22 C 6.620620 4.574406 -11.682255 0 CFG=2
M  V30 23 C 11.833410 9.082158 -6.737324 0
M  V30 24 F 4.234841 7.767923 -19.123955 0
M  V30 25 F 5.246444 6.513467 -20.576052 0
M  V30 26 C 7.522635 5.737503 -11.321309 0 CFG=2
M  V30 27 C 8.139142 7.897267 -12.592960 0
M  V30 28 F 10.234817 6.469299 -4.715822 0
M  V30 29 C 11.419382 8.337086 -5.619811 0
M  V30 30 C 6.102721 6.534950 -18.380575 0 CFG=2
M  V30 31 C 7.710461 5.080838 -17.244436 0
M  V30 32 C 11.451523 8.684186 -8.033421 0
M  V30 33 H 9.614505 5.911515 -7.205974 0
M  V30 34 H 5.808542 6.801010 -13.866427 0
M  V30 35 H 9.125594 5.604806 -8.836760 0
M  V30 36 H 4.180021 5.806288 -19.097426 0
M  V30 37 H 6.141645 4.379082 -18.540515 0
M  V30 38 H 7.452485 5.163075 -19.408952 0
M  V30 39 H 7.601269 8.286821 -10.724166 0
M  V30 40 H 6.017941 3.989282 -13.651828 0
M  V30 41 H 4.873086 4.996357 -12.805915 0
M  V30 42 H 6.634842 4.887852 -9.491660 0
M  V30 43 H 5.500449 6.021742 -10.393734 0
M  V30 44 H 7.990738 6.868821 -15.019718 0
M  V30 45 H 9.105790 4.407283 -10.835909 0
M  V30 46 H 9.656251 5.716301 -11.785249 0
M  V30 47 H 10.048591 6.183210 -15.464951 0
M  V30 48 H 10.775322 4.764363 -14.730907 0
M  V30 49 H 6.234872 4.569339 -15.795712 0
M  V30 50 H 6.999595 3.564880 -11.558135 0
M  V30 51 H 12.447965 9.959122 -6.601414 0
M  V30 52 H 7.834862 8.457252 -13.477770 0
M  V30 53 H 9.176922 7.592639 -12.691828 0
M  V30 54 H 6.788525 7.346899 -18.622357 0
M  V30 55 H 8.550615 5.769763 -17.325432 0
M  V30 56 H 8.125283 4.076139 -17.151679 0
M  V30 57 H 11.776335 9.260228 -8.888860 0
M  V30 58 H 6.394562 7.250327 -11.916472 0
M  V30 END ATOM
M  V30 BEGIN BOND
M  V30 1 1 3 2
M  V30 2 2 10 1
M  V30 3 1 11 2
M  V30 4 1 12 4
M  V30 5 1 12 10
M  V30 6 1 14 2
M  V30 7 1 14 7
M  V30 8 1 15 4
M  V30 9 1 16 7
M  V30 10 2 17 7
M  V30 11 2 19 12
M  V30 12 1 20 1
M  V30 13 1 21 8
M  V30 14 1 21 14
M  V30 15 1 22 11
M  V30 16 1 22 13
M  V30 17 1 24 5
M  V30 18 1 25 5
M  V30 19 1 26 3
M  V30 20 1 26 13
M  V30 21 1 26 15 CFG=1
M  V30 22 1 26 22
M  V30 23 1 27 3
M  V30 24 1 27 9
M  V30 25 1 28 20
M  V30 26 1 29 18
M  V30 27 2 29 20
M  V30 28 1 29 23
M  V30 29 1 30 5
M  V30 30 1 30 6
M  V30 31 1 30 8
M  V30 32 1 31 6
M  V30 33 1 31 21
M  V30 34 1 32 10
M  V30 35 2 32 23
M  V30 36 1 33 1
M  V30 37 1 2 34 CFG=3
M  V30 38 1 35 4
M  V30 39 1 36 5
M  V30 40 1 37 6
M  V30 41 1 38 6
M  V30 42 1 39 9
M  V30 43 1 40 11
M  V30 44 1 41 11
M  V30 45 1 42 13
M  V30 46 1 43 13
M  V30 47 1 14 44 CFG=3
M  V30 48 1 45 15
M  V30 49 1 46 15
M  V30 50 1 47 16
M  V30 51 1 48 16
M  V30 52 1 21 49 CFG=1
M  V30 53 1 22 50 CFG=1
M  V30 54 1 51 23
M  V30 55 1 52 27
M  V30 56 1 53 27
M  V30 57 1 30 54 CFG=3
M  V30 58 1 55 31
M  V30 59 1 56 31
M  V30 60 1 57 32
M  V30 61 1 3 58 CFG=1
M  V30 END BOND
M  V30 END CTAB
M  END
>  <i_epik_Tot_Q>  (1) 
1

>  <i_epik_Tot_abs_Q>  (1) 
1

>  <i_i_glide_confnum>  (1) 
241

>  <i_i_glide_lignum>  (1) 
3

>  <i_i_glide_posenum>  (1) 
119

>  <i_i_glide_rotatable_bonds>  (1) 
10

>  <i_lp_mmshare_version>  (1) 
72125

>  <i_m_source_file_index>  (1) 
1

>  <i_f3d_flags>  (1) 
0

>  <num_sample>  (1) 
50

>  <b_lp_Chiralities_Consistent>  (1) 
1

>  <r_epik_Charging_Adjusted_Penalty>  (1) 
2.6270329568783799

>  <r_epik_Ionization_Penalty>  (1) 
1.3408557112072272

>  <r_epik_Ionization_Penalty_Charging>  (1) 
1.3119003563655398

>  <r_epik_Ionization_Penalty_Neutral>  (1) 
0.028955354841687337

>  <r_epik_State_Penalty>  (1) 
1.3151326005128403

>  <r_glide_ring_energy>  (1) 
0

>  <r_i_docking_score>  (1) 
-6.5003135366107578

>  <r_i_glide_ecoul>  (1) 
-11.484212339699022

>  <r_i_glide_eff_state_penalty>  (1) 
1.3151326005128403

>  <r_i_glide_einternal>  (1) 
18.124402688539973

>  <r_i_glide_emodel>  (1) 
-54.227076558507463

>  <r_i_glide_emodel_strain>  (1) 
0.38075271925954723

>  <r_i_glide_energy>  (1) 
-41.317240568423934

>  <r_i_glide_erotb>  (1) 
0.53508942527165992

>  <r_i_glide_esite>  (1) 
-0.26213997441043418

>  <r_i_glide_evdw>  (1) 
-29.83302822872491

>  <r_i_glide_gscore>  (1) 
-7.8154461371235984

>  <r_i_glide_gscore_strain>  (1) 
0

>  <r_i_glide_hbond>  (1) 
-0.44803927049869119

>  <r_i_glide_ligand_efficiency>  (1) 
-0.20313479801908618

>  <r_i_glide_ligand_efficiency_ln>  (1) 
-1.455597392701947

>  <r_i_glide_ligand_efficiency_sa>  (1) 
-0.64491278413369035

>  <r_i_glide_lipo>  (1) 
-2.4037974006761398

>  <r_i_glide_metal>  (1) 
-0

>  <r_i_glide_rewards>  (1) 
-2.0222756544188938

>  <r_lp_Energy>  (1) 
18.756574999999998

>  <s_epik_Chemistry_Notes>  (1) 
This compound contains an acetal/aminal-like group ( X-CH(R)-Y where X, Y are N, S, or O) that may be acid/base labile, releasing an aldehyde.

>  <s_epik_cmdline>  (1) 
J2VwaWtfcHl0aG9uJywgJy1waHQnLCAnMS4wJywgJy1waCcsICc3LjQnLCAnLXRuJywgJzgnLCAnLW1hJywgJzUwMCcsICctaW1hZScsICc8aW5maWxlLm1hZT4nLCAnLW9tYWUnLCAnPG91dGZpbGUubWFlPic=

>  <s_epik_input>  (1) 
W2NIXTFbY0hdYyhGKWMoRilbY0hdYzFDKD1PKVtOSF1bQ0gyXVtDQF0yM1tDQEBIXShbQ0gyXTMpW0NIMl1bQ0BASF0oTjJbQ0gyXVtPSF0pW0NAQEhdKEMoPU8pW05IMl0pW0NASF00U1tDQEhdKFtDSF0oRilGKVtDSDJdW0NIMl00

>  <s_glide_docking_method>  (1) 
confgen

>  <s_i_glide_gridfile>  (1) 
gpcr_drd2_6luq_protein_autoprepared_prepared

>  <s_lp_Force_Field>  (1) 
S-OPLS

>  <s_lp_Variant>  (1) 
DiffSBDD_0_num_sample_50-3

>  <s_m_source_file>  (1) 
generated__ligand_DiffSBDD_2026-05-06_prepared.sdf

>  <GenAI_Model>  (1) 
DiffSBDD

>  <Protein>  (1) 
generic_title2

$$$$
DiffSBDD_38_num_sample_50
     RDKit          3D

  0  0  0  0  0  0  0  0  0  0999 V3000
M  V30 BEGIN CTAB
M  V30 COUNTS 60 62 0 0 1
M  V30 BEGIN ATOM
M  V30 1 C 5.763953 4.953543 -19.449964 0
M  V30 2 O 8.025458 4.903005 -20.254453 0
M  V30 3 S 9.557143 4.969302 -15.891661 0
M  V30 4 F 11.511758 6.177283 -6.688787 0
M  V30 5 C 10.372332 7.224710 -9.979327 0 CFG=2
M  V30 6 C 5.321952 7.452756 -19.950552 0
M  V30 7 C 9.427334 5.524006 -8.438110 0
M  V30 8 C 8.234955 5.958208 -13.205990 0
M  V30 9 C 4.923573 6.220803 -19.115587 0 CFG=2
M  V30 10 C 7.944952 5.369401 -15.618566 0
M  V30 11 N 7.722376 5.626442 -18.144599 0
M  V30 12 C 8.861337 5.468607 -10.785504 0
M  V30 13 C 5.980843 5.329922 -14.092912 0
M  V30 14 C 7.278456 5.152754 -19.313463 0
M  V30 15 F 12.157801 7.768495 -7.968029 0
M  V30 16 O 6.234835 7.772217 -16.160754 0
M  V30 17 C 8.152545 4.940684 -12.036993 0 CFG=2
M  V30 18 O 9.731502 6.520237 -11.031056 0
M  V30 19 C 8.892311 3.650200 -12.436757 0
M  V30 20 O 10.998166 8.857621 -5.774878 0
M  V30 21 C 8.696828 4.985698 -9.539864 0
M  V30 22 N 9.034839 8.259619 -6.691667 0
M  V30 23 C 6.653813 4.660028 -11.728796 0
M  V30 24 C 6.054149 6.742886 -16.808670 0
M  V30 25 C 10.358542 8.171412 -6.570690 0
M  V30 26 C 4.759889 6.569306 -17.608362 0
M  V30 27 C 10.234839 6.569302 -8.611172 0
M  V30 28 C 7.016087 5.531883 -16.860358 0 CFG=2
M  V30 29 N 7.406198 5.542104 -14.356021 0
M  V30 30 C 5.824902 4.292076 -12.973231 0
M  V30 31 N 9.834839 8.538227 -9.891666 0
M  V30 32 C 11.073829 7.161465 -7.476972 0
M  V30 33 H 5.442669 4.103448 -18.848052 0
M  V30 34 H 5.563718 4.665192 -20.482867 0
M  V30 35 H 11.431163 7.280629 -10.233186 0
M  V30 36 H 6.312724 7.821145 -19.686838 0
M  V30 37 H 5.329122 7.219099 -21.015767 0
M  V30 38 H 4.616956 8.271443 -19.799690 0
M  V30 39 H 9.334538 5.072449 -7.464230 0
M  V30 40 H 7.838475 6.915921 -12.865620 0
M  V30 41 H 9.274267 6.163065 -13.456026 0
M  V30 42 H 3.922742 5.952536 -19.445809 0
M  V30 43 H 8.715719 5.802807 -18.079779 0
M  V30 44 H 5.531416 6.278079 -13.794742 0
M  V30 45 H 5.434833 4.969299 -14.956837 0
M  V30 46 H 8.402420 3.111577 -13.246537 0
M  V30 47 H 9.903160 3.880353 -12.768720 0
M  V30 48 H 9.001235 2.969286 -11.595170 0
M  V30 49 H 8.016156 4.169304 -9.372068 0
M  V30 50 H 8.519784 8.905906 -6.115585 0
M  V30 51 H 8.543115 7.675603 -7.360394 0
M  V30 52 H 6.546537 3.860775 -10.996074 0
M  V30 53 H 6.215507 5.549123 -11.271238 0
M  V30 54 H 4.195087 5.777711 -17.116437 0
M  V30 55 H 6.443117 4.611112 -16.885140 0
M  V30 56 H 4.773628 4.196657 -12.700593 0
M  V30 57 H 6.125476 3.311144 -13.341917 0
M  V30 58 H 9.869310 8.969299 -10.801928 0
M  V30 59 H 8.839620 8.475735 -9.678646 0
M  V30 60 H 4.160694 7.474333 -17.503294 0
M  V30 END ATOM
M  V30 BEGIN BOND
M  V30 1 1 9 1
M  V30 2 1 9 6
M  V30 3 2 10 3
M  V30 4 1 14 1
M  V30 5 2 14 2
M  V30 6 1 14 11
M  V30 7 1 17 8
M  V30 8 1 17 12
M  V30 9 1 18 5
M  V30 10 1 18 12
M  V30 11 1 17 19 CFG=3
M  V30 12 1 21 7
M  V30 13 2 21 12
M  V30 14 1 23 17
M  V30 15 2 24 16
M  V30 16 2 25 20
M  V30 17 1 25 22
M  V30 18 1 26 9
M  V30 19 1 26 24
M  V30 20 1 27 5
M  V30 21 2 27 7
M  V30 22 1 28 10
M  V30 23 1 28 11
M  V30 24 1 28 24
M  V30 25 1 29 8
M  V30 26 1 29 10
M  V30 27 1 29 13
M  V30 28 1 30 13
M  V30 29 1 30 23
M  V30 30 1 31 5
M  V30 31 1 32 4
M  V30 32 1 32 15
M  V30 33 1 32 25
M  V30 34 1 32 27
M  V30 35 1 33 1
M  V30 36 1 34 1
M  V30 37 1 5 35 CFG=3
M  V30 38 1 36 6
M  V30 39 1 37 6
M  V30 40 1 38 6
M  V30 41 1 39 7
M  V30 42 1 40 8
M  V30 43 1 41 8
M  V30 44 1 9 42 CFG=3
M  V30 45 1 43 11
M  V30 46 1 44 13
M  V30 47 1 45 13
M  V30 48 1 46 19
M  V30 49 1 47 19
M  V30 50 1 48 19
M  V30 51 1 49 21
M  V30 52 1 50 22
M  V30 53 1 51 22
M  V30 54 1 52 23
M  V30 55 1 53 23
M  V30 56 1 54 26
M  V30 57 1 28 55 CFG=3
M  V30 58 1 56 30
M  V30 59 1 57 30
M  V30 60 1 58 31
M  V30 61 1 59 31
M  V30 62 1 60 26
M  V30 END BOND
M  V30 END CTAB
M  END
>  <i_epik_Tot_Q>  (1) 
0

>  <i_epik_Tot_abs_Q>  (1) 
0

>  <i_i_glide_confnum>  (1) 
18

>  <i_i_glide_lignum>  (1) 
96

>  <i_i_glide_posenum>  (1) 
189

>  <i_i_glide_rotatable_bonds>  (1) 
5

>  <i_lp_mmshare_version>  (1) 
72125

>  <i_m_source_file_index>  (1) 
39

>  <i_f3d_flags>  (1) 
0

>  <num_sample>  (1) 
50

>  <b_lp_Chiralities_Consistent>  (1) 
1

>  <r_epik_Charging_Adjusted_Penalty>  (1) 
0.0043173356697657605

>  <r_epik_Ionization_Penalty>  (1) 
2.5101429145755949

>  <r_epik_Ionization_Penalty_Charging>  (1) 
0

>  <r_epik_Ionization_Penalty_Neutral>  (1) 
2.5101429145755949

>  <r_epik_State_Penalty>  (1) 
0.0043173356697657605

>  <r_glide_ring_energy>  (1) 
0.02445303134611268

>  <r_i_docking_score>  (1) 
-6.4990379532681253

>  <r_i_glide_ecoul>  (1) 
-2.1912087143709043

>  <r_i_glide_eff_state_penalty>  (1) 
0.0043173356697657605

>  <r_i_glide_einternal>  (1) 
15.227739612461606

>  <r_i_glide_emodel>  (1) 
-53.687709502893085

>  <r_i_glide_emodel_strain>  (1) 
0.75630409762672457

>  <r_i_glide_energy>  (1) 
-46.210598352770923

>  <r_i_glide_erotb>  (1) 
0.36503894659470715

>  <r_i_glide_esite>  (1) 
-0.11583840748706374

>  <r_i_glide_evdw>  (1) 
-44.019389638400021

>  <r_i_glide_gscore>  (1) 
-6.5033552889378914

>  <r_i_glide_gscore_strain>  (1) 
0

>  <r_i_glide_hbond>  (1) 
-0.17965710844633451

>  <r_i_glide_ligand_efficiency>  (1) 
-0.20309493603962891

>  <r_i_glide_ligand_efficiency_ln>  (1) 
-1.4553117548204428

>  <r_i_glide_ligand_efficiency_sa>  (1) 
-0.6447862302374423

>  <r_i_glide_lipo>  (1) 
-1.6499378983254032

>  <r_i_glide_metal>  (1) 
-0

>  <r_i_glide_rewards>  (1) 
-2.3933100321981602

>  <r_lp_Energy>  (1) 
72.958390999999992

>  <r_lp_tautomer_probability>  (1) 
0.99999998000000001

>  <s_epik_Chemistry_Notes>  (1) 
This compound contains an acetal/aminal-like group ( X-CH(R)-Y where X, Y are N, S, or O) that may be acid/base labile, releasing an aldehyde.

>  <s_epik_cmdline>  (1) 
J2VwaWtfcHl0aG9uJywgJy1waHQnLCAnMS4wJywgJy1waCcsICc3LjQnLCAnLXRuJywgJzgnLCAnLW1hJywgJzUwMCcsICctaW1hZScsICc8aW5maWxlLm1hZT4nLCAnLW9tYWUnLCAnPG91dGZpbGUubWFlPic=

>  <s_epik_input>  (1) 
W0NIM11bQ0BASF0xW0NIMl1DKD1PKVtOSF1bQ0BIXShDKD1PKVtDSDJdMSlDKD1TKU4oW0NIMl1bQ0gyXVtDSDJdMilbQ0gyXVtDQEBdMihbQ0gzXSlDKE9bQ0BASF0zW05IMl0pPVtDSF1bQ0hdPUMzQyhGKShGKUMoPU8pW05IMl0=

>  <s_glide_docking_method>  (1) 
confgen

>  <s_i_glide_gridfile>  (1) 
gpcr_drd2_6luq_protein_autoprepared_prepared

>  <s_lp_Force_Field>  (1) 
S-OPLS

>  <s_lp_Variant>  (1) 
DiffSBDD_38_num_sample_50-4

>  <s_m_source_file>  (1) 
generated__ligand_DiffSBDD_2026-05-06_prepared.sdf

>  <GenAI_Model>  (1) 
DiffSBDD

>  <Protein>  (1) 
generic_title2

$$$$
DiffSBDD_18_num_sample_50
     RDKit          3D

  0  0  0  0  0  0  0  0  0  0999 V3000
M  V30 BEGIN CTAB
M  V30 COUNTS 58 61 0 0 1
M  V30 BEGIN ATOM
M  V30 1 C 7.025599 1.924616 -13.358781 0
M  V30 2 C 12.321773 8.460642 -8.178433 0 CFG=2
M  V30 3 C 7.889764 2.970948 -16.965249 0
M  V30 4 C 6.283501 0.180352 -14.894690 0
M  V30 5 C 6.414601 0.675353 -13.586041 0
M  V30 6 C 9.660162 6.478244 -8.127640 0
M  V30 7 O 11.318988 7.374000 -11.039609 0
M  V30 8 C 9.862349 6.692519 -9.402791 0
M  V30 9 C 8.195201 4.053099 -14.178319 0 CFG=2
M  V30 10 S 11.700831 8.930675 -5.340760 0
M  V30 11 C 9.362994 6.169384 -6.896025 0
M  V30 12 C 11.167026 8.874725 -9.119950 0
M  V30 13 C 9.246371 5.770050 -10.461208 0
M  V30 14 C 9.826717 6.965065 -5.694741 0
M  V30 15 C 7.469975 4.941075 -13.124608 0
M  V30 16 C 10.423133 7.332107 -12.136373 0
M  V30 17 N 10.585504 7.772189 -9.884213 0
M  V30 18 C 8.498123 4.867518 -15.455038 0
M  V30 19 C 12.479629 9.367921 -6.919506 0
M  V30 20 O 13.517158 8.568422 -8.923161 0
M  V30 21 C 6.763149 0.929777 -15.983664 0
M  V30 22 C 7.377963 2.182076 -15.770540 0
M  V30 23 C 7.510320 2.690554 -14.443993 0
M  V30 24 C 9.507987 6.109011 -11.955872 0 CFG=2
M  V30 25 C 11.326514 7.153365 -5.434551 0
M  V30 26 C 8.951755 4.008174 -16.628883 0
M  V30 27 C 8.184052 6.264325 -12.749130 0
M  V30 28 H 7.125757 2.291722 -12.351790 0
M  V30 29 H 12.248608 7.412889 -7.916044 0
M  V30 30 H 8.292209 2.273571 -17.701042 0
M  V30 31 H 7.034766 3.459429 -17.431955 0
M  V30 32 H 5.814978 -0.778696 -15.064205 0
M  V30 33 H 6.046908 0.094277 -12.752740 0
M  V30 34 H 9.149209 3.773425 -13.737404 0
M  V30 35 H 8.685551 5.368172 -6.693519 0
M  V30 36 H 10.345837 9.266797 -8.524426 0
M  V30 37 H 11.470427 9.682087 -9.785307 0
M  V30 38 H 9.624159 4.764851 -10.266812 0
M  V30 39 H 8.173063 5.722472 -10.264850 0
M  V30 40 H 9.440417 6.413311 -4.834773 0
M  V30 41 H 9.305852 7.922948 -5.709079 0
M  V30 42 H 7.304104 4.397439 -12.196816 0
M  V30 43 H 6.477936 5.182535 -13.506157 0
M  V30 44 H 9.836846 8.252322 -12.192256 0
M  V30 45 H 10.994130 7.251120 -13.066831 0
M  V30 46 H 7.601469 5.411230 -15.756299 0
M  V30 47 H 9.258781 5.619780 -15.254303 0
M  V30 48 H 13.534213 9.527684 -6.691670 0
M  V30 49 H 12.024372 10.339031 -7.089517 0
M  V30 50 H 13.726733 9.485819 -9.091738 0
M  V30 51 H 6.660591 0.543770 -16.987109 0
M  V30 52 H 10.070146 5.270817 -12.368090 0
M  V30 53 H 11.986598 6.568634 -6.073680 0
M  V30 54 H 11.506806 6.762093 -4.433174 0
M  V30 55 H 9.893975 3.512737 -16.402493 0
M  V30 56 H 9.146393 4.632307 -17.500685 0
M  V30 57 H 7.501271 6.874101 -12.155815 0
M  V30 58 H 8.334271 6.860906 -13.644309 0
M  V30 END ATOM
M  V30 BEGIN BOND
M  V30 1 1 5 1
M  V30 2 2 5 4
M  V30 3 2 8 6
M  V30 4 2 11 6
M  V30 5 1 12 2
M  V30 6 1 13 8
M  V30 7 1 14 11
M  V30 8 1 15 9
M  V30 9 1 16 7
M  V30 10 1 17 7
M  V30 11 1 17 8
M  V30 12 1 17 12
M  V30 13 1 18 9
M  V30 14 1 19 2
M  V30 15 1 19 10
M  V30 16 1 20 2
M  V30 17 1 21 4
M  V30 18 1 22 3
M  V30 19 2 22 21
M  V30 20 2 23 1
M  V30 21 1 23 9
M  V30 22 1 23 22
M  V30 23 1 24 13
M  V30 24 1 24 16
M  V30 25 1 25 10
M  V30 26 1 25 14
M  V30 27 1 26 3
M  V30 28 1 26 18
M  V30 29 1 27 15
M  V30 30 1 27 24
M  V30 31 1 28 1
M  V30 32 1 2 29 CFG=1
M  V30 33 1 30 3
M  V30 34 1 31 3
M  V30 35 1 32 4
M  V30 36 1 33 5
M  V30 37 1 9 34 CFG=1
M  V30 38 1 35 11
M  V30 39 1 36 12
M  V30 40 1 37 12
M  V30 41 1 38 13
M  V30 42 1 39 13
M  V30 43 1 40 14
M  V30 44 1 41 14
M  V30 45 1 42 15
M  V30 46 1 43 15
M  V30 47 1 44 16
M  V30 48 1 45 16
M  V30 49 1 46 18
M  V30 50 1 47 18
M  V30 51 1 48 19
M  V30 52 1 49 19
M  V30 53 1 50 20
M  V30 54 1 51 21
M  V30 55 1 24 52 CFG=3
M  V30 56 1 53 25
M  V30 57 1 54 25
M  V30 58 1 55 26
M  V30 59 1 56 26
M  V30 60 1 57 27
M  V30 61 1 58 27
M  V30 END BOND
M  V30 END CTAB
M  END
>  <i_epik_Tot_Q>  (1) 
0

>  <i_epik_Tot_abs_Q>  (1) 
0

>  <i_i_glide_confnum>  (1) 
49

>  <i_i_glide_lignum>  (1) 
54

>  <i_i_glide_posenum>  (1) 
343

>  <i_i_glide_rotatable_bonds>  (1) 
4

>  <i_lp_mmshare_version>  (1) 
72125

>  <i_m_source_file_index>  (1) 
19

>  <i_f3d_flags>  (1) 
0

>  <num_sample>  (1) 
50

>  <b_lp_Chiralities_Consistent>  (1) 
1

>  <r_epik_Charging_Adjusted_Penalty>  (1) 
0

>  <r_epik_Ionization_Penalty>  (1) 
0.00079685504618355781

>  <r_epik_Ionization_Penalty_Charging>  (1) 
0

>  <r_epik_Ionization_Penalty_Neutral>  (1) 
0.00079685504618355781

>  <r_epik_State_Penalty>  (1) 
-0

>  <r_glide_ring_energy>  (1) 
0

>  <r_i_docking_score>  (1) 
-6.4761022988240828

>  <r_i_glide_ecoul>  (1) 
-5.7389376263224916

>  <r_i_glide_eff_state_penalty>  (1) 
-0

>  <r_i_glide_einternal>  (1) 
8.0721066771971088

>  <r_i_glide_emodel>  (1) 
-34.557705271605158

>  <r_i_glide_emodel_strain>  (1) 
4.7755245853935833

>  <r_i_glide_energy>  (1) 
-35.500979794541969

>  <r_i_glide_erotb>  (1) 
0.39257817709614257

>  <r_i_glide_esite>  (1) 
-0.020485462279854691

>  <r_i_glide_evdw>  (1) 
-29.76204216821948

>  <r_i_glide_gscore>  (1) 
-6.4761022988240828

>  <r_i_glide_gscore_strain>  (1) 
0.19388114634839582

>  <r_i_glide_hbond>  (1) 
-0.32000000000000001

>  <r_i_glide_ligand_efficiency>  (1) 
-0.23985564069718826

>  <r_i_glide_ligand_efficiency_ln>  (1) 
-1.5075298482755646

>  <r_i_glide_ligand_efficiency_sa>  (1) 
-0.71956692209156492

>  <r_i_glide_lipo>  (1) 
-2.6929494530839619

>  <r_i_glide_metal>  (1) 
-0

>  <r_i_glide_rewards>  (1) 
-1.680183954545456

>  <r_lp_Energy>  (1) 
7.009665

>  <r_lp_tautomer_probability>  (1) 
1

>  <s_epik_Chemistry_Notes>  (1) 
This compound has a N-S or N-O group and may undergo hydrolysis at high or low pH.

>  <s_epik_cmdline>  (1) 
J2VwaWtfcHl0aG9uJywgJy1waHQnLCAnMS4wJywgJy1waCcsICc3LjQnLCAnLXRuJywgJzgnLCAnLW1hJywgJzUwMCcsICctaW1hZScsICc8aW5maWxlLm1hZT4nLCAnLW9tYWUnLCAnPG91dGZpbGUubWFlPic=

>  <s_epik_input>  (1) 
W2NIXTFbY0hdW2NIXVtjSF1jKGMxMilbQ0BASF0oW0NIMl1bQ0gyXVtDSDJdMilbQ0gyXVtDSDJdW0NASF0oW0NIMl0zKVtDSDJdT04oQzM0KVtDSDJdW0NAQEhdKFtPSF0pW0NIMl1TW0NIMl1bQ0gyXVtDSF09Qz00

>  <s_glide_docking_method>  (1) 
confgen

>  <s_i_glide_gridfile>  (1) 
gpcr_drd2_6luq_protein_autoprepared_prepared

>  <s_lp_Force_Field>  (1) 
S-OPLS

>  <s_lp_Variant>  (1) 
DiffSBDD_18_num_sample_50-1

>  <s_m_source_file>  (1) 
generated__ligand_DiffSBDD_2026-05-06_prepared.sdf

>  <GenAI_Model>  (1) 
DiffSBDD

>  <Protein>  (1) 
generic_title2

$$$$
DiffSBDD_29_num_sample_50
     RDKit          3D

  0  0  0  0  0  0  0  0  0  0999 V3000
M  V30 BEGIN CTAB
M  V30 COUNTS 64 67 0 0 1
M  V30 BEGIN ATOM
M  V30 1 C 11.029410 7.735775 -5.220668 0
M  V30 2 O 7.831732 4.916731 -11.876545 0
M  V30 3 C 8.032286 3.886335 -15.629130 0
M  V30 4 C 10.305391 6.439207 -5.204835 0
M  V30 5 O 6.456775 2.551517 -12.527337 0
M  V30 6 N 9.116697 6.121608 -8.942367 0 CFG=1 CHG=1
M  V30 7 C 8.037799 3.399277 -14.176764 0
M  V30 8 C 7.712287 6.233574 -14.683505 0
M  V30 9 C 7.102964 7.462859 -12.597777 0
M  V30 10 C 12.582606 9.375195 -4.473647 0
M  V30 11 C 9.629608 5.637191 -7.648818 0
M  V30 12 C 9.841466 7.329567 -9.404458 0
M  V30 13 C 5.840366 1.345203 -12.983768 0
M  V30 14 C 6.661475 4.937022 -12.670869 0 CFG=1
M  V30 15 C 10.748538 8.521485 -6.264600 0
M  V30 16 C 9.642448 8.490324 -8.426715 0
M  V30 17 C 9.411158 6.683672 -6.554605 0 CFG=2
M  V30 18 C 6.733220 6.255617 -13.500640 0 CFG=2
M  V30 19 C 11.952142 8.147770 -4.259097 0
M  V30 20 C 7.659459 4.815359 -10.483629 0
M  V30 21 N 11.349860 9.680208 -6.549808 0
M  V30 22 C 6.679098 3.600224 -13.463905 0 CFG=2
M  V30 23 C 7.359370 5.251882 -15.808200 0
M  V30 24 N 9.748759 8.048014 -7.032684 0
M  V30 25 C 12.254110 10.089955 -5.654603 0
M  V30 26 N 12.514107 6.699011 -2.161851 0
M  V30 27 C 9.078560 5.039000 -9.946855 0
M  V30 28 C 12.258565 7.337148 -3.091229 0
M  V30 29 C 6.750723 0.366956 -13.732390 0
M  V30 30 H 7.540081 3.154560 -16.268557 0
M  V30 31 H 9.063916 3.946169 -15.972818 0
M  V30 32 H 11.063531 5.675909 -5.350545 0
M  V30 33 H 9.815539 6.260527 -4.256203 0
M  V30 34 H 8.353498 2.365412 -14.130488 0
M  V30 35 H 8.853938 3.891419 -13.647564 0
M  V30 36 H 7.715032 7.237376 -15.096760 0
M  V30 37 H 8.720706 6.046152 -14.317073 0
M  V30 38 H 7.958615 7.257332 -11.959344 0
M  V30 39 H 7.417682 8.341254 -13.160297 0
M  V30 40 H 6.273286 7.745890 -11.953136 0
M  V30 41 H 13.309688 9.750746 -3.771676 0
M  V30 42 H 10.687526 5.377141 -7.738640 0
M  V30 43 H 9.065712 4.737407 -7.422230 0
M  V30 44 H 9.481186 7.629527 -10.388024 0
M  V30 45 H 10.904681 7.101610 -9.501952 0
M  V30 46 H 5.516746 0.823932 -12.086422 0
M  V30 47 H 4.936824 1.550278 -13.545043 0
M  V30 48 H 5.757729 4.977187 -12.060515 0
M  V30 49 H 8.638514 8.901486 -8.530513 0
M  V30 50 H 10.295521 9.332306 -8.698899 0
M  V30 51 H 8.356408 6.692498 -6.295119 0
M  V30 52 H 5.746335 6.442937 -13.930455 0
M  V30 53 H 7.246582 3.843047 -10.191713 0
M  V30 54 H 6.989985 5.598878 -10.135283 0
M  V30 55 H 5.855643 3.587740 -14.178515 0
M  V30 56 H 6.275430 5.141333 -15.862922 0
M  V30 57 H 7.673474 5.665380 -16.767188 0
M  V30 58 H 12.730598 10.999403 -5.891668 0
M  V30 59 H 9.759367 5.297020 -10.758977 0
M  V30 60 H 9.488668 4.112881 -9.559414 0
M  V30 61 H 6.204900 -0.552212 -13.945606 0
M  V30 62 H 7.070186 0.744915 -14.702636 0
M  V30 63 H 7.613606 0.111660 -13.115808 0
M  V30 64 H 8.159947 6.436079 -8.786065 0
M  V30 END ATOM
M  V30 BEGIN BOND
M  V30 1 1 4 1
M  V30 2 1 7 3
M  V30 3 1 11 6
M  V30 4 1 12 6
M  V30 5 1 13 5
M  V30 6 1 14 2
M  V30 7 1 15 1
M  V30 8 1 16 12
M  V30 9 1 17 4
M  V30 10 1 17 11
M  V30 11 1 18 8
M  V30 12 1 18 9
M  V30 13 1 18 14
M  V30 14 2 19 1
M  V30 15 1 19 10
M  V30 16 1 20 2
M  V30 17 2 21 15
M  V30 18 1 22 5
M  V30 19 1 22 7
M  V30 20 1 22 14
M  V30 21 1 23 3
M  V30 22 1 23 8
M  V30 23 1 24 15
M  V30 24 1 24 16
M  V30 25 1 24 17
M  V30 26 2 25 10
M  V30 27 1 25 21
M  V30 28 1 27 6
M  V30 29 1 27 20
M  V30 30 1 28 19
M  V30 31 3 28 26
M  V30 32 1 29 13
M  V30 33 1 30 3
M  V30 34 1 31 3
M  V30 35 1 32 4
M  V30 36 1 33 4
M  V30 37 1 34 7
M  V30 38 1 35 7
M  V30 39 1 36 8
M  V30 40 1 37 8
M  V30 41 1 38 9
M  V30 42 1 39 9
M  V30 43 1 40 9
M  V30 44 1 41 10
M  V30 45 1 42 11
M  V30 46 1 43 11
M  V30 47 1 44 12
M  V30 48 1 45 12
M  V30 49 1 46 13
M  V30 50 1 47 13
M  V30 51 1 14 48 CFG=1
M  V30 52 1 49 16
M  V30 53 1 50 16
M  V30 54 1 17 51 CFG=1
M  V30 55 1 18 52 CFG=3
M  V30 56 1 53 20
M  V30 57 1 54 20
M  V30 58 1 22 55 CFG=3
M  V30 59 1 56 23
M  V30 60 1 57 23
M  V30 61 1 58 25
M  V30 62 1 59 27
M  V30 63 1 60 27
M  V30 64 1 61 29
M  V30 65 1 62 29
M  V30 66 1 63 29
M  V30 67 1 6 64 CFG=1
M  V30 END BOND
M  V30 END CTAB
M  END
>  <i_epik_Tot_Q>  (1) 
1

>  <i_epik_Tot_abs_Q>  (1) 
1

>  <i_i_glide_confnum>  (1) 
418

>  <i_i_glide_lignum>  (1) 
74

>  <i_i_glide_posenum>  (1) 
88

>  <i_i_glide_rotatable_bonds>  (1) 
6

>  <i_lp_mmshare_version>  (1) 
72125

>  <i_m_source_file_index>  (1) 
30

>  <i_f3d_flags>  (1) 
0

>  <num_sample>  (1) 
50

>  <b_lp_Chiralities_Consistent>  (1) 
1

>  <r_epik_Charging_Adjusted_Penalty>  (1) 
1.0026227849201053

>  <r_epik_Ionization_Penalty>  (1) 
0.50131159217577048

>  <r_epik_Ionization_Penalty_Charging>  (1) 
0.50131139246005263

>  <r_epik_Ionization_Penalty_Neutral>  (1) 
1.9971571790720627e-07

>  <r_epik_State_Penalty>  (1) 
0.50131139246005263

>  <r_glide_ring_energy>  (1) 
0.9799809587009326

>  <r_i_docking_score>  (1) 
-6.4544513205341154

>  <r_i_glide_ecoul>  (1) 
-5.4997266998644756

>  <r_i_glide_eff_state_penalty>  (1) 
0.50131139246005263

>  <r_i_glide_einternal>  (1) 
25.131320663900613

>  <r_i_glide_emodel>  (1) 
-32.560208407758637

>  <r_i_glide_emodel_strain>  (1) 
2.509876011440312

>  <r_i_glide_energy>  (1) 
-35.811658030077709

>  <r_i_glide_erotb>  (1) 
0.42959825739445412

>  <r_i_glide_esite>  (1) 
-0.13328865122376898

>  <r_i_glide_evdw>  (1) 
-30.311931330213234

>  <r_i_glide_gscore>  (1) 
-6.9557627129941677

>  <r_i_glide_gscore_strain>  (1) 
0

>  <r_i_glide_hbond>  (1) 
-0.16121840238144092

>  <r_i_glide_ligand_efficiency>  (1) 
-0.22256728691496949

>  <r_i_glide_ligand_efficiency_ln>  (1) 
-1.4779056816387235

>  <r_i_glide_ligand_efficiency_sa>  (1) 
-0.68379722043611035

>  <r_i_glide_lipo>  (1) 
-2.4994892091625429

>  <r_i_glide_metal>  (1) 
-0

>  <r_i_glide_rewards>  (1) 
-2.2508091361305365

>  <r_lp_Energy>  (1) 
45.317810000000001

>  <s_epik_cmdline>  (1) 
J2VwaWtfcHl0aG9uJywgJy1waHQnLCAnMS4wJywgJy1waCcsICc3LjQnLCAnLXRuJywgJzgnLCAnLW1hJywgJzUwMCcsICctaW1hZScsICc8aW5maWxlLm1hZT4nLCAnLW9tYWUnLCAnPG91dGZpbGUubWFlPic=

>  <s_epik_input>  (1) 
TiNDYzFbY0hdW2NIXW5jKGMxMilOM1tDQEhdKFtDSDJdMilbQ0gyXU4oW0NIMl1bQ0gyXTMpW0NIMl1bQ0gyXU9bQ0BIXTRbQ0BASF0oW0NIM10pW0NIMl1bQ0gyXVtDSDJdW0NIMl1bQ0BIXTRPW0NIMl1bQ0gzXQ==

>  <s_glide_docking_method>  (1) 
confgen

>  <s_i_glide_gridfile>  (1) 
gpcr_drd2_6luq_protein_autoprepared_prepared

>  <s_lp_Force_Field>  (1) 
S-OPLS

>  <s_lp_Variant>  (1) 
DiffSBDD_29_num_sample_50-4

>  <s_m_source_file>  (1) 
generated__ligand_DiffSBDD_2026-05-06_prepared.sdf

>  <GenAI_Model>  (1) 
DiffSBDD

>  <Protein>  (1) 
generic_title2

$$$$
DiffSBDD_15_num_sample_50
     RDKit          3D

  0  0  0  0  0  0  0  0  0  0999 V3000
M  V30 BEGIN CTAB
M  V30 COUNTS 104 108 0 0 1
M  V30 BEGIN ATOM
M  V30 1 N 11.610899 7.669501 -10.562114 0
M  V30 2 C 8.325614 4.402128 -15.795085 0
M  V30 3 C 8.079859 2.263434 -19.077912 0 CFG=1
M  V30 4 C 6.663769 0.168934 -18.712105 0
M  V30 5 O 9.911519 0.975700 -18.243293 0
M  V30 6 C 11.205508 7.778818 -6.208668 0 CFG=1
M  V30 7 C 5.490760 -1.677615 -16.781482 0
M  V30 8 O 9.688098 8.931212 -7.570674 0
M  V30 9 C 11.968093 7.150711 -11.885741 0
M  V30 10 O 13.632341 8.569246 -10.248245 0
M  V30 11 C 6.270380 7.088497 -14.818633 0
M  V30 12 C 11.199478 0.421247 -18.436511 0
M  V30 13 C 10.249467 7.390776 -10.129147 0 CFG=1
M  V30 14 C 7.053683 0.945200 -20.995144 0
M  V30 15 O 10.253130 3.205789 -18.852047 0
M  V30 16 C 12.053991 8.904658 -8.417941 0 CFG=1
M  V30 17 C 6.281788 -0.121553 -21.489970 0
M  V30 18 C 10.307503 6.955808 -8.629679 0 CFG=2
M  V30 19 F 5.779518 2.594643 -13.260625 0
M  V30 20 C 5.536226 3.899459 -13.129733 0
M  V30 21 C 5.583561 6.704457 -12.456690 0
M  V30 22 O 10.634750 9.836727 -5.035928 0
M  V30 23 C 13.625332 9.770403 -6.249172 0
M  V30 24 C 8.357471 6.169829 -11.578374 0
M  V30 25 C 11.507012 9.060709 -5.357442 0
M  V30 26 C 6.878834 4.306150 -15.280616 0
M  V30 27 O 4.526861 -2.815561 -18.659291 0
M  V30 28 C 5.234008 -1.881492 -18.279010 0
M  V30 29 O 9.047196 6.413959 -8.255420 0
M  V30 30 O 9.434615 8.535950 -10.286491 0
M  V30 31 C 13.394193 8.968752 -7.582944 0
M  V30 32 C 5.879636 -0.900534 -19.210352 0
M  V30 33 C 12.496424 8.363369 -9.835499 0
M  V30 34 C 6.597745 6.286480 -13.521561 0
M  V30 35 C 10.200503 6.871172 -5.494656 0
M  V30 36 C 7.940426 6.745538 -12.971225 0
M  V30 37 C 12.929226 9.341910 -4.983451 0
M  V30 38 C 6.658183 4.726231 -13.798294 0 CFG=1
M  V30 39 C 9.595309 2.002276 -19.135456 0 CFG=2
M  V30 40 C 8.527354 3.980345 -17.268341 0 CFG=2
M  V30 41 C 10.845750 8.123916 -7.705339 0 CFG=1
M  V30 42 C 4.627821 -0.561081 -16.171126 0
M  V30 43 C 10.638079 6.875388 -12.449693 0
M  V30 44 C 7.246597 1.095374 -19.605890 0
M  V30 45 C 7.728846 2.723340 -17.651652 0
M  V30 46 C 10.028351 3.727591 -17.542615 0
M  V30 47 C 5.695418 -1.042527 -20.601163 0
M  V30 48 C 9.839593 6.376085 -11.241590 0 CFG=1
M  V30 49 H 8.706580 5.415830 -15.687034 0
M  V30 50 H 8.939233 3.773591 -15.153113 0
M  V30 51 H 7.880817 3.099022 -19.750439 0
M  V30 52 H 6.814901 0.282103 -17.654198 0
M  V30 53 H 12.099021 7.165413 -6.242362 0
M  V30 54 H 5.240622 -2.618616 -16.294836 0
M  V30 55 H 6.551338 -1.519101 -16.585119 0
M  V30 56 H 8.980087 8.371134 -7.284884 0
M  V30 57 H 12.631188 7.769593 -12.498944 0
M  V30 58 H 12.380998 6.157454 -11.891804 0
M  V30 59 H 5.304909 6.790028 -15.229826 0
M  V30 60 H 6.221860 8.165820 -14.687787 0
M  V30 61 H 7.020448 6.944044 -15.593695 0
M  V30 62 H 11.380781 -0.340645 -17.677412 0
M  V30 63 H 11.270279 -0.059181 -19.414256 0
M  V30 64 H 11.981776 1.177489 -18.351799 0
M  V30 65 H 7.496348 1.651650 -21.682009 0
M  V30 66 H 11.738519 9.925652 -8.610158 0
M  V30 67 H 6.133399 -0.231510 -22.555170 0
M  V30 68 H 11.011101 6.131985 -8.542768 0
M  V30 69 H 5.497081 4.047775 -12.050964 0
M  V30 70 H 4.551726 4.122653 -13.541250 0
M  V30 71 H 4.634826 6.527197 -12.900930 0
M  V30 72 H 5.645702 6.144796 -11.523442 0
M  V30 73 H 5.639859 7.762782 -12.200248 0
M  V30 74 H 14.692790 9.751960 -6.033965 0
M  V30 75 H 13.373216 10.826749 -6.291803 0
M  V30 76 H 8.175477 5.100238 -11.516401 0
M  V30 77 H 7.752787 6.566529 -10.777769 0
M  V30 78 H 6.596735 3.261060 -15.370571 0
M  V30 79 H 6.227901 4.837939 -15.961573 0
M  V30 80 H 8.342504 6.955079 -8.606538 0
M  V30 81 H 8.532607 8.310638 -10.047968 0
M  V30 82 H 13.619573 7.921065 -7.492495 0
M  V30 83 H 14.213832 9.368894 -8.179136 0
M  V30 84 H 10.441432 6.734656 -4.440904 0
M  V30 85 H 9.197353 7.278447 -5.567937 0
M  V30 86 H 10.186851 5.880744 -5.948100 0
M  V30 87 H 7.972610 7.834980 -12.929564 0
M  V30 88 H 8.634723 6.448658 -13.745100 0
M  V30 89 H 13.413703 8.567989 -4.408899 0
M  V30 90 H 12.924498 10.169212 -4.277608 0
M  V30 91 H 7.541674 4.325824 -13.312989 0
M  V30 92 H 9.876138 1.706772 -20.147754 0
M  V30 93 H 8.190698 4.796079 -17.911960 0
M  V30 94 H 4.628742 -0.627802 -15.084107 0
M  V30 95 H 4.996512 0.430986 -16.430984 0
M  V30 96 H 3.591745 -0.629789 -16.497740 0
M  V30 97 H 10.237583 7.839648 -12.748130 0
M  V30 98 H 10.692649 6.176276 -13.286601 0
M  V30 99 H 7.936385 1.943862 -16.920070 0
M  V30 100 H 6.658256 2.924333 -17.613492 0
M  V30 101 H 10.583923 4.661126 -17.447940 0
M  V30 102 H 10.453424 3.039994 -16.812015 0
M  V30 103 H 5.098297 -1.855475 -20.988181 0
M  V30 104 H 10.227814 5.395723 -10.979730 0
M  V30 END ATOM
M  V30 BEGIN BOND
M  V30 1 1 9 1
M  V30 2 1 12 5
M  V30 3 1 13 1
M  V30 4 1 17 14
M  V30 5 1 18 13
M  V30 6 1 20 19
M  V30 7 1 25 6
M  V30 8 2 25 22
M  V30 9 1 26 2
M  V30 10 1 28 7
M  V30 11 2 28 27
M  V30 12 1 29 18
M  V30 13 1 13 30 CFG=1
M  V30 14 1 31 16
M  V30 15 1 31 23
M  V30 16 2 32 4
M  V30 17 1 32 28
M  V30 18 1 33 1
M  V30 19 2 33 10
M  V30 20 1 33 16
M  V30 21 1 34 11
M  V30 22 1 34 21
M  V30 23 1 35 6
M  V30 24 1 36 24
M  V30 25 1 36 34
M  V30 26 1 37 23
M  V30 27 1 37 25
M  V30 28 1 38 20
M  V30 29 1 38 26
M  V30 30 1 38 34
M  V30 31 1 39 3
M  V30 32 1 39 5
M  V30 33 1 39 15
M  V30 34 1 40 2
M  V30 35 1 41 6
M  V30 36 1 41 8 CFG=1
M  V30 37 1 41 16
M  V30 38 1 41 18
M  V30 39 1 42 7
M  V30 40 1 43 9
M  V30 41 1 44 3
M  V30 42 1 44 4
M  V30 43 2 44 14
M  V30 44 1 45 3
M  V30 45 1 45 40
M  V30 46 1 46 15
M  V30 47 1 46 40
M  V30 48 2 47 17
M  V30 49 1 47 32
M  V30 50 1 48 13
M  V30 51 1 48 24
M  V30 52 1 48 43
M  V30 53 1 49 2
M  V30 54 1 50 2
M  V30 55 1 3 51 CFG=3
M  V30 56 1 52 4
M  V30 57 1 6 53 CFG=3
M  V30 58 1 54 7
M  V30 59 1 55 7
M  V30 60 1 56 8
M  V30 61 1 57 9
M  V30 62 1 58 9
M  V30 63 1 59 11
M  V30 64 1 60 11
M  V30 65 1 61 11
M  V30 66 1 62 12
M  V30 67 1 63 12
M  V30 68 1 64 12
M  V30 69 1 65 14
M  V30 70 1 16 66 CFG=3
M  V30 71 1 67 17
M  V30 72 1 18 68 CFG=3
M  V30 73 1 69 20
M  V30 74 1 70 20
M  V30 75 1 71 21
M  V30 76 1 72 21
M  V30 77 1 73 21
M  V30 78 1 74 23
M  V30 79 1 75 23
M  V30 80 1 76 24
M  V30 81 1 77 24
M  V30 82 1 78 26
M  V30 83 1 79 26
M  V30 84 1 80 29
M  V30 85 1 81 30
M  V30 86 1 82 31
M  V30 87 1 83 31
M  V30 88 1 84 35
M  V30 89 1 85 35
M  V30 90 1 86 35
M  V30 91 1 87 36
M  V30 92 1 88 36
M  V30 93 1 89 37
M  V30 94 1 90 37
M  V30 95 1 38 91 CFG=1
M  V30 96 1 39 92 CFG=3
M  V30 97 1 40 93 CFG=3
M  V30 98 1 94 42
M  V30 99 1 95 42
M  V30 100 1 96 42
M  V30 101 1 97 43
M  V30 102 1 98 43
M  V30 103 1 99 45
M  V30 104 1 100 45
M  V30 105 1 101 46
M  V30 106 1 102 46
M  V30 107 1 103 47
M  V30 108 1 48 104 CFG=1
M  V30 END BOND
M  V30 END CTAB
M  END
>  <i_epik_Tot_Q>  (1) 
0

>  <i_epik_Tot_abs_Q>  (1) 
0

>  <i_i_glide_confnum>  (1) 
2850

>  <i_i_glide_lignum>  (1) 
52

>  <i_i_glide_posenum>  (1) 
114

>  <i_i_glide_rotatable_bonds>  (1) 
15

>  <i_lp_mmshare_version>  (1) 
72125

>  <i_m_source_file_index>  (1) 
16

>  <i_f3d_flags>  (1) 
0

>  <num_sample>  (1) 
50

>  <b_lp_Chiralities_Consistent>  (1) 
1

>  <r_epik_Charging_Adjusted_Penalty>  (1) 
0

>  <r_epik_Ionization_Penalty>  (1) 
3.3580720903009909e-06

>  <r_epik_Ionization_Penalty_Charging>  (1) 
0

>  <r_epik_Ionization_Penalty_Neutral>  (1) 
3.3580720903009909e-06

>  <r_epik_State_Penalty>  (1) 
-0

>  <r_glide_ring_energy>  (1) 
0

>  <r_i_docking_score>  (1) 
-6.4099605986555517

>  <r_i_glide_ecoul>  (1) 
-7.9610697254849274

>  <r_i_glide_eff_state_penalty>  (1) 
-0

>  <r_i_glide_einternal>  (1) 
64.285384183670104

>  <r_i_glide_emodel>  (1) 
4.3533517213982904

>  <r_i_glide_emodel_strain>  (1) 
6.8013153648150393

>  <r_i_glide_energy>  (1) 
-26.194385347648932

>  <r_i_glide_erotb>  (1) 
0.25945655678467749

>  <r_i_glide_esite>  (1) 
-0.056214390026923883

>  <r_i_glide_evdw>  (1) 
-18.233315622164003

>  <r_i_glide_gscore>  (1) 
-6.4099605986555517

>  <r_i_glide_gscore_strain>  (1) 
0.70032884120375982

>  <r_i_glide_hbond>  (1) 
-0.30399999999999999

>  <r_i_glide_ligand_efficiency>  (1) 
-0.13354084580532399

>  <r_i_glide_ligand_efficiency_ln>  (1) 
-1.3158891584030257

>  <r_i_glide_ligand_efficiency_sa>  (1) 
-0.48531964179415144

>  <r_i_glide_lipo>  (1) 
-2.9005973592790211

>  <r_i_glide_metal>  (1) 
-0

>  <r_i_glide_rewards>  (1) 
-2.0031080074071039

>  <r_lp_Energy>  (1) 
45.559846

>  <r_lp_tautomer_probability>  (1) 
1

>  <s_epik_Chemistry_Notes>  (1) 
This compound contains an acetal/aminal-like group ( X-CH(R)-Y where X, Y are N, S, or O) that may be acid/base labile, releasing an aldehyde.

>  <s_epik_cmdline>  (1) 
J2VwaWtfcHl0aG9uJywgJy1waHQnLCAnMS4wJywgJy1waCcsICc3LjQnLCAnLXRuJywgJzgnLCAnLW1hJywgJzUwMCcsICctaW1hZScsICc8aW5maWxlLm1hZT4nLCAnLW9tYWUnLCAnPG91dGZpbGUubWFlPic=

>  <s_epik_input>  (1) 
W0NIMl0xW0NIMl1bQ0gyXUMoPU8pW0NAQEhdKFtDSDNdKVtDQF0oW09IXSkoW0NASF0yW09IXSlbQ0BASF0xQyg9TylOKFtDQF0yM1tPSF0pW0NIMl1bQ0gyXVtDQEBIXTNbQ0gyXVtDSDJdQyhbQ0gzXSkoW0NIM10pW0NAQEhdKFtDSDJdRilbQ0gyXVtDSDJdW0NASF0oW0NIMl00KVtDSDJdT1tDQEBIXShPW0NIM10pW0NASF00YyhbY0hdW2NIXVtjSF01KVtjSF1jNUMoPU8pW0NIMl1bQ0gzXQ==

>  <s_glide_docking_method>  (1) 
confgen

>  <s_i_glide_gridfile>  (1) 
gpcr_drd2_6luq_protein_autoprepared_prepared

>  <s_lp_Force_Field>  (1) 
S-OPLS

>  <s_lp_Variant>  (1) 
DiffSBDD_15_num_sample_50-1

>  <s_m_source_file>  (1) 
generated__ligand_DiffSBDD_2026-05-06_prepared.sdf

>  <GenAI_Model>  (1) 
DiffSBDD

>  <Protein>  (1) 
generic_title2

$$$$
DiffSBDD_2_num_sample_50
     RDKit          3D

  0  0  0  0  0  0  0  0  0  0999 V3000
M  V30 BEGIN CTAB
M  V30 COUNTS 54 57 0 0 1
M  V30 BEGIN ATOM
M  V30 1 C 9.686873 7.615052 -10.214428 0 CFG=1
M  V30 2 C 8.317479 4.779417 -10.581050 0
M  V30 3 O 8.467426 4.885011 -8.285504 0 CHG=-1
M  V30 4 C 6.607271 6.395489 -15.015875 0
M  V30 5 O 7.113846 4.771419 -19.072180 0
M  V30 6 C 6.371285 5.774731 -18.722096 0
M  V30 7 C 10.987332 7.019749 -5.761484 0
M  V30 8 C 8.259335 4.262479 -18.666956 0
M  V30 9 C 9.722395 7.680411 -6.316964 0
M  V30 10 O 9.793647 3.503234 -17.175942 0 CHG=-1
M  V30 11 C 6.242011 6.230112 -17.502169 0
M  V30 12 C 4.993657 7.798503 -16.110117 0
M  V30 13 C 8.751776 4.175383 -17.375542 0
M  V30 14 C 9.426177 6.101941 -12.299201 0
M  V30 15 N 9.034840 6.709754 -9.265117 0 CFG=1 CHG=1
M  V30 16 C 9.115765 5.252623 -9.354954 0 CFG=2
M  V30 17 C 9.902654 8.383387 -7.668511 0
M  V30 18 C 5.673563 7.341235 -14.949052 0
M  V30 19 C 8.902823 3.677758 -12.702274 0
M  V30 20 N 9.209518 4.764351 -11.736970 0
M  V30 21 C 8.093275 4.818203 -16.255211 0
M  V30 22 C 8.040231 4.013068 -13.922070 0
M  V30 23 N 8.702626 4.526565 -14.996847 0
M  V30 24 C 5.255906 7.287163 -17.310625 0
M  V30 25 C 6.997585 5.737971 -16.296601 0
M  V30 26 C 10.212436 7.432107 -8.805788 0 CFG=2
M  V30 27 O 6.825949 3.795528 -13.902685 0
M  V30 28 C 10.333999 6.993816 -11.436527 0
M  V30 29 H 9.034139 8.462110 -10.406692 0
M  V30 30 H 7.419119 5.375835 -10.754574 0
M  V30 31 H 7.962989 3.770830 -10.391827 0
M  V30 32 H 7.087851 6.140180 -14.105766 0
M  V30 33 H 5.798369 6.151927 -19.558207 0
M  V30 34 H 10.809595 6.631060 -4.757402 0
M  V30 35 H 11.798261 7.741974 -5.700138 0
M  V30 36 H 11.310760 6.184192 -6.382514 0
M  V30 37 H 8.761431 3.777778 -19.489371 0
M  V30 38 H 8.921545 6.942796 -6.377471 0
M  V30 39 H 9.403032 8.428023 -5.600131 0
M  V30 40 H 4.250478 8.573677 -16.015160 0
M  V30 41 H 9.951760 5.990698 -13.247111 0
M  V30 42 H 8.483483 6.610237 -12.512609 0
M  V30 43 H 10.151282 4.948282 -9.480654 0
M  V30 44 H 8.999223 8.944862 -7.909428 0
M  V30 45 H 10.720734 9.098415 -7.584844 0
M  V30 46 H 5.437613 7.771064 -13.991436 0
M  V30 47 H 8.533539 2.776096 -12.212284 0
M  V30 48 H 9.857473 3.369631 -13.091633 0
M  V30 49 H 9.714054 4.522855 -14.978137 0
M  V30 50 H 4.712219 7.663021 -18.165638 0
M  V30 51 H 11.093446 6.805498 -8.686341 0
M  V30 52 H 10.625847 7.804353 -12.088265 0
M  V30 53 H 11.294231 6.569642 -11.188244 0
M  V30 54 H 8.096261 7.105822 -9.091934 0
M  V30 END ATOM
M  V30 BEGIN BOND
M  V30 1 1 6 5
M  V30 2 1 8 5
M  V30 3 1 9 7
M  V30 4 2 11 6
M  V30 5 2 13 8
M  V30 6 1 13 10
M  V30 7 1 15 1
M  V30 8 1 16 2
M  V30 9 1 16 3
M  V30 10 1 16 15
M  V30 11 1 17 9
M  V30 12 2 18 4
M  V30 13 1 18 12
M  V30 14 1 20 2
M  V30 15 1 20 14
M  V30 16 1 20 19
M  V30 17 1 21 13
M  V30 18 1 22 19
M  V30 19 1 23 21
M  V30 20 1 23 22
M  V30 21 1 24 11
M  V30 22 2 24 12
M  V30 23 1 25 4
M  V30 24 1 25 11
M  V30 25 2 25 21
M  V30 26 1 26 1
M  V30 27 1 26 15
M  V30 28 1 26 17
M  V30 29 2 27 22
M  V30 30 1 28 1
M  V30 31 1 28 14
M  V30 32 1 1 29 CFG=3
M  V30 33 1 30 2
M  V30 34 1 31 2
M  V30 35 1 32 4
M  V30 36 1 33 6
M  V30 37 1 34 7
M  V30 38 1 35 7
M  V30 39 1 36 7
M  V30 40 1 37 8
M  V30 41 1 38 9
M  V30 42 1 39 9
M  V30 43 1 40 12
M  V30 44 1 41 14
M  V30 45 1 42 14
M  V30 46 1 16 43 CFG=1
M  V30 47 1 44 17
M  V30 48 1 45 17
M  V30 49 1 46 18
M  V30 50 1 47 19
M  V30 51 1 48 19
M  V30 52 1 49 23
M  V30 53 1 50 24
M  V30 54 1 26 51 CFG=3
M  V30 55 1 52 28
M  V30 56 1 53 28
M  V30 57 1 15 54 CFG=1
M  V30 END BOND
M  V30 END CTAB
M  END
>  <i_epik_Tot_Q>  (1) 
-1

>  <i_epik_Tot_abs_Q>  (1) 
3

>  <i_i_glide_confnum>  (1) 
2

>  <i_i_glide_lignum>  (1) 
6

>  <i_i_glide_posenum>  (1) 
393

>  <i_i_glide_rotatable_bonds>  (1) 
6

>  <i_lp_mmshare_version>  (1) 
72125

>  <i_m_source_file_index>  (1) 
3

>  <i_f3d_flags>  (1) 
0

>  <num_sample>  (1) 
50

>  <b_lp_Chiralities_Consistent>  (1) 
1

>  <r_epik_Charging_Adjusted_Penalty>  (1) 
0.20824401478555332

>  <r_epik_Ionization_Penalty>  (1) 
0.10900575238268746

>  <r_epik_Ionization_Penalty_Charging>  (1) 
0.10898275236366674

>  <r_epik_Ionization_Penalty_Neutral>  (1) 
2.3000019020727684e-05

>  <r_epik_State_Penalty>  (1) 
0.099261262421886584

>  <r_glide_ring_energy>  (1) 
0

>  <r_i_docking_score>  (1) 
-6.39808389091964

>  <r_i_glide_ecoul>  (1) 
-6.3654347654686383

>  <r_i_glide_eff_state_penalty>  (1) 
0.099261262421886584

>  <r_i_glide_einternal>  (1) 
7.2803443801536432

>  <r_i_glide_emodel>  (1) 
-36.584426145583805

>  <r_i_glide_emodel_strain>  (1) 
1.9967751853668574

>  <r_i_glide_energy>  (1) 
-31.775188910410694

>  <r_i_glide_erotb>  (1) 
0.36831288593105843

>  <r_i_glide_esite>  (1) 
-0.11465407387146612

>  <r_i_glide_evdw>  (1) 
-25.409754144942056

>  <r_i_glide_gscore>  (1) 
-6.4973451533415263

>  <r_i_glide_gscore_strain>  (1) 
0

>  <r_i_glide_hbond>  (1) 
-0.13702003547349378

>  <r_i_glide_ligand_efficiency>  (1) 
-0.22850299610427285

>  <r_i_glide_ligand_efficiency_ln>  (1) 
-1.4768656179301394

>  <r_i_glide_ligand_efficiency_sa>  (1) 
-0.69386967801078259

>  <r_i_glide_lipo>  (1) 
-2.2220186329212814

>  <r_i_glide_metal>  (1) 
-0

>  <r_i_glide_rewards>  (1) 
-2.1666623749389435

>  <r_lp_Energy>  (1) 
78.401380000000003

>  <s_epik_Chemistry_Notes>  (1) 
This compound contains an acetal/aminal-like group ( X-CH(R)-Y where X, Y are N, S, or O) that may be acid/base labile, releasing an aldehyde.

>  <s_epik_cmdline>  (1) 
J2VwaWtfcHl0aG9uJywgJy1waHQnLCAnMS4wJywgJy1waCcsICc3LjQnLCAnLXRuJywgJzgnLCAnLW1hJywgJzUwMCcsICctaW1hZScsICc8aW5maWxlLm1hZT4nLCAnLW9tYWUnLCAnPG91dGZpbGUubWFlPic=

>  <s_epik_input>  (1) 
W0NIM11bQ0gyXVtDSDJdW0NIXTFOKFtDQEBIXTEyKVtDQEBIXShbT0hdKVtDSDJdTihbQ0gyXVtDSDJdMilbQ0gyXUMoPU8pW05IXUMoQyhbT0hdKT1bQ0hdT1tDSF09Myk9YyhjMzQpW2NIXVtjSF1bY0hdW2NIXTQ=

>  <s_glide_docking_method>  (1) 
confgen

>  <s_i_glide_gridfile>  (1) 
gpcr_drd2_6luq_protein_autoprepared_prepared

>  <s_lp_Force_Field>  (1) 
S-OPLS

>  <s_lp_Variant>  (1) 
DiffSBDD_2_num_sample_50-1

>  <s_m_source_file>  (1) 
generated__ligand_DiffSBDD_2026-05-06_prepared.sdf

>  <GenAI_Model>  (1) 
DiffSBDD

>  <Protein>  (1) 
generic_title2

$$$$
DiffSBDD_38_num_sample_50
     RDKit          3D

  0  0  0  0  0  0  0  0  0  0999 V3000
M  V30 BEGIN CTAB
M  V30 COUNTS 60 62 0 0 1
M  V30 BEGIN ATOM
M  V30 1 C 11.445109 8.226960 -7.262961 0
M  V30 2 O 13.122329 8.169708 -8.974182 0
M  V30 3 S 10.634917 6.571767 -12.291682 0
M  V30 4 F 8.269374 0.218454 -18.016568 0
M  V30 5 C 7.434992 0.938567 -14.519690 0 CFG=2
M  V30 6 C 11.034873 7.049032 -5.046109 0
M  V30 7 C 7.474635 2.415056 -16.530107 0
M  V30 8 C 8.616346 4.291148 -12.364742 0
M  V30 9 C 11.004265 6.927217 -6.572700 0 CFG=1
M  V30 10 C 9.580059 6.178598 -11.044190 0
M  V30 11 N 11.006465 7.786389 -9.643754 0
M  V30 12 C 7.424596 3.388226 -14.321082 0
M  V30 13 C 7.427352 5.111267 -10.338717 0
M  V30 14 C 11.931324 8.048168 -8.705662 0
M  V30 15 F 8.200017 -1.030796 -16.290015 0
M  V30 16 O 9.832567 4.716927 -8.597562 0
M  V30 17 C 7.397332 4.516978 -13.290005 0 CFG=2
M  V30 18 O 7.461203 2.125882 -13.753945 0
M  V30 19 C 7.446419 5.914569 -13.960721 0
M  V30 20 O 5.434123 0.160223 -18.045721 0
M  V30 21 C 7.434753 3.544513 -15.659090 0
M  V30 22 N 5.866269 -1.830689 -17.091815 0
M  V30 23 C 6.113988 4.406705 -12.421190 0
M  V30 24 C 9.744768 5.936615 -8.480882 0
M  V30 25 C 6.184040 -0.572404 -17.405560 0
M  V30 26 C 9.617690 6.521294 -7.084978 0
M  V30 27 C 7.476212 1.177181 -16.034764 0
M  V30 28 C 9.795922 6.924444 -9.675022 0 CFG=2
M  V30 29 N 8.586159 5.227081 -11.230119 0
M  V30 30 C 6.143967 5.314548 -11.168924 0
M  V30 31 N 6.289210 0.169396 -14.138660 0
M  V30 32 C 7.552037 -0.057274 -16.925279 0
M  V30 33 H 10.640700 8.963733 -7.246742 0
M  V30 34 H 12.262202 8.676973 -6.699196 0
M  V30 35 H 8.335812 0.388282 -14.245173 0
M  V30 36 H 10.595763 7.984910 -4.709071 0
M  V30 37 H 10.509103 6.222365 -4.565991 0
M  V30 38 H 12.057531 7.031911 -4.672224 0
M  V30 39 H 7.510382 2.565448 -17.598802 0
M  V30 40 H 8.555015 3.298500 -11.917810 0
M  V30 41 H 9.537393 4.248676 -12.943775 0
M  V30 42 H 11.714033 6.133478 -6.818558 0
M  V30 43 H 11.377878 7.899906 -10.577225 0
M  V30 44 H 7.422092 4.111059 -9.913616 0
M  V30 45 H 7.414603 5.769309 -9.482063 0
M  V30 46 H 7.468773 6.725863 -13.234623 0
M  V30 47 H 8.337073 6.028301 -14.578934 0
M  V30 48 H 6.573930 6.085922 -14.591912 0
M  V30 49 H 7.415870 4.534442 -16.085318 0
M  V30 50 H 4.978007 -2.212885 -17.380416 0
M  V30 51 H 6.519840 -2.400165 -16.566312 0
M  V30 52 H 5.231023 4.628624 -13.021382 0
M  V30 53 H 5.991089 3.376255 -12.083636 0
M  V30 54 H 8.929542 7.367575 -7.097630 0
M  V30 55 H 9.034823 7.673173 -9.564530 0
M  V30 56 H 5.270482 5.115137 -10.547944 0
M  V30 57 H 6.064598 6.362069 -11.461895 0
M  V30 58 H 5.429170 0.565068 -14.488181 0
M  V30 59 H 6.327844 -0.793552 -14.442915 0
M  V30 60 H 9.171401 5.769337 -6.436591 0
M  V30 END ATOM
M  V30 BEGIN BOND
M  V30 1 1 9 1
M  V30 2 1 9 6
M  V30 3 2 10 3
M  V30 4 1 14 1
M  V30 5 2 14 2
M  V30 6 1 14 11
M  V30 7 1 17 8
M  V30 8 1 17 12
M  V30 9 1 18 5
M  V30 10 1 18 12
M  V30 11 1 17 19 CFG=3
M  V30 12 1 21 7
M  V30 13 2 21 12
M  V30 14 1 23 17
M  V30 15 2 24 16
M  V30 16 2 25 20
M  V30 17 1 25 22
M  V30 18 1 26 9
M  V30 19 1 26 24
M  V30 20 1 27 5
M  V30 21 2 27 7
M  V30 22 1 28 10
M  V30 23 1 28 11
M  V30 24 1 28 24
M  V30 25 1 29 8
M  V30 26 1 29 10
M  V30 27 1 29 13
M  V30 28 1 30 13
M  V30 29 1 30 23
M  V30 30 1 31 5
M  V30 31 1 32 4
M  V30 32 1 32 15
M  V30 33 1 32 25
M  V30 34 1 32 27
M  V30 35 1 33 1
M  V30 36 1 34 1
M  V30 37 1 5 35 CFG=1
M  V30 38 1 36 6
M  V30 39 1 37 6
M  V30 40 1 38 6
M  V30 41 1 39 7
M  V30 42 1 40 8
M  V30 43 1 41 8
M  V30 44 1 9 42 CFG=1
M  V30 45 1 43 11
M  V30 46 1 44 13
M  V30 47 1 45 13
M  V30 48 1 46 19
M  V30 49 1 47 19
M  V30 50 1 48 19
M  V30 51 1 49 21
M  V30 52 1 50 22
M  V30 53 1 51 22
M  V30 54 1 52 23
M  V30 55 1 53 23
M  V30 56 1 54 26
M  V30 57 1 28 55 CFG=1
M  V30 58 1 56 30
M  V30 59 1 57 30
M  V30 60 1 58 31
M  V30 61 1 59 31
M  V30 62 1 60 26
M  V30 END BOND
M  V30 END CTAB
M  END
>  <i_epik_Tot_Q>  (1) 
0

>  <i_epik_Tot_abs_Q>  (1) 
0

>  <i_i_glide_confnum>  (1) 
56

>  <i_i_glide_lignum>  (1) 
94

>  <i_i_glide_posenum>  (1) 
197

>  <i_i_glide_rotatable_bonds>  (1) 
5

>  <i_lp_mmshare_version>  (1) 
72125

>  <i_m_source_file_index>  (1) 
39

>  <i_f3d_flags>  (1) 
0

>  <num_sample>  (1) 
50

>  <b_lp_Chiralities_Consistent>  (1) 
1

>  <r_epik_Charging_Adjusted_Penalty>  (1) 
0.0043173356697657605

>  <r_epik_Ionization_Penalty>  (1) 
2.5101429145755949

>  <r_epik_Ionization_Penalty_Charging>  (1) 
0

>  <r_epik_Ionization_Penalty_Neutral>  (1) 
2.5101429145755949

>  <r_epik_State_Penalty>  (1) 
0.0043173356697657605

>  <r_glide_ring_energy>  (1) 
0.024453031346126263

>  <r_i_docking_score>  (1) 
-6.3964406786165604

>  <r_i_glide_ecoul>  (1) 
-3.3114105753114735

>  <r_i_glide_eff_state_penalty>  (1) 
0.0043173356697657605

>  <r_i_glide_einternal>  (1) 
11.267326559221363

>  <r_i_glide_emodel>  (1) 
-55.269180776662608

>  <r_i_glide_emodel_strain>  (1) 
2.3547345597865004

>  <r_i_glide_energy>  (1) 
-48.403729094914951

>  <r_i_glide_erotb>  (1) 
0.36503894659470715

>  <r_i_glide_esite>  (1) 
-0.13679247636005401

>  <r_i_glide_evdw>  (1) 
-45.092318519603481

>  <r_i_glide_gscore>  (1) 
-6.4007580142863265

>  <r_i_glide_gscore_strain>  (1) 
0

>  <r_i_glide_hbond>  (1) 
-0.32000000000000001

>  <r_i_glide_ligand_efficiency>  (1) 
-0.19988877120676751

>  <r_i_glide_ligand_efficiency_ln>  (1) 
-1.4323374283298764

>  <r_i_glide_ligand_efficiency_sa>  (1) 
-0.63460729138050709

>  <r_i_glide_lipo>  (1) 
-1.720664971488403

>  <r_i_glide_metal>  (1) 
-0

>  <r_i_glide_rewards>  (1) 
-1.8370120007556814

>  <r_lp_Energy>  (1) 
67.478093000000001

>  <r_lp_tautomer_probability>  (1) 
0.99999998000000001

>  <s_epik_Chemistry_Notes>  (1) 
This compound contains an acetal/aminal-like group ( X-CH(R)-Y where X, Y are N, S, or O) that may be acid/base labile, releasing an aldehyde.

>  <s_epik_cmdline>  (1) 
J2VwaWtfcHl0aG9uJywgJy1waHQnLCAnMS4wJywgJy1waCcsICc3LjQnLCAnLXRuJywgJzgnLCAnLW1hJywgJzUwMCcsICctaW1hZScsICc8aW5maWxlLm1hZT4nLCAnLW9tYWUnLCAnPG91dGZpbGUubWFlPic=

>  <s_epik_input>  (1) 
W0NIM11bQ0BASF0xW0NIMl1DKD1PKVtOSF1bQ0BIXShDKD1PKVtDSDJdMSlDKD1TKU4oW0NIMl1bQ0gyXVtDSDJdMilbQ0gyXVtDQEBdMihbQ0gzXSlDKE9bQ0BASF0zW05IMl0pPVtDSF1bQ0hdPUMzQyhGKShGKUMoPU8pW05IMl0=

>  <s_glide_docking_method>  (1) 
confgen

>  <s_i_glide_gridfile>  (1) 
gpcr_drd2_6luq_protein_autoprepared_prepared

>  <s_lp_Force_Field>  (1) 
S-OPLS

>  <s_lp_Variant>  (1) 
DiffSBDD_38_num_sample_50-2

>  <s_m_source_file>  (1) 
generated__ligand_DiffSBDD_2026-05-06_prepared.sdf

>  <GenAI_Model>  (1) 
DiffSBDD

>  <Protein>  (1) 
generic_title2

$$$$
DiffSBDD_38_num_sample_50
     RDKit          3D

  0  0  0  0  0  0  0  0  0  0999 V3000
M  V30 BEGIN CTAB
M  V30 COUNTS 60 62 0 0 1
M  V30 BEGIN ATOM
M  V30 1 C 11.193687 8.225363 -7.786446 0
M  V30 2 O 12.748132 8.168745 -9.603524 0
M  V30 3 S 10.255830 6.169300 -12.621814 0
M  V30 4 F 6.471300 -1.342904 -17.107222 0
M  V30 5 C 7.418946 2.188273 -16.814922 0 CFG=2
M  V30 6 C 10.833047 7.298525 -5.480669 0
M  V30 7 C 7.105441 0.440848 -15.063758 0
M  V30 8 C 8.309710 3.841228 -12.485211 0
M  V30 9 C 10.804145 6.983329 -6.977395 0 CFG=1
M  V30 10 C 9.270464 5.830988 -11.325345 0
M  V30 11 N 10.625878 7.594925 -10.093138 0
M  V30 12 C 7.161887 2.776904 -14.438906 0
M  V30 13 C 7.068270 4.943186 -10.606572 0
M  V30 14 C 11.590438 7.978845 -9.241289 0
M  V30 15 F 6.780002 0.172740 -18.587460 0
M  V30 16 O 9.459437 4.569295 -8.735584 0
M  V30 17 C 7.129140 3.972776 -13.474831 0 CFG=2
M  V30 18 O 7.298388 3.136326 -15.771024 0
M  V30 19 C 7.206094 5.293584 -14.284963 0
M  V30 20 O 9.390066 -0.354843 -18.593542 0
M  V30 21 C 7.069901 1.481104 -14.080564 0
M  V30 22 N 9.034839 -1.984779 -17.091590 0
M  V30 23 C 5.835156 3.968641 -12.625790 0
M  V30 24 C 9.437701 5.796523 -8.737133 0
M  V30 25 C 8.665219 -0.898880 -17.763359 0
M  V30 26 C 9.411526 6.490401 -7.384981 0
M  V30 27 C 7.265063 0.736114 -16.357590 0
M  V30 28 C 9.458324 6.676551 -10.025917 0 CFG=2
M  V30 29 N 8.267792 4.893048 -11.442656 0
M  V30 30 C 5.832538 5.041103 -11.511576 0
M  V30 31 N 8.663893 2.379621 -17.496800 0
M  V30 32 C 7.272099 -0.330688 -17.452784 0
M  V30 33 H 10.388806 8.961048 -7.759205 0
M  V30 34 H 12.047886 8.707551 -7.307654 0
M  V30 35 H 6.604287 2.393979 -17.508996 0
M  V30 36 H 10.183689 8.141261 -5.253149 0
M  V30 37 H 10.498743 6.445918 -4.888481 0
M  V30 38 H 11.834833 7.559153 -5.144032 0
M  V30 39 H 6.992500 -0.589453 -14.756788 0
M  V30 40 H 8.236033 2.895936 -11.957044 0
M  V30 41 H 9.247422 3.743764 -13.031577 0
M  V30 42 H 11.533769 6.189242 -7.150910 0
M  V30 43 H 10.934109 7.674557 -11.053032 0
M  V30 44 H 7.017240 4.036797 -10.004432 0
M  V30 45 H 7.046449 5.769280 -9.904167 0
M  V30 46 H 7.228268 6.179250 -13.652226 0
M  V30 47 H 8.106804 5.327946 -14.898686 0
M  V30 48 H 6.349829 5.398940 -14.951877 0
M  V30 49 H 6.961641 1.220367 -13.037123 0
M  V30 50 H 9.942533 -2.393066 -17.250165 0
M  V30 51 H 8.400532 -2.400287 -16.409551 0
M  V30 52 H 4.955986 4.077393 -13.261424 0
M  V30 53 H 5.763845 2.995281 -12.143603 0
M  V30 54 H 8.690733 7.309785 -7.403132 0
M  V30 55 H 8.634854 7.361758 -10.033122 0
M  V30 56 H 4.946146 4.941038 -10.891788 0
M  V30 57 H 5.773845 6.038747 -11.948172 0
M  V30 58 H 9.450101 2.254021 -16.875709 0
M  V30 59 H 8.787968 1.715057 -18.251317 0
M  V30 60 H 9.045829 5.770062 -6.653117 0
M  V30 END ATOM
M  V30 BEGIN BOND
M  V30 1 1 9 1
M  V30 2 1 9 6
M  V30 3 2 10 3
M  V30 4 1 14 1
M  V30 5 2 14 2
M  V30 6 1 14 11
M  V30 7 1 17 8
M  V30 8 1 17 12
M  V30 9 1 18 5
M  V30 10 1 18 12
M  V30 11 1 17 19 CFG=3
M  V30 12 1 21 7
M  V30 13 2 21 12
M  V30 14 1 23 17
M  V30 15 2 24 16
M  V30 16 2 25 20
M  V30 17 1 25 22
M  V30 18 1 26 9
M  V30 19 1 26 24
M  V30 20 1 27 5
M  V30 21 2 27 7
M  V30 22 1 28 10
M  V30 23 1 28 11
M  V30 24 1 28 24
M  V30 25 1 29 8
M  V30 26 1 29 10
M  V30 27 1 29 13
M  V30 28 1 30 13
M  V30 29 1 30 23
M  V30 30 1 31 5
M  V30 31 1 32 4
M  V30 32 1 32 15
M  V30 33 1 32 25
M  V30 34 1 32 27
M  V30 35 1 33 1
M  V30 36 1 34 1
M  V30 37 1 5 35 CFG=3
M  V30 38 1 36 6
M  V30 39 1 37 6
M  V30 40 1 38 6
M  V30 41 1 39 7
M  V30 42 1 40 8
M  V30 43 1 41 8
M  V30 44 1 9 42 CFG=1
M  V30 45 1 43 11
M  V30 46 1 44 13
M  V30 47 1 45 13
M  V30 48 1 46 19
M  V30 49 1 47 19
M  V30 50 1 48 19
M  V30 51 1 49 21
M  V30 52 1 50 22
M  V30 53 1 51 22
M  V30 54 1 52 23
M  V30 55 1 53 23
M  V30 56 1 54 26
M  V30 57 1 28 55 CFG=1
M  V30 58 1 56 30
M  V30 59 1 57 30
M  V30 60 1 58 31
M  V30 61 1 59 31
M  V30 62 1 60 26
M  V30 END BOND
M  V30 END CTAB
M  END
>  <i_epik_Tot_Q>  (1) 
0

>  <i_epik_Tot_abs_Q>  (1) 
0

>  <i_i_glide_confnum>  (1) 
32

>  <i_i_glide_lignum>  (1) 
94

>  <i_i_glide_posenum>  (1) 
248

>  <i_i_glide_rotatable_bonds>  (1) 
5

>  <i_lp_mmshare_version>  (1) 
72125

>  <i_m_source_file_index>  (1) 
39

>  <i_f3d_flags>  (1) 
0

>  <num_sample>  (1) 
50

>  <b_lp_Chiralities_Consistent>  (1) 
1

>  <r_epik_Charging_Adjusted_Penalty>  (1) 
0.0043173356697657605

>  <r_epik_Ionization_Penalty>  (1) 
2.5101429145755949

>  <r_epik_Ionization_Penalty_Charging>  (1) 
0

>  <r_epik_Ionization_Penalty_Neutral>  (1) 
2.5101429145755949

>  <r_epik_State_Penalty>  (1) 
0.0043173356697657605

>  <r_glide_ring_energy>  (1) 
0.024453031346126263

>  <r_i_docking_score>  (1) 
-6.3885848157939726

>  <r_i_glide_ecoul>  (1) 
-7.2006546134747502

>  <r_i_glide_eff_state_penalty>  (1) 
0.0043173356697657605

>  <r_i_glide_einternal>  (1) 
11.898736933991504

>  <r_i_glide_emodel>  (1) 
-51.761467838868903

>  <r_i_glide_emodel_strain>  (1) 
1.6423610197766791

>  <r_i_glide_energy>  (1) 
-44.517578427176659

>  <r_i_glide_erotb>  (1) 
0.36503894659470715

>  <r_i_glide_esite>  (1) 
-0.14001864131325492

>  <r_i_glide_evdw>  (1) 
-37.316923813701912

>  <r_i_glide_gscore>  (1) 
-6.3929021514637387

>  <r_i_glide_gscore_strain>  (1) 
0

>  <r_i_glide_hbond>  (1) 
-0.44410903609856611

>  <r_i_glide_ligand_efficiency>  (1) 
-0.19964327549356164

>  <r_i_glide_ligand_efficiency_ln>  (1) 
-1.4305782865011663

>  <r_i_glide_ligand_efficiency_sa>  (1) 
-0.63382789107371373

>  <r_i_glide_lipo>  (1) 
-1.7148614264162323

>  <r_i_glide_metal>  (1) 
-0

>  <r_i_glide_rewards>  (1) 
-1.5130076115240836

>  <r_lp_Energy>  (1) 
67.478093000000001

>  <r_lp_tautomer_probability>  (1) 
0.99999998000000001

>  <s_epik_Chemistry_Notes>  (1) 
This compound contains an acetal/aminal-like group ( X-CH(R)-Y where X, Y are N, S, or O) that may be acid/base labile, releasing an aldehyde.

>  <s_epik_cmdline>  (1) 
J2VwaWtfcHl0aG9uJywgJy1waHQnLCAnMS4wJywgJy1waCcsICc3LjQnLCAnLXRuJywgJzgnLCAnLW1hJywgJzUwMCcsICctaW1hZScsICc8aW5maWxlLm1hZT4nLCAnLW9tYWUnLCAnPG91dGZpbGUubWFlPic=

>  <s_epik_input>  (1) 
W0NIM11bQ0BASF0xW0NIMl1DKD1PKVtOSF1bQ0BIXShDKD1PKVtDSDJdMSlDKD1TKU4oW0NIMl1bQ0gyXVtDSDJdMilbQ0gyXVtDQEBdMihbQ0gzXSlDKE9bQ0BASF0zW05IMl0pPVtDSF1bQ0hdPUMzQyhGKShGKUMoPU8pW05IMl0=

>  <s_glide_docking_method>  (1) 
confgen

>  <s_i_glide_gridfile>  (1) 
gpcr_drd2_6luq_protein_autoprepared_prepared

>  <s_lp_Force_Field>  (1) 
S-OPLS

>  <s_lp_Variant>  (1) 
DiffSBDD_38_num_sample_50-2

>  <s_m_source_file>  (1) 
generated__ligand_DiffSBDD_2026-05-06_prepared.sdf

>  <GenAI_Model>  (1) 
DiffSBDD

>  <Protein>  (1) 
generic_title2

$$$$
DiffSBDD_28_num_sample_50
     RDKit          3D

  0  0  0  0  0  0  0  0  0  0999 V3000
M  V30 BEGIN CTAB
M  V30 COUNTS 71 73 0 0 1
M  V30 BEGIN ATOM
M  V30 1 N 9.434838 7.113559 -10.077127 0 CFG=1 CHG=1
M  V30 2 C 5.723205 4.302022 -11.215600 0
M  V30 3 C 12.079057 9.370646 -3.762746 0 CFG=2
M  V30 4 C 10.310180 7.527682 -11.195295 0
M  V30 5 N 7.384576 5.049315 -16.819227 0
M  V30 6 O 13.340736 7.907453 -9.091855 0 CHG=-1
M  V30 7 C 8.656425 5.829366 -10.176892 0 CFG=1
M  V30 8 N 9.034958 6.323737 -7.977992 0
M  V30 9 F 8.781468 5.401320 -18.620462 0
M  V30 10 C 10.634698 9.233995 -5.750371 0
M  V30 11 O 7.834838 4.456088 -8.291885 0
M  V30 12 C 11.062334 10.169211 -4.608676 0
M  V30 13 C 11.771836 8.228076 -5.831947 0 CFG=1
M  V30 14 C 12.023538 7.960117 -4.332375 0
M  V30 15 O 6.215277 2.919627 -13.093514 0
M  V30 16 N 7.194582 5.260160 -14.525528 0
M  V30 17 N 5.656040 6.667545 -16.121127 0
M  V30 18 C 7.789942 4.633432 -15.559953 0
M  V30 19 C 6.424294 3.993489 -12.533171 0
M  V30 20 C 9.170624 4.716680 -11.127290 0
M  V30 21 C 6.011902 6.240027 -18.608128 0 CFG=2
M  V30 22 C 8.876500 4.842235 -12.647324 0
M  V30 23 F 4.234929 7.836092 -19.103386 0
M  V30 24 C 11.244727 7.161928 -8.231182 0 CFG=1
M  V30 25 F 5.457451 5.192707 -19.222806 0
M  V30 26 O 8.634830 3.769351 -15.400886 0
M  V30 27 O 11.669024 9.369214 -9.025507 0
M  V30 28 C 7.393154 5.053178 -13.078791 0 CFG=1
M  V30 29 C 11.910784 9.413178 -2.242529 0
M  V30 30 C 9.772133 7.357353 -8.635521 0 CFG=1
M  V30 31 C 4.826928 7.387047 -16.925245 0
M  V30 32 C 12.166691 8.240468 -8.832861 0
M  V30 33 C 8.484035 5.391780 -8.715692 0
M  V30 34 C 8.051988 4.468140 -18.005699 0
M  V30 35 C 6.328596 6.015880 -17.056237 0
M  V30 36 C 4.984889 7.192151 -18.198506 0
M  V30 37 C 11.497812 6.967805 -6.694241 0
M  V30 38 H 5.508396 5.365861 -11.118299 0
M  V30 39 H 4.782370 3.769417 -11.157771 0
M  V30 40 H 6.333644 3.986440 -10.371802 0
M  V30 41 H 13.069594 9.768806 -3.988105 0
M  V30 42 H 11.213638 6.927140 -11.276285 0
M  V30 43 H 9.765167 7.486298 -12.135185 0
M  V30 44 H 10.589351 8.568739 -11.083184 0
M  V30 45 H 7.661457 6.111876 -10.508096 0
M  V30 46 H 8.936329 6.328988 -6.973616 0
M  V30 47 H 10.488040 9.769100 -6.685805 0
M  V30 48 H 9.715402 8.702893 -5.515974 0
M  V30 49 H 11.551791 11.023798 -5.072454 0
M  V30 50 H 10.234792 10.567956 -4.027250 0
M  V30 51 H 12.624071 8.776327 -6.243454 0
M  V30 52 H 11.200021 7.382860 -3.911919 0
M  V30 53 H 12.924855 7.413808 -4.068323 0
M  V30 54 H 6.495334 5.947428 -14.787305 0
M  V30 55 H 8.745158 3.769358 -10.800865 0
M  V30 56 H 10.234741 4.584293 -11.003089 0
M  V30 57 H 6.812394 6.708011 -19.181971 0
M  V30 58 H 9.243388 3.908970 -13.074557 0
M  V30 59 H 9.499300 5.609832 -13.102480 0
M  V30 60 H 11.434975 6.201436 -8.696002 0
M  V30 61 H 7.086334 6.011984 -12.663092 0
M  V30 62 H 11.035321 8.865774 -1.901426 0
M  V30 63 H 12.777928 8.968896 -1.751754 0
M  V30 64 H 11.834763 10.438514 -1.891841 0
M  V30 65 H 9.382735 8.327492 -8.325381 0
M  V30 66 H 4.110324 8.058821 -16.477928 0
M  V30 67 H 8.763420 3.677861 -17.762806 0
M  V30 68 H 7.376266 4.009310 -18.723318 0
M  V30 69 H 10.706496 6.397061 -6.209452 0
M  V30 70 H 12.342731 6.287461 -6.626285 0
M  V30 71 H 8.634732 7.744798 -10.147377 0
M  V30 END ATOM
M  V30 BEGIN BOND
M  V30 1 1 4 1
M  V30 2 1 7 1
M  V30 3 1 12 3
M  V30 4 1 12 10
M  V30 5 1 13 10
M  V30 6 1 14 3
M  V30 7 1 14 13
M  V30 8 1 18 5
M  V30 9 1 18 16
M  V30 10 1 19 2
M  V30 11 2 19 15
M  V30 12 1 20 7
M  V30 13 1 22 20
M  V30 14 1 25 21
M  V30 15 2 26 18
M  V30 16 1 28 16
M  V30 17 1 28 19
M  V30 18 1 28 22
M  V30 19 1 29 3
M  V30 20 1 30 1
M  V30 21 1 30 8
M  V30 22 1 30 24
M  V30 23 1 31 17
M  V30 24 1 32 6
M  V30 25 1 32 24
M  V30 26 2 32 27
M  V30 27 1 33 7
M  V30 28 1 33 8
M  V30 29 2 33 11
M  V30 30 1 34 5
M  V30 31 1 34 9
M  V30 32 1 35 5
M  V30 33 2 35 17
M  V30 34 1 35 21
M  V30 35 1 36 21
M  V30 36 1 36 23
M  V30 37 2 36 31
M  V30 38 1 37 13
M  V30 39 1 37 24
M  V30 40 1 38 2
M  V30 41 1 39 2
M  V30 42 1 40 2
M  V30 43 1 3 41 CFG=1
M  V30 44 1 42 4
M  V30 45 1 43 4
M  V30 46 1 44 4
M  V30 47 1 7 45 CFG=3
M  V30 48 1 46 8
M  V30 49 1 47 10
M  V30 50 1 48 10
M  V30 51 1 49 12
M  V30 52 1 50 12
M  V30 53 1 13 51 CFG=3
M  V30 54 1 52 14
M  V30 55 1 53 14
M  V30 56 1 54 16
M  V30 57 1 55 20
M  V30 58 1 56 20
M  V30 59 1 21 57 CFG=3
M  V30 60 1 58 22
M  V30 61 1 59 22
M  V30 62 1 24 60 CFG=3
M  V30 63 1 28 61 CFG=1
M  V30 64 1 62 29
M  V30 65 1 63 29
M  V30 66 1 64 29
M  V30 67 1 30 65 CFG=1
M  V30 68 1 66 31
M  V30 69 1 67 34
M  V30 70 1 68 34
M  V30 71 1 69 37
M  V30 72 1 70 37
M  V30 73 1 1 71 CFG=3
M  V30 END BOND
M  V30 END CTAB
M  END
>  <i_epik_Tot_Q>  (1) 
0

>  <i_epik_Tot_abs_Q>  (1) 
2

>  <i_i_glide_confnum>  (1) 
197

>  <i_i_glide_lignum>  (1) 
70

>  <i_i_glide_posenum>  (1) 
88

>  <i_i_glide_rotatable_bonds>  (1) 
13

>  <i_lp_mmshare_version>  (1) 
72125

>  <i_m_source_file_index>  (1) 
29

>  <i_f3d_flags>  (1) 
0

>  <num_sample>  (1) 
50

>  <b_lp_Chiralities_Consistent>  (1) 
1

>  <r_epik_Charging_Adjusted_Penalty>  (1) 
0.054083419880676768

>  <r_epik_Ionization_Penalty>  (1) 
0.12983459298085004

>  <r_epik_Ionization_Penalty_Charging>  (1) 
0.054083419880676768

>  <r_epik_Ionization_Penalty_Neutral>  (1) 
0.075751173100173264

>  <r_epik_State_Penalty>  (1) 
-0

>  <r_glide_ring_energy>  (1) 
0

>  <r_i_docking_score>  (1) 
-6.3867030819534323

>  <r_i_glide_ecoul>  (1) 
-5.9969250330623067

>  <r_i_glide_eff_state_penalty>  (1) 
-0

>  <r_i_glide_einternal>  (1) 
43.390453732959863

>  <r_i_glide_emodel>  (1) 
-32.934983389644088

>  <r_i_glide_emodel_strain>  (1) 
1.1366801968216862

>  <r_i_glide_energy>  (1) 
-39.840623447534568

>  <r_i_glide_erotb>  (1) 
0.66137813184917615

>  <r_i_glide_esite>  (1) 
-0.35311314646793823

>  <r_i_glide_evdw>  (1) 
-33.843698414472264

>  <r_i_glide_gscore>  (1) 
-6.3867030819534323

>  <r_i_glide_gscore_strain>  (1) 
0

>  <r_i_glide_hbond>  (1) 
-0.14897664834118304

>  <r_i_glide_ligand_efficiency>  (1) 
-0.17261359680955221

>  <r_i_glide_ligand_efficiency_ln>  (1) 
-1.3851261729122497

>  <r_i_glide_ligand_efficiency_sa>  (1) 
-0.57518679917999416

>  <r_i_glide_lipo>  (1) 
-2.5263273549560479

>  <r_i_glide_metal>  (1) 
-0

>  <r_i_glide_rewards>  (1) 
-1.4279403883544801

>  <r_lp_Energy>  (1) 
39.617291999999999

>  <r_lp_tautomer_probability>  (1) 
1

>  <s_epik_Chemistry_Notes>  (1) 
This compound has an imine and may undergo hydrolysis. This compound contains an acetal/aminal-like group ( X-CH(R)-Y where X, Y are N, S, or O) that may be acid/base labile, releasing an aldehyde.

>  <s_epik_cmdline>  (1) 
J2VwaWtfcHl0aG9uJywgJy1waHQnLCAnMS4wJywgJy1waCcsICc3LjQnLCAnLXRuJywgJzgnLCAnLW1hJywgJzUwMCcsICctaW1hZScsICc8aW5maWxlLm1hZT4nLCAnLW9tYWUnLCAnPG91dGZpbGUubWFlPic=

>  <s_epik_input>  (1) 
W0NIM11bQ0BASF0xW0NIMl1bQ0gyXVtDQEBIXShbQ0gyXTEpW0NIMl1bQ0BIXShDKD1PKVtPSF0pW0NAQEhdMltOSF1DKD1PKVtDQEBIXShOMltDSDNdKVtDSDJdW0NIMl1bQ0BIXShDKD1PKVtDSDNdKVtOSF1DKD1PKU4oW0NIMl1GKUMoW0NASF0zRik9TltDSF09QzNG

>  <s_glide_docking_method>  (1) 
confgen

>  <s_i_glide_gridfile>  (1) 
gpcr_drd2_6luq_protein_autoprepared_prepared

>  <s_lp_Force_Field>  (1) 
S-OPLS

>  <s_lp_Variant>  (1) 
DiffSBDD_28_num_sample_50-2

>  <s_m_source_file>  (1) 
generated__ligand_DiffSBDD_2026-05-06_prepared.sdf

>  <GenAI_Model>  (1) 
DiffSBDD

>  <Protein>  (1) 
generic_title2

$$$$
DiffSBDD_11_num_sample_50
     RDKit          3D

  0  0  0  0  0  0  0  0  0  0999 V3000
M  V30 BEGIN CTAB
M  V30 COUNTS 69 72 0 0 1
M  V30 BEGIN ATOM
M  V30 1 C 9.013499 5.259617 -10.290810 0
M  V30 2 C 5.938449 6.886703 -15.930346 0
M  V30 3 C 10.613544 7.733896 -10.801876 0 CFG=1
M  V30 4 O 11.434878 9.593018 -3.244286 0
M  V30 5 C 7.262350 7.564992 -12.834439 0
M  V30 6 O 11.381033 6.969308 -11.719943 0
M  V30 7 C 13.131977 9.369313 -4.839941 0
M  V30 8 C 12.260812 8.613616 -3.821171 0 CFG=2
M  V30 9 C 7.058284 4.876092 -11.705866 0
M  V30 10 C 11.434497 6.442153 -3.185755 0
M  V30 11 C 9.490007 6.105291 -9.098165 0
M  V30 12 C 6.396374 6.551640 -17.364989 0
M  V30 13 C 7.167634 5.253039 -17.591644 0
M  V30 14 C 11.433190 7.422714 -4.353558 0
M  V30 15 C 6.242146 6.611310 -13.475917 0 CFG=2
M  V30 16 C 10.514927 8.276128 -8.303450 0
M  V30 17 O 11.671873 9.111604 -8.364131 0
M  V30 18 C 7.552158 5.266818 -15.119637 0
M  V30 19 N 7.939655 5.911914 -11.091256 0 CFG=2 CHG=1
M  V30 20 C 8.439078 6.913205 -12.078235 0 CFG=2
M  V30 21 F 6.309338 4.318927 -17.989444 0
M  V30 22 C 5.884053 5.450063 -12.524271 0
M  V30 23 C 12.308181 9.773356 -6.083851 0
M  V30 24 C 12.618958 8.903148 -7.326060 0
M  V30 25 F 8.053338 5.433818 -18.572471 0
M  V30 26 N 6.562372 6.245398 -14.886205 0
M  V30 27 O 13.052163 8.045180 -2.842606 0
M  V30 28 C 9.245561 8.070163 -11.424194 0
M  V30 29 C 12.244955 7.142633 -2.104717 0
M  V30 30 C 7.858832 4.798680 -16.338667 0
M  V30 31 O 5.061724 7.734131 -15.762008 0
M  V30 32 C 10.589825 7.151366 -9.367738 0 CFG=2
M  V30 33 F 8.828405 3.875318 -16.442547 0
M  V30 34 H 9.834605 4.920827 -10.921224 0
M  V30 35 H 8.599953 4.349723 -9.859517 0
M  V30 36 H 11.167245 8.665144 -10.692082 0
M  V30 37 H 11.110696 10.144794 -3.939235 0
M  V30 38 H 7.638170 8.252743 -13.592035 0
M  V30 39 H 6.716416 8.170381 -12.110195 0
M  V30 40 H 10.951422 6.148218 -11.901620 0
M  V30 41 H 13.510526 10.169433 -4.249810 0
M  V30 42 H 14.101956 8.969336 -5.091588 0
M  V30 43 H 7.657861 4.195951 -12.308306 0
M  V30 44 H 6.632595 4.258551 -10.911562 0
M  V30 45 H 11.947320 5.531107 -3.482400 0
M  V30 46 H 10.433383 6.169386 -2.844904 0
M  V30 47 H 9.873940 5.429063 -8.331719 0
M  V30 48 H 8.633779 6.576864 -8.626972 0
M  V30 49 H 5.537748 6.603190 -18.036114 0
M  V30 50 H 7.033971 7.369252 -17.673528 0
M  V30 51 H 10.446005 7.729513 -4.692289 0
M  V30 52 H 11.919300 6.936169 -5.192377 0
M  V30 53 H 5.314997 7.185370 -13.492685 0
M  V30 54 H 10.382541 7.856988 -7.304362 0
M  V30 55 H 9.636282 8.897812 -8.480995 0
M  V30 56 H 8.043454 4.924945 -14.228740 0
M  V30 57 H 9.068792 6.398291 -12.803444 0
M  V30 58 H 5.365701 4.655026 -13.062329 0
M  V30 59 H 5.156870 5.829495 -11.803946 0
M  V30 60 H 11.238936 9.740213 -5.876561 0
M  V30 61 H 12.514617 10.821324 -6.291663 0
M  V30 62 H 13.618830 9.127118 -7.696797 0
M  V30 63 H 12.633940 7.841955 -7.093050 0
M  V30 64 H 9.438454 8.804436 -12.207274 0
M  V30 65 H 8.635149 8.600553 -10.692128 0
M  V30 66 H 12.839016 6.454501 -1.501181 0
M  V30 67 H 11.586871 7.709696 -1.448723 0
M  V30 68 H 11.544991 6.658273 -9.200224 0
M  V30 69 H 7.375445 6.445512 -10.428472 0
M  V30 END ATOM
M  V30 BEGIN BOND
M  V30 1 1 6 3
M  V30 2 1 8 4 CFG=1
M  V30 3 1 8 7
M  V30 4 1 11 1
M  V30 5 1 12 2
M  V30 6 1 13 12
M  V30 7 1 14 8
M  V30 8 1 14 10
M  V30 9 1 15 5
M  V30 10 1 17 16
M  V30 11 1 19 1
M  V30 12 1 19 9
M  V30 13 1 20 5
M  V30 14 1 20 19
M  V30 15 1 21 13
M  V30 16 1 22 9
M  V30 17 1 22 15
M  V30 18 1 23 7
M  V30 19 1 24 17
M  V30 20 1 24 23
M  V30 21 1 25 13
M  V30 22 1 26 2
M  V30 23 1 26 15
M  V30 24 1 26 18
M  V30 25 1 27 8
M  V30 26 1 28 3
M  V30 27 1 28 20
M  V30 28 1 29 10
M  V30 29 1 29 27
M  V30 30 1 30 13
M  V30 31 2 30 18
M  V30 32 2 31 2
M  V30 33 1 32 3
M  V30 34 1 32 11
M  V30 35 1 32 16
M  V30 36 1 33 30
M  V30 37 1 34 1
M  V30 38 1 35 1
M  V30 39 1 3 36 CFG=1
M  V30 40 1 37 4
M  V30 41 1 38 5
M  V30 42 1 39 5
M  V30 43 1 40 6
M  V30 44 1 41 7
M  V30 45 1 42 7
M  V30 46 1 43 9
M  V30 47 1 44 9
M  V30 48 1 45 10
M  V30 49 1 46 10
M  V30 50 1 47 11
M  V30 51 1 48 11
M  V30 52 1 49 12
M  V30 53 1 50 12
M  V30 54 1 51 14
M  V30 55 1 52 14
M  V30 56 1 15 53 CFG=3
M  V30 57 1 54 16
M  V30 58 1 55 16
M  V30 59 1 56 18
M  V30 60 1 20 57 CFG=3
M  V30 61 1 58 22
M  V30 62 1 59 22
M  V30 63 1 60 23
M  V30 64 1 61 23
M  V30 65 1 62 24
M  V30 66 1 63 24
M  V30 67 1 64 28
M  V30 68 1 65 28
M  V30 69 1 66 29
M  V30 70 1 67 29
M  V30 71 1 32 68 CFG=1
M  V30 72 1 19 69 CFG=1
M  V30 END BOND
M  V30 END CTAB
M  END
>  <i_epik_Tot_Q>  (1) 
1

>  <i_epik_Tot_abs_Q>  (1) 
1

>  <i_i_glide_confnum>  (1) 
571

>  <i_i_glide_lignum>  (1) 
46

>  <i_i_glide_posenum>  (1) 
274

>  <i_i_glide_rotatable_bonds>  (1) 
9

>  <i_lp_mmshare_version>  (1) 
72125

>  <i_m_source_file_index>  (1) 
12

>  <i_f3d_flags>  (1) 
0

>  <num_sample>  (1) 
50

>  <b_lp_Chiralities_Consistent>  (1) 
1

>  <r_epik_Charging_Adjusted_Penalty>  (1) 
0.049597449479403345

>  <r_epik_Ionization_Penalty>  (1) 
0.024799209446341199

>  <r_epik_Ionization_Penalty_Charging>  (1) 
0.024798724739701669

>  <r_epik_Ionization_Penalty_Neutral>  (1) 
4.8470663953020042e-07

>  <r_epik_State_Penalty>  (1) 
0.024798724739701676

>  <r_glide_ring_energy>  (1) 
0.00027748208411692568

>  <r_i_docking_score>  (1) 
-6.3865204851206521

>  <r_i_glide_ecoul>  (1) 
-6.1842555596714393

>  <r_i_glide_eff_state_penalty>  (1) 
0.024798724739701676

>  <r_i_glide_einternal>  (1) 
10.709767562585576

>  <r_i_glide_emodel>  (1) 
-40.98672498754064

>  <r_i_glide_emodel_strain>  (1) 
1.792693731604345

>  <r_i_glide_energy>  (1) 
-40.296617103293642

>  <r_i_glide_erotb>  (1) 
0.62180956458355674

>  <r_i_glide_esite>  (1) 
-0.089966505139402686

>  <r_i_glide_evdw>  (1) 
-34.1123615436222

>  <r_i_glide_gscore>  (1) 
-6.4113192098603538

>  <r_i_glide_gscore_strain>  (1) 
0

>  <r_i_glide_hbond>  (1) 
-0.20000000000000001

>  <r_i_glide_ligand_efficiency>  (1) 
-0.19353092379153491

>  <r_i_glide_ligand_efficiency_ln>  (1) 
-1.4203290882575028

>  <r_i_glide_ligand_efficiency_sa>  (1) 
-0.62075708197715429

>  <r_i_glide_lipo>  (1) 
-1.9168299705934571

>  <r_i_glide_metal>  (1) 
-0

>  <r_i_glide_rewards>  (1) 
-2.1930758875792247

>  <r_lp_Energy>  (1) 
48.888842999999994

>  <s_epik_cmdline>  (1) 
J2VwaWtfcHl0aG9uJywgJy1waHQnLCAnMS4wJywgJy1waCcsICc3LjQnLCAnLXRuJywgJzgnLCAnLW1hJywgJzUwMCcsICctaW1hZScsICc8aW5maWxlLm1hZT4nLCAnLW9tYWUnLCAnPG91dGZpbGUubWFlPic=

>  <s_epik_input>  (1) 
TzFbQ0gyXVtDSDJdW0NIMl1bQ0BdMShbT0hdKVtDSDJdW0NIMl1bQ0gyXU9bQ0gyXVtDQEBIXShbQ0gyXVtDSDJdMilbQ0BASF0oW09IXSlbQ0gyXVtDQEBIXShOMjMpW0NIMl1bQ0BIXShbQ0gyXVtDSDJdMylOKFtDSF09QzRGKUMoPU8pW0NIMl1DNChGKUY=

>  <s_glide_docking_method>  (1) 
confgen

>  <s_i_glide_gridfile>  (1) 
gpcr_drd2_6luq_protein_autoprepared_prepared

>  <s_lp_Force_Field>  (1) 
S-OPLS

>  <s_lp_Variant>  (1) 
DiffSBDD_11_num_sample_50-2

>  <s_m_source_file>  (1) 
generated__ligand_DiffSBDD_2026-05-06_prepared.sdf

>  <GenAI_Model>  (1) 
DiffSBDD

>  <Protein>  (1) 
generic_title2

$$$$
DiffSBDD_18_num_sample_50
     RDKit          3D

  0  0  0  0  0  0  0  0  0  0999 V3000
M  V30 BEGIN CTAB
M  V30 COUNTS 58 61 0 0 1
M  V30 BEGIN ATOM
M  V30 1 C 8.121938 2.378622 -16.182984 0
M  V30 2 C 12.194044 8.436499 -8.347046 0 CFG=2
M  V30 3 C 5.880949 1.874002 -13.091525 0
M  V30 4 C 7.443623 0.037498 -16.074114 0
M  V30 5 C 8.140539 1.075656 -16.718530 0
M  V30 6 C 9.621930 6.344823 -8.543582 0
M  V30 7 O 11.475610 7.473735 -11.095052 0
M  V30 8 C 9.795545 6.740698 -9.777025 0
M  V30 9 C 7.394301 4.065012 -14.417887 0 CFG=2
M  V30 10 S 11.026850 8.861734 -5.803748 0
M  V30 11 C 9.298008 5.856185 -7.379813 0
M  V30 12 C 11.039288 8.919423 -9.255213 0
M  V30 13 C 9.128226 6.009172 -10.928445 0
M  V30 14 C 9.522954 6.602817 -6.077749 0
M  V30 15 C 8.613147 4.300808 -13.507087 0
M  V30 16 C 10.833905 7.222489 -12.338015 0
M  V30 17 N 10.509766 7.879400 -10.133185 0
M  V30 18 C 6.119012 4.370939 -13.639424 0
M  V30 19 C 12.319297 9.189524 -7.001896 0
M  V30 20 O 13.425006 8.569166 -9.033382 0
M  V30 21 C 6.718774 0.298901 -14.895623 0
M  V30 22 C 6.691298 1.602039 -14.352307 0
M  V30 23 C 7.402112 2.648233 -14.995630 0
M  V30 24 C 9.984727 5.960866 -12.199754 0 CFG=2
M  V30 25 C 10.938761 7.063202 -5.701074 0
M  V30 26 C 5.905116 3.329344 -12.553000 0
M  V30 27 C 9.152808 5.717155 -13.468326 0
M  V30 28 H 8.660075 3.172170 -16.680324 0
M  V30 29 H 12.097667 7.374922 -8.153033 0
M  V30 30 H 4.871116 1.565423 -13.365415 0
M  V30 31 H 6.231047 1.197084 -12.307922 0
M  V30 32 H 7.461746 -0.961267 -16.486119 0
M  V30 33 H 8.690587 0.871885 -17.626111 0
M  V30 34 H 7.442315 4.746104 -15.266339 0
M  V30 35 H 8.727417 4.943125 -7.314709 0
M  V30 36 H 10.197749 9.292027 -8.669744 0
M  V30 37 H 11.390226 9.756144 -9.853624 0
M  V30 38 H 8.849649 4.994067 -10.634289 0
M  V30 39 H 8.194776 6.545870 -11.108169 0
M  V30 40 H 9.167257 5.980705 -5.267959 0
M  V30 41 H 8.836152 7.451564 -6.095732 0
M  V30 42 H 9.443267 3.769344 -13.903190 0
M  V30 43 H 8.496850 3.866449 -12.519367 0
M  V30 44 H 10.226627 8.078022 -12.628546 0
M  V30 45 H 11.580363 7.073295 -13.116597 0
M  V30 46 H 6.179736 5.362473 -13.191787 0
M  V30 47 H 5.251282 4.387544 -14.293200 0
M  V30 48 H 13.284269 8.991053 -6.543673 0
M  V30 49 H 12.227877 10.261257 -7.091065 0
M  V30 50 H 13.586302 9.478700 -9.263730 0
M  V30 51 H 6.178579 -0.502177 -14.408301 0
M  V30 52 H 10.666022 5.121788 -12.084197 0
M  V30 53 H 11.742198 6.558173 -6.237745 0
M  V30 54 H 11.091135 6.849016 -4.642061 0
M  V30 55 H 5.034814 3.649036 -12.001030 0
M  V30 56 H 6.675909 3.383746 -11.790522 0
M  V30 57 H 8.359602 6.455440 -13.597014 0
M  V30 58 H 9.802939 5.769492 -14.342478 0
M  V30 END ATOM
M  V30 BEGIN BOND
M  V30 1 1 5 1
M  V30 2 2 5 4
M  V30 3 2 8 6
M  V30 4 2 11 6
M  V30 5 1 12 2
M  V30 6 1 13 8
M  V30 7 1 14 11
M  V30 8 1 15 9
M  V30 9 1 16 7
M  V30 10 1 17 7
M  V30 11 1 17 8
M  V30 12 1 17 12
M  V30 13 1 18 9
M  V30 14 1 19 2
M  V30 15 1 19 10
M  V30 16 1 20 2
M  V30 17 1 21 4
M  V30 18 1 22 3
M  V30 19 2 22 21
M  V30 20 2 23 1
M  V30 21 1 23 9
M  V30 22 1 23 22
M  V30 23 1 24 13
M  V30 24 1 24 16
M  V30 25 1 25 10
M  V30 26 1 25 14
M  V30 27 1 26 3
M  V30 28 1 26 18
M  V30 29 1 27 15
M  V30 30 1 27 24
M  V30 31 1 28 1
M  V30 32 1 2 29 CFG=1
M  V30 33 1 30 3
M  V30 34 1 31 3
M  V30 35 1 32 4
M  V30 36 1 33 5
M  V30 37 1 9 34 CFG=3
M  V30 38 1 35 11
M  V30 39 1 36 12
M  V30 40 1 37 12
M  V30 41 1 38 13
M  V30 42 1 39 13
M  V30 43 1 40 14
M  V30 44 1 41 14
M  V30 45 1 42 15
M  V30 46 1 43 15
M  V30 47 1 44 16
M  V30 48 1 45 16
M  V30 49 1 46 18
M  V30 50 1 47 18
M  V30 51 1 48 19
M  V30 52 1 49 19
M  V30 53 1 50 20
M  V30 54 1 51 21
M  V30 55 1 24 52 CFG=1
M  V30 56 1 53 25
M  V30 57 1 54 25
M  V30 58 1 55 26
M  V30 59 1 56 26
M  V30 60 1 57 27
M  V30 61 1 58 27
M  V30 END BOND
M  V30 END CTAB
M  END
>  <i_epik_Tot_Q>  (1) 
0

>  <i_epik_Tot_abs_Q>  (1) 
0

>  <i_i_glide_confnum>  (1) 
1

>  <i_i_glide_lignum>  (1) 
54

>  <i_i_glide_posenum>  (1) 
283

>  <i_i_glide_rotatable_bonds>  (1) 
4

>  <i_lp_mmshare_version>  (1) 
72125

>  <i_m_source_file_index>  (1) 
19

>  <i_f3d_flags>  (1) 
0

>  <num_sample>  (1) 
50

>  <b_lp_Chiralities_Consistent>  (1) 
1

>  <r_epik_Charging_Adjusted_Penalty>  (1) 
0

>  <r_epik_Ionization_Penalty>  (1) 
0.00079685504618355781

>  <r_epik_Ionization_Penalty_Charging>  (1) 
0

>  <r_epik_Ionization_Penalty_Neutral>  (1) 
0.00079685504618355781

>  <r_epik_State_Penalty>  (1) 
-0

>  <r_glide_ring_energy>  (1) 
0.85507922053399688

>  <r_i_docking_score>  (1) 
-6.3687757173803643

>  <r_i_glide_ecoul>  (1) 
-5.4797182436311012

>  <r_i_glide_eff_state_penalty>  (1) 
-0

>  <r_i_glide_einternal>  (1) 
4.8996731364933792

>  <r_i_glide_emodel>  (1) 
-32.716313228312607

>  <r_i_glide_emodel_strain>  (1) 
1.5664256327961041

>  <r_i_glide_energy>  (1) 
-28.994671158337066

>  <r_i_glide_erotb>  (1) 
0.39257817709614257

>  <r_i_glide_esite>  (1) 
-0.026774831918941734

>  <r_i_glide_evdw>  (1) 
-23.514952914705965

>  <r_i_glide_gscore>  (1) 
-6.3687757173803643

>  <r_i_glide_gscore_strain>  (1) 
0

>  <r_i_glide_hbond>  (1) 
-0.32000000000000001

>  <r_i_glide_ligand_efficiency>  (1) 
-0.23588058212519869

>  <r_i_glide_ligand_efficiency_ln>  (1) 
-1.4825459895324493

>  <r_i_glide_ligand_efficiency_sa>  (1) 
-0.70764174637559618

>  <r_i_glide_lipo>  (1) 
-2.7366897257321452

>  <r_i_glide_metal>  (1) 
-0

>  <r_i_glide_rewards>  (1) 
-1.680183954545456

>  <r_lp_Energy>  (1) 
7.009665

>  <r_lp_tautomer_probability>  (1) 
1

>  <s_epik_Chemistry_Notes>  (1) 
This compound has a N-S or N-O group and may undergo hydrolysis at high or low pH.

>  <s_epik_cmdline>  (1) 
J2VwaWtfcHl0aG9uJywgJy1waHQnLCAnMS4wJywgJy1waCcsICc3LjQnLCAnLXRuJywgJzgnLCAnLW1hJywgJzUwMCcsICctaW1hZScsICc8aW5maWxlLm1hZT4nLCAnLW9tYWUnLCAnPG91dGZpbGUubWFlPic=

>  <s_epik_input>  (1) 
W2NIXTFbY0hdW2NIXVtjSF1jKGMxMilbQ0BASF0oW0NIMl1bQ0gyXVtDSDJdMilbQ0gyXVtDSDJdW0NASF0oW0NIMl0zKVtDSDJdT04oQzM0KVtDSDJdW0NAQEhdKFtPSF0pW0NIMl1TW0NIMl1bQ0gyXVtDSF09Qz00

>  <s_glide_docking_method>  (1) 
confgen

>  <s_i_glide_gridfile>  (1) 
gpcr_drd2_6luq_protein_autoprepared_prepared

>  <s_lp_Force_Field>  (1) 
S-OPLS

>  <s_lp_Variant>  (1) 
DiffSBDD_18_num_sample_50-1

>  <s_m_source_file>  (1) 
generated__ligand_DiffSBDD_2026-05-06_prepared.sdf

>  <GenAI_Model>  (1) 
DiffSBDD

>  <Protein>  (1) 
generic_title2

$$$$
DiffSBDD_45_num_sample_50
     RDKit          3D

  0  0  0  0  0  0  0  0  0  0999 V3000
M  V30 BEGIN CTAB
M  V30 COUNTS 63 66 0 0 1
M  V30 BEGIN ATOM
M  V30 1 C 9.751430 6.676561 -6.442752 0
M  V30 2 C 11.519507 8.513023 -5.813800 0 CFG=2
M  V30 3 O 11.140558 9.293255 -4.690659 0
M  V30 4 C 8.170637 3.577905 -12.904322 0
M  V30 5 O 6.791099 7.632125 -11.891661 0
M  V30 6 O 6.715192 4.773616 -15.085521 0
M  V30 7 C 8.094518 7.113026 -11.919690 0 CFG=2
M  V30 8 O 8.311977 5.718849 -11.868933 0
M  V30 9 C 8.064575 3.137947 -16.373514 0 CFG=2
M  V30 10 C 7.522046 5.588299 -14.243724 0
M  V30 11 C 9.034894 7.937464 -11.067412 0 CFG=2
M  V30 12 C 10.114040 7.664824 -8.805177 0 CFG=2
M  V30 13 C 5.955165 2.424320 -13.168166 0
M  V30 14 C 11.277303 8.569052 -8.368696 0
M  V30 15 C 9.965869 6.399430 -7.943478 0
M  V30 16 C 7.332861 2.672837 -13.831521 0 CFG=1
M  V30 17 C 8.234889 0.814274 -15.425554 0
M  V30 18 C 12.029038 9.185867 -3.587556 0
M  V30 19 O 9.135420 7.883970 -12.491330 0
M  V30 20 C 7.567025 4.983849 -12.825183 0 CFG=1
M  V30 21 C 10.987448 9.244143 -7.026340 0
M  V30 22 C 8.287235 1.646901 -16.475788 0
M  V30 23 C 10.205631 7.342381 -10.310116 0
M  V30 24 C 9.356628 3.975694 -16.456293 0
M  V30 25 C 11.042468 7.043890 -5.682229 0
M  V30 26 C 7.110232 3.406683 -15.192895 0 CFG=1
M  V30 27 C 7.985289 1.265039 -13.996707 0
M  V30 28 H 8.965456 7.418253 -6.291280 0
M  V30 29 H 9.355539 5.769300 -5.997451 0
M  V30 30 H 12.595051 8.573792 -5.932512 0
M  V30 31 H 9.192836 3.658208 -13.270703 0
M  V30 32 H 8.252115 3.151701 -11.905566 0
M  V30 33 H 6.634752 7.769259 -10.945862 0
M  V30 34 H 7.503446 3.385393 -17.275889 0
M  V30 35 H 7.061661 6.575792 -14.248059 0
M  V30 36 H 8.524707 5.723294 -14.640482 0
M  V30 37 H 8.703403 8.919094 -10.727407 0
M  V30 38 H 9.193517 8.230519 -8.649329 0
M  V30 39 H 6.068854 2.093414 -12.136243 0
M  V30 40 H 5.321337 3.311059 -13.172027 0
M  V30 41 H 5.398818 1.644635 -13.689067 0
M  V30 42 H 12.220965 8.022127 -8.345996 0
M  V30 43 H 11.399019 9.359851 -9.110203 0
M  V30 44 H 9.094914 5.851362 -8.308590 0
M  V30 45 H 10.815811 5.733470 -8.088431 0
M  V30 46 H 8.401250 -0.243501 -15.575290 0
M  V30 47 H 11.655205 9.785052 -2.756768 0
M  V30 48 H 12.125265 8.156848 -3.239729 0
M  V30 49 H 13.021110 9.557281 -3.847159 0
M  V30 50 H 6.552368 4.944245 -12.431652 0
M  V30 51 H 9.913515 9.369391 -6.902032 0
M  V30 52 H 11.437654 10.233119 -7.022047 0
M  V30 53 H 8.487240 1.252670 -17.460901 0
M  V30 54 H 10.234742 6.266367 -10.474121 0
M  V30 55 H 11.128650 7.729680 -10.741915 0
M  V30 56 H 10.093568 3.506839 -17.108271 0
M  V30 57 H 9.135052 4.954326 -16.881036 0
M  V30 58 H 9.825953 4.169238 -15.493802 0
M  V30 59 H 10.897069 6.802567 -4.628647 0
M  V30 60 H 11.834834 6.374285 -6.015880 0
M  V30 61 H 6.234856 2.904949 -15.566460 0
M  V30 62 H 8.941192 1.219362 -13.473035 0
M  V30 63 H 7.379715 0.489168 -13.525702 0
M  V30 END ATOM
M  V30 BEGIN BOND
M  V30 1 1 3 2
M  V30 2 1 7 5 CFG=3
M  V30 3 1 8 7
M  V30 4 1 10 6
M  V30 5 1 11 7
M  V30 6 1 14 12
M  V30 7 1 15 1
M  V30 8 1 15 12
M  V30 9 1 16 4
M  V30 10 1 16 13 CFG=1
M  V30 11 1 18 3
M  V30 12 1 19 7
M  V30 13 1 19 11
M  V30 14 1 20 4
M  V30 15 1 20 8
M  V30 16 1 20 10
M  V30 17 1 21 2
M  V30 18 1 21 14
M  V30 19 1 22 9
M  V30 20 2 22 17
M  V30 21 1 23 11
M  V30 22 1 23 12
M  V30 23 1 24 9
M  V30 24 1 25 1
M  V30 25 1 25 2
M  V30 26 1 26 6
M  V30 27 1 26 9
M  V30 28 1 26 16
M  V30 29 1 27 16
M  V30 30 1 27 17
M  V30 31 1 28 1
M  V30 32 1 29 1
M  V30 33 1 2 30 CFG=3
M  V30 34 1 31 4
M  V30 35 1 32 4
M  V30 36 1 33 5
M  V30 37 1 9 34 CFG=3
M  V30 38 1 35 10
M  V30 39 1 36 10
M  V30 40 1 11 37 CFG=3
M  V30 41 1 12 38 CFG=3
M  V30 42 1 39 13
M  V30 43 1 40 13
M  V30 44 1 41 13
M  V30 45 1 42 14
M  V30 46 1 43 14
M  V30 47 1 44 15
M  V30 48 1 45 15
M  V30 49 1 46 17
M  V30 50 1 47 18
M  V30 51 1 48 18
M  V30 52 1 49 18
M  V30 53 1 20 50 CFG=1
M  V30 54 1 51 21
M  V30 55 1 52 21
M  V30 56 1 53 22
M  V30 57 1 54 23
M  V30 58 1 55 23
M  V30 59 1 56 24
M  V30 60 1 57 24
M  V30 61 1 58 24
M  V30 62 1 59 25
M  V30 63 1 60 25
M  V30 64 1 26 61 CFG=3
M  V30 65 1 62 27
M  V30 66 1 63 27
M  V30 END BOND
M  V30 END CTAB
M  END
>  <i_epik_Tot_Q>  (1) 
0

>  <i_epik_Tot_abs_Q>  (1) 
0

>  <i_i_glide_confnum>  (1) 
324

>  <i_i_glide_lignum>  (1) 
112

>  <i_i_glide_posenum>  (1) 
373

>  <i_i_glide_rotatable_bonds>  (1) 
6

>  <i_lp_mmshare_version>  (1) 
72125

>  <i_m_source_file_index>  (1) 
46

>  <i_f3d_flags>  (1) 
0

>  <num_sample>  (1) 
50

>  <b_lp_Chiralities_Consistent>  (1) 
1

>  <r_epik_Charging_Adjusted_Penalty>  (1) 
0

>  <r_epik_Ionization_Penalty>  (1) 
0.00010055018107768494

>  <r_epik_Ionization_Penalty_Charging>  (1) 
0

>  <r_epik_Ionization_Penalty_Neutral>  (1) 
0.00010055018107768494

>  <r_epik_State_Penalty>  (1) 
-0

>  <r_glide_ring_energy>  (1) 
0.68864525180136349

>  <r_i_docking_score>  (1) 
-6.3224115487010959

>  <r_i_glide_ecoul>  (1) 
-8.8740958079928554

>  <r_i_glide_eff_state_penalty>  (1) 
-0

>  <r_i_glide_einternal>  (1) 
17.267349902028361

>  <r_i_glide_emodel>  (1) 
-24.356545848154106

>  <r_i_glide_emodel_strain>  (1) 
2.9973241796890733

>  <r_i_glide_energy>  (1) 
-30.233398737668633

>  <r_i_glide_erotb>  (1) 
0.53594258102178693

>  <r_i_glide_esite>  (1) 
-0.094088183765855843

>  <r_i_glide_evdw>  (1) 
-21.359302929675778

>  <r_i_glide_gscore>  (1) 
-6.3224115487010959

>  <r_i_glide_gscore_strain>  (1) 
0

>  <r_i_glide_hbond>  (1) 
-0.15501098383197287

>  <r_i_glide_ligand_efficiency>  (1) 
-0.23416339069263317

>  <r_i_glide_ligand_efficiency_ln>  (1) 
-1.4717531754369755

>  <r_i_glide_ligand_efficiency_sa>  (1) 
-0.70249017207789966

>  <r_i_glide_lipo>  (1) 
-2.618153849599532

>  <r_i_glide_metal>  (1) 
-0

>  <r_i_glide_rewards>  (1) 
-1.5920215948428043

>  <r_lp_Energy>  (1) 
38.981271

>  <r_lp_tautomer_probability>  (1) 
1

>  <s_epik_cmdline>  (1) 
J2VwaWtfcHl0aG9uJywgJy1waHQnLCAnMS4wJywgJy1waCcsICc3LjQnLCAnLXRuJywgJzgnLCAnLW1hJywgJzUwMCcsICctaW1hZScsICc8aW5maWxlLm1hZT4nLCAnLW9tYWUnLCAnPG91dGZpbGUubWFlPic=

>  <s_epik_input>  (1) 
W0NIM11PW0NAQEhdMVtDSDJdW0NIMl1bQ0BIXShbQ0gyXVtDSDJdW0NIMl0xKVtDSDJdW0NIXShPMilbQ0BdMihbT0hdKU9bQ0BIXShbQ0gyXTMpW0NIMl1PW0NASF0oW0NAXTM0W0NIM10pW0NAQEhdKFtDSDNdKVtDSF09W0NIXVtDSDJdNA==

>  <s_glide_docking_method>  (1) 
confgen

>  <s_i_glide_gridfile>  (1) 
gpcr_drd2_6luq_protein_autoprepared_prepared

>  <s_lp_Force_Field>  (1) 
S-OPLS

>  <s_lp_Variant>  (1) 
DiffSBDD_45_num_sample_50-1

>  <s_m_source_file>  (1) 
generated__ligand_DiffSBDD_2026-05-06_prepared.sdf

>  <GenAI_Model>  (1) 
DiffSBDD

>  <Protein>  (1) 
generic_title2

$$$$
DiffSBDD_29_num_sample_50
     RDKit          3D

  0  0  0  0  0  0  0  0  0  0999 V3000
M  V30 BEGIN CTAB
M  V30 COUNTS 64 67 0 0 1
M  V30 BEGIN ATOM
M  V30 1 C 11.434838 7.522894 -5.531102 0
M  V30 2 O 8.023126 4.303693 -11.640458 0
M  V30 3 C 8.012656 4.162627 -15.283688 0
M  V30 4 C 11.213268 6.075795 -5.761080 0
M  V30 5 O 7.288887 1.640012 -12.692681 0
M  V30 6 N 9.034841 6.569217 -8.949433 0 CFG=1 CHG=1
M  V30 7 C 8.150850 3.044897 -14.254229 0
M  V30 8 C 7.424405 6.203519 -13.774619 0
M  V30 9 C 5.533364 6.348832 -12.185035 0
M  V30 10 C 11.849118 9.486564 -4.254486 0
M  V30 11 C 9.384827 6.041697 -7.613572 0
M  V30 12 C 9.451385 7.971338 -9.197206 0
M  V30 13 C 6.246687 0.815382 -12.206547 0
M  V30 14 C 6.796138 4.073558 -12.323521 0 CFG=1
M  V30 15 C 11.438770 8.268433 -6.639750 0
M  V30 16 C 10.941979 8.139046 -9.015983 0
M  V30 17 C 10.895568 6.170342 -7.351858 0 CFG=1
M  V30 18 C 6.327926 5.368737 -13.065233 0 CFG=2
M  V30 19 C 11.698451 8.097449 -4.291664 0
M  V30 20 C 7.904058 4.905201 -10.362314 0
M  V30 21 N 11.581867 9.605126 -6.688356 0
M  V30 22 C 6.971156 2.884516 -13.310266 0 CFG=2
M  V30 23 C 8.435112 5.505223 -14.697598 0
M  V30 24 N 11.355251 7.518387 -7.767062 0
M  V30 25 C 11.754603 10.201007 -5.479493 0
M  V30 26 N 11.946957 6.635381 -2.140109 0
M  V30 27 C 9.220873 5.619855 -10.065794 0
M  V30 28 C 11.834838 7.284465 -3.087945 0
M  V30 29 C 5.187416 0.456087 -13.254551 0
M  V30 30 H 7.011070 4.201915 -15.713599 0
M  V30 31 H 8.689767 3.936328 -16.108914 0
M  V30 32 H 12.109725 5.496289 -5.537475 0
M  V30 33 H 10.363102 5.769306 -5.157084 0
M  V30 34 H 8.281588 2.105278 -14.794036 0
M  V30 35 H 9.034836 3.197949 -13.632013 0
M  V30 36 H 6.917357 6.967079 -14.366008 0
M  V30 37 H 7.993139 6.759303 -13.027667 0
M  V30 38 H 6.170004 6.974520 -11.562202 0
M  V30 39 H 5.015080 7.059908 -12.821820 0
M  V30 40 H 4.816159 5.845671 -11.536576 0
M  V30 41 H 12.028346 10.001185 -3.322201 0
M  V30 42 H 9.047491 5.011304 -7.498966 0
M  V30 43 H 8.825889 6.627973 -6.882805 0
M  V30 44 H 8.958540 8.615327 -8.468202 0
M  V30 45 H 9.124644 8.310794 -10.182180 0
M  V30 46 H 6.721239 -0.109889 -11.884153 0
M  V30 47 H 5.834854 1.267099 -11.309316 0
M  V30 48 H 6.032048 3.769175 -11.605233 0
M  V30 49 H 11.225070 9.189956 -9.086092 0
M  V30 50 H 11.467766 7.631809 -9.825262 0
M  V30 51 H 11.432952 5.401162 -7.891665 0
M  V30 52 H 5.619876 5.040786 -13.827458 0
M  V30 53 H 7.673811 4.169331 -9.596526 0
M  V30 54 H 7.092012 5.617486 -10.309536 0
M  V30 55 H 6.075259 2.786472 -13.917401 0
M  V30 56 H 8.651995 6.169291 -15.529226 0
M  V30 57 H 9.383373 5.384122 -14.170558 0
M  V30 58 H 11.834947 11.276105 -5.491871 0
M  V30 59 H 9.548487 6.151822 -10.960245 0
M  V30 60 H 9.980519 4.878980 -9.830626 0
M  V30 61 H 4.549773 -0.338849 -12.876897 0
M  V30 62 H 4.540437 1.297935 -13.491784 0
M  V30 63 H 5.649154 0.101466 -14.175835 0
M  V30 64 H 8.024992 6.738400 -8.943462 0
M  V30 END ATOM
M  V30 BEGIN BOND
M  V30 1 1 4 1
M  V30 2 1 7 3
M  V30 3 1 11 6
M  V30 4 1 12 6
M  V30 5 1 13 5
M  V30 6 1 14 2
M  V30 7 1 15 1
M  V30 8 1 16 12
M  V30 9 1 17 4
M  V30 10 1 17 11
M  V30 11 1 18 8
M  V30 12 1 18 9
M  V30 13 1 18 14
M  V30 14 2 19 1
M  V30 15 1 19 10
M  V30 16 1 20 2
M  V30 17 2 21 15
M  V30 18 1 22 5
M  V30 19 1 22 7
M  V30 20 1 22 14
M  V30 21 1 23 3
M  V30 22 1 23 8
M  V30 23 1 24 15
M  V30 24 1 24 16
M  V30 25 1 24 17
M  V30 26 2 25 10
M  V30 27 1 25 21
M  V30 28 1 27 6
M  V30 29 1 27 20
M  V30 30 1 28 19
M  V30 31 3 28 26
M  V30 32 1 29 13
M  V30 33 1 30 3
M  V30 34 1 31 3
M  V30 35 1 32 4
M  V30 36 1 33 4
M  V30 37 1 34 7
M  V30 38 1 35 7
M  V30 39 1 36 8
M  V30 40 1 37 8
M  V30 41 1 38 9
M  V30 42 1 39 9
M  V30 43 1 40 9
M  V30 44 1 41 10
M  V30 45 1 42 11
M  V30 46 1 43 11
M  V30 47 1 44 12
M  V30 48 1 45 12
M  V30 49 1 46 13
M  V30 50 1 47 13
M  V30 51 1 14 48 CFG=1
M  V30 52 1 49 16
M  V30 53 1 50 16
M  V30 54 1 17 51 CFG=3
M  V30 55 1 18 52 CFG=3
M  V30 56 1 53 20
M  V30 57 1 54 20
M  V30 58 1 22 55 CFG=3
M  V30 59 1 56 23
M  V30 60 1 57 23
M  V30 61 1 58 25
M  V30 62 1 59 27
M  V30 63 1 60 27
M  V30 64 1 61 29
M  V30 65 1 62 29
M  V30 66 1 63 29
M  V30 67 1 6 64 CFG=1
M  V30 END BOND
M  V30 END CTAB
M  END
>  <i_epik_Tot_Q>  (1) 
1

>  <i_epik_Tot_abs_Q>  (1) 
1

>  <i_i_glide_confnum>  (1) 
20

>  <i_i_glide_lignum>  (1) 
76

>  <i_i_glide_posenum>  (1) 
189

>  <i_i_glide_rotatable_bonds>  (1) 
6

>  <i_lp_mmshare_version>  (1) 
72125

>  <i_m_source_file_index>  (1) 
30

>  <i_f3d_flags>  (1) 
0

>  <num_sample>  (1) 
50

>  <b_lp_Chiralities_Consistent>  (1) 
1

>  <r_epik_Charging_Adjusted_Penalty>  (1) 
1.0026227849201053

>  <r_epik_Ionization_Penalty>  (1) 
0.50131159217577048

>  <r_epik_Ionization_Penalty_Charging>  (1) 
0.50131139246005263

>  <r_epik_Ionization_Penalty_Neutral>  (1) 
1.9971571790720627e-07

>  <r_epik_State_Penalty>  (1) 
0.50131139246005263

>  <r_glide_ring_energy>  (1) 
0.21629496332687739

>  <r_i_docking_score>  (1) 
-6.3116839060112992

>  <r_i_glide_ecoul>  (1) 
-6.2775370018853298

>  <r_i_glide_eff_state_penalty>  (1) 
0.50131139246005263

>  <r_i_glide_einternal>  (1) 
2.7075311213397324

>  <r_i_glide_emodel>  (1) 
-44.360422042796301

>  <r_i_glide_emodel_strain>  (1) 
0.80481778534370108

>  <r_i_glide_energy>  (1) 
-35.534105839074343

>  <r_i_glide_erotb>  (1) 
0.42959825739445412

>  <r_i_glide_esite>  (1) 
-0.10000000000000001

>  <r_i_glide_evdw>  (1) 
-29.256568837189015

>  <r_i_glide_gscore>  (1) 
-6.8129952984713515

>  <r_i_glide_gscore_strain>  (1) 
0

>  <r_i_glide_hbond>  (1) 
-0.16982710776329632

>  <r_i_glide_ligand_efficiency>  (1) 
-0.21764427262107927

>  <r_i_glide_ligand_efficiency_ln>  (1) 
-1.4452155639822655

>  <r_i_glide_ligand_efficiency_sa>  (1) 
-0.66867216078789959

>  <r_i_glide_lipo>  (1) 
-2.5464951931710029

>  <r_i_glide_metal>  (1) 
-0

>  <r_i_glide_rewards>  (1) 
-2.0218122627892545

>  <r_lp_Energy>  (1) 
44.423873

>  <s_epik_cmdline>  (1) 
J2VwaWtfcHl0aG9uJywgJy1waHQnLCAnMS4wJywgJy1waCcsICc3LjQnLCAnLXRuJywgJzgnLCAnLW1hJywgJzUwMCcsICctaW1hZScsICc8aW5maWxlLm1hZT4nLCAnLW9tYWUnLCAnPG91dGZpbGUubWFlPic=

>  <s_epik_input>  (1) 
TiNDYzFbY0hdW2NIXW5jKGMxMilOM1tDQEhdKFtDSDJdMilbQ0gyXU4oW0NIMl1bQ0gyXTMpW0NIMl1bQ0gyXU9bQ0BIXTRbQ0BASF0oW0NIM10pW0NIMl1bQ0gyXVtDSDJdW0NIMl1bQ0BIXTRPW0NIMl1bQ0gzXQ==

>  <s_glide_docking_method>  (1) 
confgen

>  <s_i_glide_gridfile>  (1) 
gpcr_drd2_6luq_protein_autoprepared_prepared

>  <s_lp_Force_Field>  (1) 
S-OPLS

>  <s_lp_Variant>  (1) 
DiffSBDD_29_num_sample_50-6

>  <s_m_source_file>  (1) 
generated__ligand_DiffSBDD_2026-05-06_prepared.sdf

>  <GenAI_Model>  (1) 
DiffSBDD

>  <Protein>  (1) 
generic_title2

$$$$
DiffSBDD_15_num_sample_50
     RDKit          3D

  0  0  0  0  0  0  0  0  0  0999 V3000
M  V30 BEGIN CTAB
M  V30 COUNTS 104 108 0 0 1
M  V30 BEGIN ATOM
M  V30 1 N 11.471946 7.575099 -10.459477 0
M  V30 2 C 7.061872 5.934705 -15.768935 0
M  V30 3 C 8.273573 3.571047 -18.644318 0 CFG=1
M  V30 4 C 10.531680 2.517627 -18.134487 0
M  V30 5 O 10.029889 5.136691 -19.102640 0
M  V30 6 C 11.386921 7.702710 -6.005949 0 CFG=1
M  V30 7 C 13.502614 0.235567 -17.223323 0
M  V30 8 O 9.802988 8.920579 -7.258151 0
M  V30 9 C 11.691872 7.082618 -11.830888 0
M  V30 10 O 13.457246 8.569215 -10.342988 0
M  V30 11 C 5.662963 5.096258 -10.931313 0
M  V30 12 C 10.922345 5.622120 -20.087025 0
M  V30 13 C 10.187424 7.284664 -9.901731 0 CFG=1
M  V30 14 C 8.793130 1.153269 -19.176700 0
M  V30 15 O 7.829679 5.736113 -19.525174 0
M  V30 16 C 12.029756 8.845399 -8.373094 0 CFG=1
M  V30 17 C 9.667431 0.056232 -19.178642 0
M  V30 18 C 10.322549 6.904390 -8.383928 0 CFG=2
M  V30 19 F 7.148935 7.638101 -13.475188 0
M  V30 20 C 5.904460 7.228791 -13.223734 0
M  V30 21 C 6.029202 3.300426 -12.568480 0
M  V30 22 O 11.034789 9.371590 -4.232577 0
M  V30 23 C 13.341764 9.886346 -6.382510 0
M  V30 24 C 8.241441 6.040161 -11.064180 0
M  V30 25 C 11.813566 8.867347 -4.996331 0
M  V30 26 C 5.972625 5.269123 -14.904967 0
M  V30 27 O 13.316322 2.636698 -17.309417 0
M  V30 28 C 12.777955 1.555836 -17.553086 0
M  V30 29 O 9.079216 6.392213 -7.919510 0
M  V30 30 O 9.434125 8.456045 -10.036605 0
M  V30 31 C 13.371705 8.968401 -7.624049 0
M  V30 32 C 11.398993 1.420330 -18.126468 0
M  V30 33 C 12.379119 8.311717 -9.827106 0
M  V30 34 C 6.342343 4.785153 -12.273826 0
M  V30 35 C 10.474667 6.698184 -5.289282 0
M  V30 36 C 7.858455 4.918656 -12.052260 0
M  V30 37 C 13.217456 9.355940 -5.023202 0
M  V30 38 C 5.761805 5.704290 -13.422176 0 CFG=1
M  V30 39 C 8.776604 4.714277 -19.554625 0 CFG=2
M  V30 40 C 7.132505 5.322691 -17.194759 0 CFG=2
M  V30 41 C 10.916815 8.083344 -7.500465 0 CFG=1
M  V30 42 C 14.382008 -0.383719 -18.323018 0
M  V30 43 C 10.324117 6.672376 -12.272531 0
M  V30 44 C 9.220257 2.386836 -18.655153 0
M  V30 45 C 8.030597 4.081195 -17.208772 0
M  V30 46 C 7.699468 6.307477 -18.228124 0
M  V30 47 C 10.965134 0.190376 -18.652744 0
M  V30 48 C 9.719663 6.232848 -10.935799 0 CFG=1
M  V30 49 H 6.832263 6.997684 -15.852087 0
M  V30 50 H 8.038484 5.872772 -15.282168 0
M  V30 51 H 7.314419 3.246107 -19.052898 0
M  V30 52 H 10.862129 3.457669 -17.728691 0
M  V30 53 H 12.234600 7.062861 -6.175233 0
M  V30 54 H 14.124825 0.433016 -16.353202 0
M  V30 55 H 12.759816 -0.491412 -16.896914 0
M  V30 56 H 10.023929 9.534484 -6.576763 0
M  V30 57 H 12.237769 7.748288 -12.497656 0
M  V30 58 H 12.242207 6.168227 -11.892663 0
M  V30 59 H 4.635303 4.877355 -11.004800 0
M  V30 60 H 6.064885 4.475965 -10.132163 0
M  V30 61 H 5.724739 6.133397 -10.610229 0
M  V30 62 H 11.830817 5.950450 -19.579625 0
M  V30 63 H 11.199287 4.829909 -20.785084 0
M  V30 64 H 10.510700 6.468140 -20.638810 0
M  V30 65 H 7.794700 1.047991 -19.575721 0
M  V30 66 H 11.654253 9.854309 -8.564734 0
M  V30 67 H 9.343523 -0.893800 -19.581920 0
M  V30 68 H 11.006560 6.059904 -8.312048 0
M  V30 69 H 5.241059 7.768715 -13.900016 0
M  V30 70 H 5.644784 7.557176 -12.216544 0
M  V30 71 H 5.113294 3.181024 -13.140764 0
M  V30 72 H 6.831895 2.827161 -13.131127 0
M  V30 73 H 5.891722 2.726944 -11.651806 0
M  V30 74 H 14.235143 10.425139 -6.329187 0
M  V30 75 H 12.567493 10.652421 -6.515279 0
M  V30 76 H 7.883943 5.786677 -10.069601 0
M  V30 77 H 7.777562 6.979235 -11.340713 0
M  V30 78 H 6.094974 4.193677 -14.965300 0
M  V30 79 H 5.035599 5.488755 -15.414876 0
M  V30 80 H 8.415441 7.073453 -7.983459 0
M  V30 81 H 8.501905 8.234437 -9.891665 0
M  V30 82 H 13.652620 7.940940 -7.492325 0
M  V30 83 H 14.181742 9.365509 -8.229309 0
M  V30 84 H 10.826928 6.423463 -4.290768 0
M  V30 85 H 9.449578 7.049970 -5.228102 0
M  V30 86 H 10.463405 5.769303 -5.860864 0
M  V30 87 H 8.342017 5.023516 -13.023506 0
M  V30 88 H 8.248424 3.991024 -11.625351 0
M  V30 89 H 13.946617 8.619069 -4.690748 0
M  V30 90 H 13.314667 10.161483 -4.295334 0
M  V30 91 H 4.694024 5.543887 -13.319014 0
M  V30 92 H 8.853092 4.346134 -20.578726 0
M  V30 93 H 6.132470 5.053455 -17.533580 0
M  V30 94 H 14.907481 -1.259300 -17.927718 0
M  V30 95 H 13.799160 -0.746691 -19.167810 0
M  V30 96 H 15.134280 0.319894 -18.692597 0
M  V30 97 H 9.793183 7.525883 -12.684701 0
M  V30 98 H 10.355302 5.885841 -13.023625 0
M  V30 99 H 8.981525 4.322368 -16.731585 0
M  V30 100 H 7.583150 3.288057 -16.610953 0
M  V30 101 H 7.074313 7.196365 -18.307936 0
M  V30 102 H 8.692583 6.569317 -17.890305 0
M  V30 103 H 11.625650 -0.632269 -18.661252 0
M  V30 104 H 10.128286 5.264142 -10.658112 0
M  V30 END ATOM
M  V30 BEGIN BOND
M  V30 1 1 9 1
M  V30 2 1 12 5
M  V30 3 1 13 1
M  V30 4 1 17 14
M  V30 5 1 18 13
M  V30 6 1 20 19
M  V30 7 1 25 6
M  V30 8 2 25 22
M  V30 9 1 26 2
M  V30 10 1 28 7
M  V30 11 2 28 27
M  V30 12 1 29 18
M  V30 13 1 13 30 CFG=1
M  V30 14 1 31 16
M  V30 15 1 31 23
M  V30 16 2 32 4
M  V30 17 1 32 28
M  V30 18 1 33 1
M  V30 19 2 33 10
M  V30 20 1 33 16
M  V30 21 1 34 11
M  V30 22 1 34 21
M  V30 23 1 35 6
M  V30 24 1 36 24
M  V30 25 1 36 34
M  V30 26 1 37 23
M  V30 27 1 37 25
M  V30 28 1 38 20
M  V30 29 1 38 26
M  V30 30 1 38 34
M  V30 31 1 39 3
M  V30 32 1 39 5
M  V30 33 1 39 15
M  V30 34 1 40 2
M  V30 35 1 41 6
M  V30 36 1 41 8 CFG=1
M  V30 37 1 41 16
M  V30 38 1 41 18
M  V30 39 1 42 7
M  V30 40 1 43 9
M  V30 41 1 44 3
M  V30 42 1 44 4
M  V30 43 2 44 14
M  V30 44 1 45 3
M  V30 45 1 45 40
M  V30 46 1 46 15
M  V30 47 1 46 40
M  V30 48 2 47 17
M  V30 49 1 47 32
M  V30 50 1 48 13
M  V30 51 1 48 24
M  V30 52 1 48 43
M  V30 53 1 49 2
M  V30 54 1 50 2
M  V30 55 1 3 51 CFG=3
M  V30 56 1 52 4
M  V30 57 1 6 53 CFG=3
M  V30 58 1 54 7
M  V30 59 1 55 7
M  V30 60 1 56 8
M  V30 61 1 57 9
M  V30 62 1 58 9
M  V30 63 1 59 11
M  V30 64 1 60 11
M  V30 65 1 61 11
M  V30 66 1 62 12
M  V30 67 1 63 12
M  V30 68 1 64 12
M  V30 69 1 65 14
M  V30 70 1 16 66 CFG=3
M  V30 71 1 67 17
M  V30 72 1 18 68 CFG=3
M  V30 73 1 69 20
M  V30 74 1 70 20
M  V30 75 1 71 21
M  V30 76 1 72 21
M  V30 77 1 73 21
M  V30 78 1 74 23
M  V30 79 1 75 23
M  V30 80 1 76 24
M  V30 81 1 77 24
M  V30 82 1 78 26
M  V30 83 1 79 26
M  V30 84 1 80 29
M  V30 85 1 81 30
M  V30 86 1 82 31
M  V30 87 1 83 31
M  V30 88 1 84 35
M  V30 89 1 85 35
M  V30 90 1 86 35
M  V30 91 1 87 36
M  V30 92 1 88 36
M  V30 93 1 89 37
M  V30 94 1 90 37
M  V30 95 1 38 91 CFG=1
M  V30 96 1 39 92 CFG=3
M  V30 97 1 40 93 CFG=3
M  V30 98 1 94 42
M  V30 99 1 95 42
M  V30 100 1 96 42
M  V30 101 1 97 43
M  V30 102 1 98 43
M  V30 103 1 99 45
M  V30 104 1 100 45
M  V30 105 1 101 46
M  V30 106 1 102 46
M  V30 107 1 103 47
M  V30 108 1 48 104 CFG=1
M  V30 END BOND
M  V30 END CTAB
M  END
>  <i_epik_Tot_Q>  (1) 
0

>  <i_epik_Tot_abs_Q>  (1) 
0

>  <i_i_glide_confnum>  (1) 
366

>  <i_i_glide_lignum>  (1) 
52

>  <i_i_glide_posenum>  (1) 
255

>  <i_i_glide_rotatable_bonds>  (1) 
15

>  <i_lp_mmshare_version>  (1) 
72125

>  <i_m_source_file_index>  (1) 
16

>  <i_f3d_flags>  (1) 
0

>  <num_sample>  (1) 
50

>  <b_lp_Chiralities_Consistent>  (1) 
1

>  <r_epik_Charging_Adjusted_Penalty>  (1) 
0

>  <r_epik_Ionization_Penalty>  (1) 
3.3580720903009909e-06

>  <r_epik_Ionization_Penalty_Charging>  (1) 
0

>  <r_epik_Ionization_Penalty_Neutral>  (1) 
3.3580720903009909e-06

>  <r_epik_State_Penalty>  (1) 
-0

>  <r_glide_ring_energy>  (1) 
0

>  <r_i_docking_score>  (1) 
-6.3030904256882314

>  <r_i_glide_ecoul>  (1) 
-6.4328629254275072

>  <r_i_glide_eff_state_penalty>  (1) 
-0

>  <r_i_glide_einternal>  (1) 
49.100886174753541

>  <r_i_glide_emodel>  (1) 
6.1616665630579206

>  <r_i_glide_emodel_strain>  (1) 
2.9703162109500028

>  <r_i_glide_energy>  (1) 
-13.102809303091529

>  <r_i_glide_erotb>  (1) 
0.25945655678467749

>  <r_i_glide_esite>  (1) 
-0.065082302303201792

>  <r_i_glide_evdw>  (1) 
-6.6699463776640231

>  <r_i_glide_gscore>  (1) 
-6.3030904256882314

>  <r_i_glide_gscore_strain>  (1) 
0

>  <r_i_glide_hbond>  (1) 
-0.28413069976090582

>  <r_i_glide_ligand_efficiency>  (1) 
-0.13131438386850483

>  <r_i_glide_ligand_efficiency_ln>  (1) 
-1.2939499748776464

>  <r_i_glide_ligand_efficiency_sa>  (1) 
-0.47722814212504933

>  <r_i_glide_lipo>  (1) 
-3.245780458429361

>  <r_i_glide_metal>  (1) 
-0

>  <r_i_glide_rewards>  (1) 
-1.6691267642821126

>  <r_lp_Energy>  (1) 
45.559846

>  <r_lp_tautomer_probability>  (1) 
1

>  <s_epik_Chemistry_Notes>  (1) 
This compound contains an acetal/aminal-like group ( X-CH(R)-Y where X, Y are N, S, or O) that may be acid/base labile, releasing an aldehyde.

>  <s_epik_cmdline>  (1) 
J2VwaWtfcHl0aG9uJywgJy1waHQnLCAnMS4wJywgJy1waCcsICc3LjQnLCAnLXRuJywgJzgnLCAnLW1hJywgJzUwMCcsICctaW1hZScsICc8aW5maWxlLm1hZT4nLCAnLW9tYWUnLCAnPG91dGZpbGUubWFlPic=

>  <s_epik_input>  (1) 
W0NIMl0xW0NIMl1bQ0gyXUMoPU8pW0NAQEhdKFtDSDNdKVtDQF0oW09IXSkoW0NASF0yW09IXSlbQ0BASF0xQyg9TylOKFtDQF0yM1tPSF0pW0NIMl1bQ0gyXVtDQEBIXTNbQ0gyXVtDSDJdQyhbQ0gzXSkoW0NIM10pW0NAQEhdKFtDSDJdRilbQ0gyXVtDSDJdW0NASF0oW0NIMl00KVtDSDJdT1tDQEBIXShPW0NIM10pW0NASF00YyhbY0hdW2NIXVtjSF01KVtjSF1jNUMoPU8pW0NIMl1bQ0gzXQ==

>  <s_glide_docking_method>  (1) 
confgen

>  <s_i_glide_gridfile>  (1) 
gpcr_drd2_6luq_protein_autoprepared_prepared

>  <s_lp_Force_Field>  (1) 
S-OPLS

>  <s_lp_Variant>  (1) 
DiffSBDD_15_num_sample_50-1

>  <s_m_source_file>  (1) 
generated__ligand_DiffSBDD_2026-05-06_prepared.sdf

>  <GenAI_Model>  (1) 
DiffSBDD

>  <Protein>  (1) 
generic_title2

$$$$
DiffSBDD_3_num_sample_50
     RDKit          3D

  0  0  0  0  0  0  0  0  0  0999 V3000
M  V30 BEGIN CTAB
M  V30 COUNTS 57 60 0 0 1
M  V30 BEGIN ATOM
M  V30 1 C 7.279702 4.152496 -18.829109 0
M  V30 2 C 11.034842 8.968343 -5.880364 0
M  V30 3 C 5.246377 5.317807 -19.588087 0
M  V30 4 F 4.327054 6.969187 -18.207683 0
M  V30 5 C 8.163592 7.263112 -12.349891 0
M  V30 6 C 7.405036 5.934761 -12.577990 0 CFG=2
M  V30 7 C 12.216745 9.032417 -6.639748 0
M  V30 8 C 9.834741 8.105400 -7.815364 0
M  V30 9 C 8.141703 4.940027 -15.519478 0 CFG=1
M  V30 10 C 6.453467 5.985206 -13.793941 0
M  V30 11 C 11.014406 7.769303 -10.031275 0
M  V30 12 C 7.184971 6.108208 -15.155918 0 CFG=2
M  V30 13 C 5.487349 6.521572 -18.690124 0 CFG=1
M  V30 14 C 6.234745 6.458467 -16.289697 0
M  V30 15 O 6.259497 4.163956 -11.220465 0
M  V30 16 C 7.522447 3.538299 -15.378149 0
M  V30 17 C 7.307883 4.582379 -10.325614 0
M  V30 18 C 6.462621 6.155999 -17.584186 0
M  V30 19 C 11.019354 8.171198 -8.583492 0
M  V30 20 C 9.845485 8.501626 -6.469659 0
M  V30 21 N 9.815546 7.436655 -10.533367 0
M  V30 22 C 6.047557 4.230778 -19.646533 0
M  V30 23 C 12.212484 8.628473 -7.986812 0
M  V30 24 O 7.974352 3.138886 -18.779283 0
M  V30 25 O 12.052254 7.769301 -10.691676 0
M  V30 26 C 9.630331 7.072333 -11.927123 0
M  V30 27 C 8.751258 5.166165 -16.916206 0
M  V30 28 C 7.706586 5.408352 -18.039496 0 CFG=1
M  V30 29 C 6.682494 5.527740 -11.309165 0 CFG=1
M  V30 30 H 11.040326 9.276862 -4.845369 0
M  V30 31 H 4.355716 5.349358 -20.198713 0
M  V30 32 H 8.165201 7.872155 -13.248287 0
M  V30 33 H 7.627818 7.890005 -11.635414 0
M  V30 34 H 8.121840 5.140967 -12.780421 0
M  V30 35 H 13.129891 9.390625 -6.187273 0
M  V30 36 H 8.916083 7.753628 -8.256177 0
M  V30 37 H 8.981622 4.968277 -14.824571 0
M  V30 38 H 5.775498 6.830489 -13.662923 0
M  V30 39 H 5.814659 5.101494 -13.803672 0
M  V30 40 H 7.813421 6.989546 -15.091653 0
M  V30 41 H 5.903471 7.331748 -19.289674 0
M  V30 42 H 5.334180 6.988948 -16.015702 0
M  V30 43 H 6.634842 3.428085 -15.994026 0
M  V30 44 H 8.230376 2.767269 -15.682768 0
M  V30 45 H 7.241660 3.323654 -14.347121 0
M  V30 46 H 8.289929 4.169373 -10.546877 0
M  V30 47 H 7.034958 4.660339 -9.277597 0
M  V30 48 H 8.936789 8.451352 -5.891640 0
M  V30 49 H 8.994222 7.466381 -9.935731 0
M  V30 50 H 5.804330 3.398164 -20.290002 0
M  V30 51 H 13.123279 8.682011 -8.566920 0
M  V30 52 H 9.988522 6.055439 -12.092406 0
M  V30 53 H 10.248941 7.717148 -12.552599 0
M  V30 54 H 9.403629 6.038266 -16.868852 0
M  V30 55 H 9.428920 4.347953 -17.162740 0
M  V30 56 H 8.191418 6.045889 -18.779124 0
M  V30 57 H 5.936332 6.227910 -10.939879 0
M  V30 END ATOM
M  V30 BEGIN BOND
M  V30 1 1 6 5
M  V30 2 2 7 2
M  V30 3 1 10 6
M  V30 4 1 12 9
M  V30 5 1 12 10
M  V30 6 1 13 3
M  V30 7 1 13 4
M  V30 8 1 14 12
M  V30 9 1 16 9
M  V30 10 1 17 15
M  V30 11 1 18 13
M  V30 12 2 18 14
M  V30 13 1 19 8
M  V30 14 1 19 11
M  V30 15 1 20 2
M  V30 16 2 20 8
M  V30 17 1 21 11
M  V30 18 1 22 1
M  V30 19 2 22 3
M  V30 20 1 23 7
M  V30 21 2 23 19
M  V30 22 2 24 1
M  V30 23 2 25 11
M  V30 24 1 26 5
M  V30 25 1 26 21
M  V30 26 1 27 9
M  V30 27 1 28 1
M  V30 28 1 28 18
M  V30 29 1 28 27
M  V30 30 1 29 6
M  V30 31 1 29 15
M  V30 32 1 29 17
M  V30 33 1 30 2
M  V30 34 1 31 3
M  V30 35 1 32 5
M  V30 36 1 33 5
M  V30 37 1 6 34 CFG=3
M  V30 38 1 35 7
M  V30 39 1 36 8
M  V30 40 1 9 37 CFG=1
M  V30 41 1 38 10
M  V30 42 1 39 10
M  V30 43 1 12 40 CFG=1
M  V30 44 1 13 41 CFG=3
M  V30 45 1 42 14
M  V30 46 1 43 16
M  V30 47 1 44 16
M  V30 48 1 45 16
M  V30 49 1 46 17
M  V30 50 1 47 17
M  V30 51 1 48 20
M  V30 52 1 49 21
M  V30 53 1 50 22
M  V30 54 1 51 23
M  V30 55 1 52 26
M  V30 56 1 53 26
M  V30 57 1 54 27
M  V30 58 1 55 27
M  V30 59 1 28 56 CFG=3
M  V30 60 1 29 57 CFG=1
M  V30 END BOND
M  V30 END CTAB
M  END
>  <i_epik_Tot_Q>  (1) 
0

>  <i_epik_Tot_abs_Q>  (1) 
0

>  <i_i_glide_confnum>  (1) 
12

>  <i_i_glide_lignum>  (1) 
11

>  <i_i_glide_posenum>  (1) 
204

>  <i_i_glide_rotatable_bonds>  (1) 
8

>  <i_lp_mmshare_version>  (1) 
72125

>  <i_m_source_file_index>  (1) 
4

>  <i_f3d_flags>  (1) 
0

>  <num_sample>  (1) 
50

>  <b_lp_Chiralities_Consistent>  (1) 
1

>  <r_epik_Charging_Adjusted_Penalty>  (1) 
0

>  <r_epik_Ionization_Penalty>  (1) 
1.5409479738535797e-07

>  <r_epik_Ionization_Penalty_Charging>  (1) 
0

>  <r_epik_Ionization_Penalty_Neutral>  (1) 
1.5409479738535797e-07

>  <r_epik_State_Penalty>  (1) 
-0

>  <r_glide_ring_energy>  (1) 
0

>  <r_i_docking_score>  (1) 
-6.2977074711918632

>  <r_i_glide_ecoul>  (1) 
-4.386965270417658

>  <r_i_glide_eff_state_penalty>  (1) 
-0

>  <r_i_glide_einternal>  (1) 
8.7345036157234404

>  <r_i_glide_emodel>  (1) 
-52.276349683177386

>  <r_i_glide_emodel_strain>  (1) 
0.16372496995312247

>  <r_i_glide_energy>  (1) 
-40.557553537288911

>  <r_i_glide_erotb>  (1) 
0.86725254217801073

>  <r_i_glide_esite>  (1) 
-0.087042872687803335

>  <r_i_glide_evdw>  (1) 
-36.170588266871249

>  <r_i_glide_gscore>  (1) 
-6.2977074711918632

>  <r_i_glide_gscore_strain>  (1) 
0

>  <r_i_glide_hbond>  (1) 
0

>  <r_i_glide_ligand_efficiency>  (1) 
-0.21716232659282286

>  <r_i_glide_ligand_efficiency_ln>  (1) 
-1.4420153148204222

>  <r_i_glide_ligand_efficiency_sa>  (1) 
-0.66719146989621492

>  <r_i_glide_lipo>  (1) 
-2.4597115979333153

>  <r_i_glide_metal>  (1) 
-0

>  <r_i_glide_rewards>  (1) 
-2.1516313388425439

>  <r_lp_Energy>  (1) 
36.521651999999996

>  <r_lp_tautomer_probability>  (1) 
1

>  <s_epik_cmdline>  (1) 
J2VwaWtfcHl0aG9uJywgJy1waHQnLCAnMS4wJywgJy1waCcsICc3LjQnLCAnLXRuJywgJzgnLCAnLW1hJywgJzUwMCcsICctaW1hZScsICc8aW5maWxlLm1hZT4nLCAnLW9tYWUnLCAnPG91dGZpbGUubWFlPic=

>  <s_epik_input>  (1) 
RltDQEBIXTFbQ0hdPVtDSF1DKD1PKVtDQEBIXShDMTIpW0NIMl1bQ0BIXShbQ0gzXSlbQ0BASF0oW0NIXT0yKVtDSDJdW0NAQEhdKFtDQEhdM09bQ0gyXTMpW0NIMl1bQ0gyXVtOSF1DKD1PKWM0W2NIXVtjSF1bY0hdW2NIXVtjSF00

>  <s_glide_docking_method>  (1) 
confgen

>  <s_i_glide_gridfile>  (1) 
gpcr_drd2_6luq_protein_autoprepared_prepared

>  <s_lp_Force_Field>  (1) 
S-OPLS

>  <s_lp_Variant>  (1) 
DiffSBDD_3_num_sample_50-2

>  <s_m_source_file>  (1) 
generated__ligand_DiffSBDD_2026-05-06_prepared.sdf

>  <GenAI_Model>  (1) 
DiffSBDD

>  <Protein>  (1) 
generic_title2

$$$$
DiffSBDD_3_num_sample_50
     RDKit          3D

  0  0  0  0  0  0  0  0  0  0999 V3000
M  V30 BEGIN CTAB
M  V30 COUNTS 57 60 0 0 1
M  V30 BEGIN ATOM
M  V30 1 C 6.299125 0.163863 -16.212879 0
M  V30 2 C 11.009887 9.111244 -5.864754 0
M  V30 3 C 6.457284 1.597089 -18.205235 0
M  V30 4 F 7.508946 3.681067 -17.965685 0
M  V30 5 C 8.784949 5.668071 -11.806974 0
M  V30 6 C 7.899774 5.546019 -13.062590 0 CFG=1
M  V30 7 C 9.852581 8.569312 -6.457269 0
M  V30 8 C 12.234830 8.765863 -7.943037 0
M  V30 9 C 7.506869 1.609655 -13.258932 0 CFG=1
M  V30 10 C 7.149145 4.183962 -13.048840 0
M  V30 11 C 11.117917 7.763123 -9.972171 0
M  V30 12 C 7.907162 3.032536 -13.751850 0 CFG=2
M  V30 13 C 7.633486 2.391988 -17.647285 0 CFG=1
M  V30 14 C 7.834804 3.197804 -15.270052 0
M  V30 15 O 5.825223 6.629661 -13.999622 0
M  V30 16 C 6.034471 1.437045 -12.884674 0
M  V30 17 C 5.580290 6.805364 -12.587578 0
M  V30 18 C 7.719731 2.176436 -16.143780 0
M  V30 19 C 11.075936 8.230394 -8.542293 0
M  V30 20 C 12.198300 9.211918 -6.608053 0
M  V30 21 N 9.946304 7.338877 -10.469204 0
M  V30 22 C 5.834872 0.590354 -17.550970 0
M  V30 23 C 9.881352 8.133607 -7.789907 0
M  V30 24 O 5.672399 -0.630691 -15.519777 0
M  V30 25 O 12.167334 7.773533 -10.614425 0
M  V30 26 C 9.795668 6.830755 -11.824981 0
M  V30 27 C 7.962240 0.499616 -14.212299 0
M  V30 28 C 7.636947 0.733509 -15.702214 0 CFG=1
M  V30 29 C 6.969036 6.754601 -13.152454 0 CFG=1
M  V30 30 H 10.984500 9.450063 -4.840017 0
M  V30 31 H 6.101628 1.890996 -19.182134 0
M  V30 32 H 8.119814 5.765791 -10.945940 0
M  V30 33 H 9.334242 4.739988 -11.642374 0
M  V30 34 H 8.540474 5.588309 -13.943323 0
M  V30 35 H 8.938296 8.492283 -5.891723 0
M  V30 36 H 13.152000 8.842966 -8.510330 0
M  V30 37 H 8.054288 1.438366 -12.331152 0
M  V30 38 H 6.169877 4.260718 -13.521656 0
M  V30 39 H 6.946800 3.926399 -12.009274 0
M  V30 40 H 8.958334 3.156976 -13.491656 0
M  V30 41 H 8.552965 2.045334 -18.119794 0
M  V30 42 H 7.881051 4.210376 -15.643382 0
M  V30 43 H 5.370229 1.769246 -13.678461 0
M  V30 44 H 5.794356 0.397171 -12.657742 0
M  V30 45 H 5.834842 2.008289 -11.982652 0
M  V30 46 H 5.183603 5.934374 -12.071262 0
M  V30 47 H 5.161132 7.770466 -12.311519 0
M  V30 48 H 13.085596 9.628010 -6.153537 0
M  V30 49 H 9.120679 7.369142 -9.883508 0
M  V30 50 H 4.985900 0.084907 -17.988081 0
M  V30 51 H 8.988316 7.722961 -8.231609 0
M  V30 52 H 10.736970 6.485600 -12.257460 0
M  V30 53 H 9.462779 7.663460 -12.441121 0
M  V30 54 H 9.034836 0.415781 -14.097689 0
M  V30 55 H 7.583172 -0.470186 -13.891620 0
M  V30 56 H 8.397972 0.193814 -16.266824 0
M  V30 57 H 7.466967 7.712859 -13.273533 0
M  V30 END ATOM
M  V30 BEGIN BOND
M  V30 1 1 6 5
M  V30 2 2 7 2
M  V30 3 1 10 6
M  V30 4 1 12 9
M  V30 5 1 12 10
M  V30 6 1 13 3
M  V30 7 1 13 4
M  V30 8 1 14 12
M  V30 9 1 16 9
M  V30 10 1 17 15
M  V30 11 1 18 13
M  V30 12 2 18 14
M  V30 13 1 19 8
M  V30 14 1 19 11
M  V30 15 1 20 2
M  V30 16 2 20 8
M  V30 17 1 21 11
M  V30 18 1 22 1
M  V30 19 2 22 3
M  V30 20 1 23 7
M  V30 21 2 23 19
M  V30 22 2 24 1
M  V30 23 2 25 11
M  V30 24 1 26 5
M  V30 25 1 26 21
M  V30 26 1 27 9
M  V30 27 1 28 1
M  V30 28 1 28 18
M  V30 29 1 28 27
M  V30 30 1 29 6
M  V30 31 1 29 15
M  V30 32 1 29 17
M  V30 33 1 30 2
M  V30 34 1 31 3
M  V30 35 1 32 5
M  V30 36 1 33 5
M  V30 37 1 6 34 CFG=3
M  V30 38 1 35 7
M  V30 39 1 36 8
M  V30 40 1 9 37 CFG=1
M  V30 41 1 38 10
M  V30 42 1 39 10
M  V30 43 1 12 40 CFG=1
M  V30 44 1 13 41 CFG=3
M  V30 45 1 42 14
M  V30 46 1 43 16
M  V30 47 1 44 16
M  V30 48 1 45 16
M  V30 49 1 46 17
M  V30 50 1 47 17
M  V30 51 1 48 20
M  V30 52 1 49 21
M  V30 53 1 50 22
M  V30 54 1 51 23
M  V30 55 1 52 26
M  V30 56 1 53 26
M  V30 57 1 54 27
M  V30 58 1 55 27
M  V30 59 1 28 56 CFG=3
M  V30 60 1 29 57 CFG=3
M  V30 END BOND
M  V30 END CTAB
M  END
>  <i_epik_Tot_Q>  (1) 
0

>  <i_epik_Tot_abs_Q>  (1) 
0

>  <i_i_glide_confnum>  (1) 
255

>  <i_i_glide_lignum>  (1) 
10

>  <i_i_glide_posenum>  (1) 
181

>  <i_i_glide_rotatable_bonds>  (1) 
8

>  <i_lp_mmshare_version>  (1) 
72125

>  <i_m_source_file_index>  (1) 
4

>  <i_f3d_flags>  (1) 
0

>  <num_sample>  (1) 
50

>  <b_lp_Chiralities_Consistent>  (1) 
1

>  <r_epik_Charging_Adjusted_Penalty>  (1) 
0

>  <r_epik_Ionization_Penalty>  (1) 
1.5409479738535797e-07

>  <r_epik_Ionization_Penalty_Charging>  (1) 
0

>  <r_epik_Ionization_Penalty_Neutral>  (1) 
1.5409479738535797e-07

>  <r_epik_State_Penalty>  (1) 
-0

>  <r_glide_ring_energy>  (1) 
0

>  <r_i_docking_score>  (1) 
-6.2483351748653373

>  <r_i_glide_ecoul>  (1) 
-4.5513234216651197

>  <r_i_glide_eff_state_penalty>  (1) 
-0

>  <r_i_glide_einternal>  (1) 
12.612809602870232

>  <r_i_glide_emodel>  (1) 
-49.146348410601995

>  <r_i_glide_emodel_strain>  (1) 
0.24090786382011942

>  <r_i_glide_energy>  (1) 
-41.692841951259275

>  <r_i_glide_erotb>  (1) 
0.86725254217801073

>  <r_i_glide_esite>  (1) 
-0.076373940038431093

>  <r_i_glide_evdw>  (1) 
-37.141518529594158

>  <r_i_glide_gscore>  (1) 
-6.2483351748653373

>  <r_i_glide_gscore_strain>  (1) 
0

>  <r_i_glide_hbond>  (1) 
0

>  <r_i_glide_ligand_efficiency>  (1) 
-0.21545983361604612

>  <r_i_glide_ligand_efficiency_ln>  (1) 
-1.4307103109350594

>  <r_i_glide_ligand_efficiency_sa>  (1) 
-0.66196087207805165

>  <r_i_glide_lipo>  (1) 
-2.583199779345541

>  <r_i_glide_metal>  (1) 
-0

>  <r_i_glide_rewards>  (1) 
-1.9162395579299001

>  <r_lp_Energy>  (1) 
34.697915000000002

>  <r_lp_tautomer_probability>  (1) 
1

>  <s_epik_cmdline>  (1) 
J2VwaWtfcHl0aG9uJywgJy1waHQnLCAnMS4wJywgJy1waCcsICc3LjQnLCAnLXRuJywgJzgnLCAnLW1hJywgJzUwMCcsICctaW1hZScsICc8aW5maWxlLm1hZT4nLCAnLW9tYWUnLCAnPG91dGZpbGUubWFlPic=

>  <s_epik_input>  (1) 
RltDQEBIXTFbQ0hdPVtDSF1DKD1PKVtDQEBIXShDMTIpW0NIMl1bQ0BIXShbQ0gzXSlbQ0BASF0oW0NIXT0yKVtDSDJdW0NAQEhdKFtDQEhdM09bQ0gyXTMpW0NIMl1bQ0gyXVtOSF1DKD1PKWM0W2NIXVtjSF1bY0hdW2NIXVtjSF00

>  <s_glide_docking_method>  (1) 
confgen

>  <s_i_glide_gridfile>  (1) 
gpcr_drd2_6luq_protein_autoprepared_prepared

>  <s_lp_Force_Field>  (1) 
S-OPLS

>  <s_lp_Variant>  (1) 
DiffSBDD_3_num_sample_50-1

>  <s_m_source_file>  (1) 
generated__ligand_DiffSBDD_2026-05-06_prepared.sdf

>  <GenAI_Model>  (1) 
DiffSBDD

>  <Protein>  (1) 
generic_title2

$$$$
DiffSBDD_17_num_sample_50
     RDKit          3D

  0  0  0  0  0  0  0  0  0  0999 V3000
M  V30 BEGIN CTAB
M  V30 COUNTS 58 60 0 0 1
M  V30 BEGIN ATOM
M  V30 1 C 9.887058 8.189025 -7.780563 0 CFG=2
M  V30 2 C 9.036320 5.286043 -18.976901 0 CFG=2
M  V30 3 C 9.121594 4.691637 -9.261947 0
M  V30 4 C 6.313836 5.787432 -14.211553 0
M  V30 5 N 9.132392 6.969495 -8.190691 0 CHG=1
M  V30 6 C 11.634801 7.375139 -4.407359 0
M  V30 7 C 8.428849 5.015904 -10.577572 0
M  V30 8 C 11.042196 8.550285 -8.748058 0
M  V30 9 C 8.290472 4.229093 -17.114013 0 CFG=2
M  V30 10 C 11.668874 8.915235 -4.413991 0
M  V30 11 C 11.153525 9.339915 -5.791625 0
M  V30 12 C 8.487726 5.741185 -12.876018 0
M  V30 13 C 7.546881 4.332836 -15.777990 0
M  V30 14 C 9.803075 3.986131 -16.938503 0
M  V30 15 N 6.364714 5.100806 -11.867199 0
M  V30 16 C 10.275007 8.171675 -6.274226 0
M  V30 17 C 11.036497 6.948723 -5.754382 0
M  V30 18 N 7.052478 5.539593 -15.452577 0
M  V30 19 O 7.424427 3.341453 -15.059972 0
M  V30 20 C 7.034733 4.847648 -10.718248 0
M  V30 21 C 9.948048 5.834385 -8.678437 0
M  V30 22 C 9.166590 5.474247 -11.681857 0
M  V30 23 C 7.092320 5.534059 -12.924758 0
M  V30 24 S 10.627699 4.692377 -18.381004 0
M  V30 25 C 9.168415 6.616815 -19.719639 0
M  V30 26 O 8.160050 5.428738 -17.874523 0
M  V30 27 H 9.149299 8.985077 -7.881251 0
M  V30 28 H 8.624045 4.535528 -19.654117 0
M  V30 29 H 8.395803 4.350130 -8.521510 0
M  V30 30 H 9.816784 3.868051 -9.450675 0
M  V30 31 H 5.407080 5.179684 -14.214196 0
M  V30 32 H 5.986593 6.826767 -14.208202 0
M  V30 33 H 8.475323 7.248471 -8.924937 0
M  V30 34 H 11.035042 6.971836 -3.589861 0
M  V30 35 H 12.633756 6.969010 -4.270000 0
M  V30 36 H 11.434745 9.553018 -8.580911 0
M  V30 37 H 11.887899 7.870082 -8.644363 0
M  V30 38 H 10.706851 8.522793 -9.785867 0
M  V30 39 H 7.849644 3.409038 -17.684041 0
M  V30 40 H 11.034832 9.333708 -3.631672 0
M  V30 41 H 12.675966 9.296444 -4.238297 0
M  V30 42 H 12.020292 9.465978 -6.439815 0
M  V30 43 H 10.634895 10.296581 -5.763379 0
M  V30 44 H 9.024166 6.088569 -13.744312 0
M  V30 45 H 10.187844 4.488936 -16.049603 0
M  V30 46 H 10.031629 2.923766 -16.848632 0
M  V30 47 H 9.341623 8.206592 -5.714676 0
M  V30 48 H 10.386621 6.081943 -5.639472 0
M  V30 49 H 11.834862 6.681393 -6.444629 0
M  V30 50 H 7.187396 6.312146 -16.088539 0
M  V30 51 H 6.442165 4.489488 -9.891709 0
M  V30 52 H 10.556265 5.435568 -7.870337 0
M  V30 53 H 10.634924 6.169654 -9.447612 0
M  V30 54 H 10.234660 5.612198 -11.615913 0
M  V30 55 H 8.193397 6.986549 -20.036518 0
M  V30 56 H 9.628666 7.376425 -19.091709 0
M  V30 57 H 9.787618 6.505761 -20.609783 0
M  V30 58 H 8.539346 6.672394 -7.427229 0
M  V30 END ATOM
M  V30 BEGIN BOND
M  V30 1 1 5 1
M  V30 2 1 7 3
M  V30 3 1 8 1
M  V30 4 1 10 6
M  V30 5 1 11 10
M  V30 6 1 13 9
M  V30 7 1 14 9
M  V30 8 1 16 1
M  V30 9 1 16 11
M  V30 10 1 17 6
M  V30 11 1 17 16
M  V30 12 1 18 4
M  V30 13 1 18 13
M  V30 14 2 19 13
M  V30 15 2 20 7
M  V30 16 1 20 15
M  V30 17 1 21 3
M  V30 18 1 21 5
M  V30 19 1 22 7
M  V30 20 2 22 12
M  V30 21 1 23 4
M  V30 22 1 23 12
M  V30 23 2 23 15
M  V30 24 1 24 2
M  V30 25 1 24 14
M  V30 26 1 25 2
M  V30 27 1 26 2
M  V30 28 1 26 9
M  V30 29 1 1 27 CFG=1
M  V30 30 1 2 28 CFG=3
M  V30 31 1 29 3
M  V30 32 1 30 3
M  V30 33 1 31 4
M  V30 34 1 32 4
M  V30 35 1 33 5
M  V30 36 1 34 6
M  V30 37 1 35 6
M  V30 38 1 36 8
M  V30 39 1 37 8
M  V30 40 1 38 8
M  V30 41 1 9 39 CFG=3
M  V30 42 1 40 10
M  V30 43 1 41 10
M  V30 44 1 42 11
M  V30 45 1 43 11
M  V30 46 1 44 12
M  V30 47 1 45 14
M  V30 48 1 46 14
M  V30 49 1 47 16
M  V30 50 1 48 17
M  V30 51 1 49 17
M  V30 52 1 50 18
M  V30 53 1 51 20
M  V30 54 1 52 21
M  V30 55 1 53 21
M  V30 56 1 54 22
M  V30 57 1 55 25
M  V30 58 1 56 25
M  V30 59 1 57 25
M  V30 60 1 58 5
M  V30 END BOND
M  V30 END CTAB
M  END
>  <i_epik_Tot_Q>  (1) 
1

>  <i_epik_Tot_abs_Q>  (1) 
1

>  <i_i_glide_confnum>  (1) 
380

>  <i_i_glide_lignum>  (1) 
53

>  <i_i_glide_posenum>  (1) 
347

>  <i_i_glide_rotatable_bonds>  (1) 
9

>  <i_lp_mmshare_version>  (1) 
72125

>  <i_m_source_file_index>  (1) 
18

>  <i_f3d_flags>  (1) 
0

>  <num_sample>  (1) 
50

>  <b_lp_Chiralities_Consistent>  (1) 
1

>  <r_epik_Charging_Adjusted_Penalty>  (1) 
0.0010304682105854765

>  <r_epik_Ionization_Penalty>  (1) 
0.0013061012703679969

>  <r_epik_Ionization_Penalty_Charging>  (1) 
0.0010304682105854765

>  <r_epik_Ionization_Penalty_Neutral>  (1) 
0.00027563305978252047

>  <r_epik_State_Penalty>  (1) 
-0

>  <r_glide_ring_energy>  (1) 
0

>  <r_i_docking_score>  (1) 
-6.231823984724608

>  <r_i_glide_ecoul>  (1) 
-4.3989342615169997

>  <r_i_glide_eff_state_penalty>  (1) 
-0

>  <r_i_glide_einternal>  (1) 
11.523894119646926

>  <r_i_glide_emodel>  (1) 
-45.656073046681918

>  <r_i_glide_emodel_strain>  (1) 
0.49134034517209102

>  <r_i_glide_energy>  (1) 
-36.722115006352347

>  <r_i_glide_erotb>  (1) 
0.75732285122839527

>  <r_i_glide_esite>  (1) 
-0.10000000000000001

>  <r_i_glide_evdw>  (1) 
-32.323180744835348

>  <r_i_glide_gscore>  (1) 
-6.231823984724608

>  <r_i_glide_gscore_strain>  (1) 
0

>  <r_i_glide_hbond>  (1) 
-0.20691912611946794

>  <r_i_glide_ligand_efficiency>  (1) 
-0.23968553787402339

>  <r_i_glide_ligand_efficiency_ln>  (1) 
-1.4635234145302436

>  <r_i_glide_ligand_efficiency_sa>  (1) 
-0.71006746360590034

>  <r_i_glide_lipo>  (1) 
-2.1787022308582009

>  <r_i_glide_metal>  (1) 
-0

>  <r_i_glide_rewards>  (1) 
-2.2275263025060159

>  <r_lp_Energy>  (1) 
26.862019999999998

>  <r_lp_tautomer_probability>  (1) 
1

>  <s_epik_Chemistry_Notes>  (1) 
This compound contains an acetal/aminal-like group ( X-CH(R)-Y where X, Y are N, S, or O) that may be acid/base labile, releasing an aldehyde.

>  <s_epik_cmdline>  (1) 
J2VwaWtfcHl0aG9uJywgJy1waHQnLCAnMS4wJywgJy1waCcsICc3LjQnLCAnLXRuJywgJzgnLCAnLW1hJywgJzUwMCcsICctaW1hZScsICc8aW5maWxlLm1hZT4nLCAnLW9tYWUnLCAnPG91dGZpbGUubWFlPic=

>  <s_epik_input>  (1) 
W0NIMl0xW0NIMl1bQ0gyXVtDSDJdW0NIXTFbQ0BASF0oW0NIM10pW05IXVtDSDJdW0NIMl1jMltjSF1uYyhbY0hdW2NIXTIpW0NIMl1bTkhdQyg9TylbQ0BASF0oTzMpW0NIMl1TW0NAQEhdM1tDSDNd

>  <s_glide_docking_method>  (1) 
confgen

>  <s_i_glide_gridfile>  (1) 
gpcr_drd2_6luq_protein_autoprepared_prepared

>  <s_lp_Force_Field>  (1) 
S-OPLS

>  <s_lp_Variant>  (1) 
DiffSBDD_17_num_sample_50-1

>  <s_m_source_file>  (1) 
generated__ligand_DiffSBDD_2026-05-06_prepared.sdf

>  <GenAI_Model>  (1) 
DiffSBDD

>  <Protein>  (1) 
generic_title2

$$$$
DiffSBDD_20_num_sample_50
     RDKit          3D

  0  0  0  0  0  0  0  0  0  0999 V3000
M  V30 BEGIN CTAB
M  V30 COUNTS 66 71 0 0 1
M  V30 BEGIN ATOM
M  V30 1 F 12.357876 8.370872 -2.032296 0
M  V30 2 F 11.568021 6.803555 -3.283598 0
M  V30 3 F 12.935847 9.847320 -4.161964 0
M  V30 4 C 7.984014 7.389081 -12.353713 0 CFG=1
M  V30 5 C 9.004402 3.189589 -16.436784 0
M  V30 6 C 10.238973 6.470744 -9.512070 0
M  V30 7 C 7.883079 5.153395 -18.935892 0
M  V30 8 C 7.563993 6.774894 -13.624428 0 CFG=1
M  V30 9 N 10.952989 7.789056 -6.172948 0
M  V30 10 C 9.583051 6.228717 -6.881770 0
M  V30 11 C 10.237699 5.633165 -18.079178 0
M  V30 12 C 8.149178 5.442109 -14.049267 0
M  V30 13 C 7.412697 5.951746 -19.904832 0
M  V30 14 N 9.034839 6.930488 -10.192459 0 CHG=1
M  V30 15 C 10.303484 6.806937 -8.055043 0
M  V30 16 C 8.631335 8.650984 -11.936119 0
M  V30 17 F 10.836832 9.718012 -3.821970 0
M  V30 18 C 12.402865 9.266571 -6.705716 0
M  V30 19 C 7.177248 4.482910 -17.794563 0 CFG=2
M  V30 20 C 6.621133 6.835029 -12.364569 0
M  V30 21 C 9.269281 4.613921 -18.693549 0 CFG=1
M  V30 22 C 11.045578 7.714518 -7.366690 0
M  V30 23 C 6.933875 5.399497 -16.599673 0
M  V30 24 C 11.892258 9.030061 -4.245480 0
M  V30 25 C 11.966672 8.602917 -8.004819 0
M  V30 26 C 9.238976 7.253814 -11.603133 0 CFG=2
M  V30 27 N 11.723288 8.678017 -5.664605 0
M  V30 28 C 8.466572 3.622865 -17.793572 0 CFG=1
M  V30 29 C 10.060980 6.900596 -5.698205 0
M  V30 30 S 6.953511 4.490890 -15.018473 0 CHG=1
M  V30 31 C 7.868331 2.967325 -15.422977 0
M  V30 32 C 12.316921 7.896941 -3.278067 0
M  V30 33 C 10.775358 6.656590 -19.086265 0
M  V30 34 H 9.563588 2.261588 -16.559633 0
M  V30 35 H 9.708012 3.921568 -16.041778 0
M  V30 36 H 10.232322 5.387035 -9.608440 0
M  V30 37 H 11.127781 6.897513 -9.979668 0
M  V30 38 H 7.376362 7.473644 -14.438127 0
M  V30 39 H 8.843995 5.442881 -6.898163 0
M  V30 40 H 9.787046 6.163951 -17.244508 0
M  V30 41 H 11.088835 5.103584 -17.651108 0
M  V30 42 H 8.412912 4.861867 -13.162704 0
M  V30 43 H 9.066872 5.609500 -14.611058 0
M  V30 44 H 6.368718 6.225985 -19.941720 0
M  V30 45 H 8.064689 6.335714 -20.674697 0
M  V30 46 H 8.699861 7.769074 -9.733594 0
M  V30 47 H 9.104947 9.260892 -12.690395 0
M  V30 48 H 8.180632 9.202870 -11.113746 0
M  V30 49 H 13.118019 10.048729 -6.503600 0
M  V30 50 H 6.310979 3.875188 -18.054680 0
M  V30 51 H 5.805541 7.554153 -12.363342 0
M  V30 52 H 6.452318 5.936209 -11.778153 0
M  V30 53 H 9.724237 4.075211 -19.526217 0
M  V30 54 H 5.985387 5.927937 -16.696413 0
M  V30 55 H 7.699095 6.169675 -16.549303 0
M  V30 56 H 12.252886 8.749893 -9.036318 0
M  V30 57 H 10.130531 6.875179 -12.103165 0
M  V30 58 H 8.254107 2.727436 -18.385037 0
M  V30 59 H 9.838944 6.812364 -4.654895 0
M  V30 60 H 7.154424 2.256188 -15.838193 0
M  V30 61 H 8.230652 2.520075 -14.497470 0
M  V30 62 H 13.328197 7.555599 -3.498105 0
M  V30 63 H 11.502764 7.314991 -18.610353 0
M  V30 64 H 11.271739 6.164467 -19.922423 0
M  V30 65 H 9.976225 7.285677 -19.478276 0
M  V30 66 H 8.269020 6.282564 -10.073918 0
M  V30 END ATOM
M  V30 BEGIN BOND
M  V30 1 1 8 4
M  V30 2 1 12 8
M  V30 3 2 13 7
M  V30 4 1 14 6
M  V30 5 1 15 6
M  V30 6 1 15 10
M  V30 7 1 4 16 CFG=3
M  V30 8 1 19 7
M  V30 9 1 20 4
M  V30 10 1 20 8
M  V30 11 1 21 7
M  V30 12 1 21 11
M  V30 13 1 22 9
M  V30 14 2 22 15
M  V30 15 1 23 19
M  V30 16 1 24 3
M  V30 17 1 24 17
M  V30 18 2 25 18
M  V30 19 1 25 22
M  V30 20 1 26 4
M  V30 21 1 26 14
M  V30 22 1 26 16
M  V30 23 1 27 9
M  V30 24 1 27 18
M  V30 25 1 27 24
M  V30 26 1 28 5
M  V30 27 1 28 19
M  V30 28 1 28 21
M  V30 29 1 29 9
M  V30 30 2 29 10
M  V30 31 1 30 12 CFG=1
M  V30 32 1 30 23
M  V30 33 1 31 5
M  V30 34 1 31 30
M  V30 35 1 32 1
M  V30 36 1 32 2
M  V30 37 1 32 24
M  V30 38 1 33 11
M  V30 39 1 34 5
M  V30 40 1 35 5
M  V30 41 1 36 6
M  V30 42 1 37 6
M  V30 43 1 8 38 CFG=3
M  V30 44 1 39 10
M  V30 45 1 40 11
M  V30 46 1 41 11
M  V30 47 1 42 12
M  V30 48 1 43 12
M  V30 49 1 44 13
M  V30 50 1 45 13
M  V30 51 1 46 14
M  V30 52 1 47 16
M  V30 53 1 48 16
M  V30 54 1 49 18
M  V30 55 1 19 50 CFG=3
M  V30 56 1 51 20
M  V30 57 1 52 20
M  V30 58 1 21 53 CFG=3
M  V30 59 1 54 23
M  V30 60 1 55 23
M  V30 61 1 56 25
M  V30 62 1 26 57 CFG=3
M  V30 63 1 28 58 CFG=3
M  V30 64 1 59 29
M  V30 65 1 60 31
M  V30 66 1 61 31
M  V30 67 1 62 32
M  V30 68 1 63 33
M  V30 69 1 64 33
M  V30 70 1 65 33
M  V30 71 1 66 14
M  V30 END BOND
M  V30 END CTAB
M  END
>  <i_epik_Tot_Q>  (1) 
2

>  <i_epik_Tot_abs_Q>  (1) 
2

>  <i_i_glide_confnum>  (1) 
199

>  <i_i_glide_lignum>  (1) 
57

>  <i_i_glide_posenum>  (1) 
261

>  <i_i_glide_rotatable_bonds>  (1) 
8

>  <i_lp_mmshare_version>  (1) 
72125

>  <i_m_source_file_index>  (1) 
21

>  <i_f3d_flags>  (1) 
0

>  <num_sample>  (1) 
50

>  <b_lp_Chiralities_Consistent>  (1) 
1

>  <r_epik_Charging_Adjusted_Penalty>  (1) 
0.37096612377333449

>  <r_epik_Ionization_Penalty>  (1) 
0.1854830618866673

>  <r_epik_Ionization_Penalty_Charging>  (1) 
0.1854830618866673

>  <r_epik_Ionization_Penalty_Neutral>  (1) 
0

>  <r_epik_State_Penalty>  (1) 
0.18548306188666719

>  <r_glide_ring_energy>  (1) 
0

>  <r_i_docking_score>  (1) 
-6.191302109879409

>  <r_i_glide_ecoul>  (1) 
-6.2801836334075167

>  <r_i_glide_eff_state_penalty>  (1) 
0.18548306188666719

>  <r_i_glide_einternal>  (1) 
7.3615365253183596

>  <r_i_glide_emodel>  (1) 
-40.09184749203925

>  <r_i_glide_emodel_strain>  (1) 
2.1600310601248225

>  <r_i_glide_energy>  (1) 
-30.076310583951329

>  <r_i_glide_erotb>  (1) 
0.52081538215961176

>  <r_i_glide_esite>  (1) 
-0.10000000000000001

>  <r_i_glide_evdw>  (1) 
-23.796126950543812

>  <r_i_glide_gscore>  (1) 
-6.376785171766076

>  <r_i_glide_gscore_strain>  (1) 
0

>  <r_i_glide_hbond>  (1) 
-0.070176716646597304

>  <r_i_glide_ligand_efficiency>  (1) 
-0.18761521545089119

>  <r_i_glide_ligand_efficiency_ln>  (1) 
-1.3769135323905011

>  <r_i_glide_ligand_efficiency_sa>  (1) 
-0.60178224438829697

>  <r_i_glide_lipo>  (1) 
-2.272716708443097

>  <r_i_glide_metal>  (1) 
-0

>  <r_i_glide_rewards>  (1) 
-2.3228732362976743

>  <r_lp_Energy>  (1) 
12.133251999999999

>  <s_epik_cmdline>  (1) 
J2VwaWtfcHl0aG9uJywgJy1waHQnLCAnMS4wJywgJy1waCcsICc3LjQnLCAnLXRuJywgJzgnLCAnLW1hJywgJzUwMCcsICctaW1hZScsICc8aW5maWxlLm1hZT4nLCAnLW9tYWUnLCAnPG91dGZpbGUubWFlPic=

>  <s_epik_input>  (1) 
RltDSF0oRilDKEYpKEYpbjFbY0hdW2NIXWMobjEyKWMoW2NIXVtjSF0yKVtDSDJdW05IXVtDQEBIXTNbQ0gyXVtDQF0zNFtDQEhdKFtDSDJdNClbQ0gyXVtTK10oW0NIMl01KVtDSDJdW0NIMl1bQ0BASF0oW0NAQEhdNTYpW0NAQEhdKEM2PVtDSDJdKVtDSDJdW0NIM10=

>  <s_glide_docking_method>  (1) 
confgen

>  <s_i_glide_gridfile>  (1) 
gpcr_drd2_6luq_protein_autoprepared_prepared

>  <s_lp_Force_Field>  (1) 
S-OPLS

>  <s_lp_Variant>  (1) 
DiffSBDD_20_num_sample_50-1

>  <s_m_source_file>  (1) 
generated__ligand_DiffSBDD_2026-05-06_prepared.sdf

>  <GenAI_Model>  (1) 
DiffSBDD

>  <Protein>  (1) 
generic_title2

$$$$
DiffSBDD_11_num_sample_50
     RDKit          3D

  0  0  0  0  0  0  0  0  0  0999 V3000
M  V30 BEGIN CTAB
M  V30 COUNTS 69 72 0 0 1
M  V30 BEGIN ATOM
M  V30 1 C 7.658990 4.815763 -10.526340 0
M  V30 2 C 7.392105 4.975370 -16.110818 0
M  V30 3 C 9.788690 6.905632 -10.767908 0 CFG=1
M  V30 4 O 13.434611 9.369318 -4.552596 0
M  V30 5 C 7.730714 6.523475 -13.254118 0
M  V30 6 O 10.901505 7.769222 -10.633020 0
M  V30 7 C 11.174333 9.704731 -5.193299 0
M  V30 8 C 12.126210 9.042886 -4.177656 0 CFG=2
M  V30 9 C 6.990343 3.714543 -12.667780 0
M  V30 10 C 12.003997 8.163966 -1.928578 0
M  V30 11 C 8.872300 4.778339 -9.583409 0
M  V30 12 C 7.294484 4.885693 -17.650210 0
M  V30 13 C 6.799628 6.131049 -18.384164 0
M  V30 14 C 11.897992 9.456630 -2.729152 0
M  V30 15 C 6.499991 5.923281 -13.972876 0 CFG=2
M  V30 16 C 9.183355 6.938310 -8.288835 0
M  V30 17 O 10.043864 6.765720 -7.189686 0
M  V30 18 C 5.744716 6.751438 -16.204662 0
M  V30 19 N 8.056292 4.416890 -11.902227 0 CFG=1 CHG=1
M  V30 20 C 8.726725 5.475403 -12.708271 0 CFG=2
M  V30 21 F 7.846056 6.917418 -18.636812 0
M  V30 22 C 5.933943 4.675038 -13.249988 0
M  V30 23 C 10.981099 8.788390 -6.411731 0
M  V30 24 C 9.851072 7.766618 -6.217037 0
M  V30 25 F 6.254594 5.781881 -19.549539 0
M  V30 26 N 6.573231 5.871597 -15.466919 0
M  V30 27 O 11.907472 7.667253 -4.157911 0
M  V30 28 C 9.987153 6.070301 -12.052700 0
M  V30 29 C 12.433471 7.132558 -2.962317 0
M  V30 30 C 5.814963 6.883939 -17.538441 0
M  V30 31 O 8.155849 4.224550 -15.514870 0
M  V30 32 C 9.669515 6.086390 -9.458400 0 CFG=2
M  V30 33 F 4.972548 7.736400 -18.143291 0
M  V30 34 H 6.933933 4.098119 -10.143135 0
M  V30 35 H 7.138593 5.770215 -10.505894 0
M  V30 36 H 8.916449 7.548201 -10.886809 0
M  V30 37 H 13.463055 10.285649 -4.772074 0
M  V30 38 H 8.234352 7.231453 -13.905667 0
M  V30 39 H 7.363656 7.123099 -12.420103 0
M  V30 40 H 11.631797 7.283217 -10.282294 0
M  V30 41 H 10.234833 9.957566 -4.725912 0
M  V30 42 H 11.597029 10.662845 -5.498611 0
M  V30 43 H 7.460700 3.134300 -13.458803 0
M  V30 44 H 6.498385 2.971587 -12.038325 0
M  V30 45 H 11.034272 7.900417 -1.503839 0
M  V30 46 H 12.721373 8.239470 -1.110409 0
M  V30 47 H 9.555392 3.992708 -9.907221 0
M  V30 48 H 8.542987 4.477983 -8.586736 0
M  V30 49 H 8.262364 4.584229 -18.053187 0
M  V30 50 H 6.625652 4.054690 -17.867791 0
M  V30 51 H 12.634727 10.169239 -2.407476 0
M  V30 52 H 10.928932 9.921468 -2.658086 0
M  V30 53 H 5.730438 6.668414 -13.767478 0
M  V30 54 H 8.234842 6.576934 -7.935153 0
M  V30 55 H 9.087480 7.991091 -8.565287 0
M  V30 56 H 5.049709 7.313788 -15.598311 0
M  V30 57 H 9.154275 4.948539 -13.553571 0
M  V30 58 H 5.241883 4.131971 -13.890910 0
M  V30 59 H 5.326860 5.021517 -12.412093 0
M  V30 60 H 10.752964 9.368945 -7.300536 0
M  V30 61 H 11.915832 8.277586 -6.647244 0
M  V30 62 H 9.889546 7.272388 -5.249441 0
M  V30 63 H 8.866740 8.239680 -6.266565 0
M  V30 64 H 10.675166 5.247054 -11.891845 0
M  V30 65 H 10.471801 6.698995 -12.800629 0
M  V30 66 H 12.047014 6.133136 -2.758887 0
M  V30 67 H 13.517418 7.074332 -3.062193 0
M  V30 68 H 10.653832 5.770417 -9.131467 0
M  V30 69 H 8.759846 3.706389 -11.756370 0
M  V30 END ATOM
M  V30 BEGIN BOND
M  V30 1 1 6 3
M  V30 2 1 8 4 CFG=3
M  V30 3 1 8 7
M  V30 4 1 11 1
M  V30 5 1 12 2
M  V30 6 1 13 12
M  V30 7 1 14 8
M  V30 8 1 14 10
M  V30 9 1 15 5
M  V30 10 1 17 16
M  V30 11 1 19 1
M  V30 12 1 19 9
M  V30 13 1 20 5
M  V30 14 1 20 19
M  V30 15 1 21 13
M  V30 16 1 22 9
M  V30 17 1 22 15
M  V30 18 1 23 7
M  V30 19 1 24 17
M  V30 20 1 24 23
M  V30 21 1 25 13
M  V30 22 1 26 2
M  V30 23 1 26 15
M  V30 24 1 26 18
M  V30 25 1 27 8
M  V30 26 1 28 3
M  V30 27 1 28 20
M  V30 28 1 29 10
M  V30 29 1 29 27
M  V30 30 1 30 13
M  V30 31 2 30 18
M  V30 32 2 31 2
M  V30 33 1 32 3
M  V30 34 1 32 11
M  V30 35 1 32 16
M  V30 36 1 33 30
M  V30 37 1 34 1
M  V30 38 1 35 1
M  V30 39 1 3 36 CFG=3
M  V30 40 1 37 4
M  V30 41 1 38 5
M  V30 42 1 39 5
M  V30 43 1 40 6
M  V30 44 1 41 7
M  V30 45 1 42 7
M  V30 46 1 43 9
M  V30 47 1 44 9
M  V30 48 1 45 10
M  V30 49 1 46 10
M  V30 50 1 47 11
M  V30 51 1 48 11
M  V30 52 1 49 12
M  V30 53 1 50 12
M  V30 54 1 51 14
M  V30 55 1 52 14
M  V30 56 1 15 53 CFG=3
M  V30 57 1 54 16
M  V30 58 1 55 16
M  V30 59 1 56 18
M  V30 60 1 20 57 CFG=3
M  V30 61 1 58 22
M  V30 62 1 59 22
M  V30 63 1 60 23
M  V30 64 1 61 23
M  V30 65 1 62 24
M  V30 66 1 63 24
M  V30 67 1 64 28
M  V30 68 1 65 28
M  V30 69 1 66 29
M  V30 70 1 67 29
M  V30 71 1 32 68 CFG=1
M  V30 72 1 19 69 CFG=1
M  V30 END BOND
M  V30 END CTAB
M  END
>  <i_epik_Tot_Q>  (1) 
1

>  <i_epik_Tot_abs_Q>  (1) 
1

>  <i_i_glide_confnum>  (1) 
867

>  <i_i_glide_lignum>  (1) 
45

>  <i_i_glide_posenum>  (1) 
16

>  <i_i_glide_rotatable_bonds>  (1) 
9

>  <i_lp_mmshare_version>  (1) 
72125

>  <i_m_source_file_index>  (1) 
12

>  <i_f3d_flags>  (1) 
0

>  <num_sample>  (1) 
50

>  <b_lp_Chiralities_Consistent>  (1) 
1

>  <r_epik_Charging_Adjusted_Penalty>  (1) 
0.049597449479403345

>  <r_epik_Ionization_Penalty>  (1) 
0.024799209446341199

>  <r_epik_Ionization_Penalty_Charging>  (1) 
0.024798724739701669

>  <r_epik_Ionization_Penalty_Neutral>  (1) 
4.8470663953020042e-07

>  <r_epik_State_Penalty>  (1) 
0.024798724739701676

>  <r_glide_ring_energy>  (1) 
0.0002774820840286173

>  <r_i_docking_score>  (1) 
-6.1904373561167256

>  <r_i_glide_ecoul>  (1) 
-3.0666352881069852

>  <r_i_glide_eff_state_penalty>  (1) 
0.024798724739701676

>  <r_i_glide_einternal>  (1) 
8.6711577244749485

>  <r_i_glide_emodel>  (1) 
-40.494107919130023

>  <r_i_glide_emodel_strain>  (1) 
6.9856305129615919

>  <r_i_glide_energy>  (1) 
-39.640727965162078

>  <r_i_glide_erotb>  (1) 
0.62180956458355674

>  <r_i_glide_esite>  (1) 
0

>  <r_i_glide_evdw>  (1) 
-36.574092677055091

>  <r_i_glide_gscore>  (1) 
-6.2152360808564273

>  <r_i_glide_gscore_strain>  (1) 
0.74640762824039797

>  <r_i_glide_hbond>  (1) 
0

>  <r_i_glide_ligand_efficiency>  (1) 
-0.18758901079141593

>  <r_i_glide_ligand_efficiency_ln>  (1) 
-1.3767212156311357

>  <r_i_glide_ligand_efficiency_sa>  (1) 
-0.60169819204342423

>  <r_i_glide_lipo>  (1) 
-3.0027433398597356

>  <r_i_glide_metal>  (1) 
-0

>  <r_i_glide_rewards>  (1) 
-2.292010006751843

>  <r_lp_Energy>  (1) 
43.003907999999996

>  <s_epik_cmdline>  (1) 
J2VwaWtfcHl0aG9uJywgJy1waHQnLCAnMS4wJywgJy1waCcsICc3LjQnLCAnLXRuJywgJzgnLCAnLW1hJywgJzUwMCcsICctaW1hZScsICc8aW5maWxlLm1hZT4nLCAnLW9tYWUnLCAnPG91dGZpbGUubWFlPic=

>  <s_epik_input>  (1) 
TzFbQ0gyXVtDSDJdW0NIMl1bQ0BdMShbT0hdKVtDSDJdW0NIMl1bQ0gyXU9bQ0gyXVtDQEBIXShbQ0gyXVtDSDJdMilbQ0BASF0oW09IXSlbQ0gyXVtDQEBIXShOMjMpW0NIMl1bQ0BIXShbQ0gyXVtDSDJdMylOKFtDSF09QzRGKUMoPU8pW0NIMl1DNChGKUY=

>  <s_glide_docking_method>  (1) 
confgen

>  <s_i_glide_gridfile>  (1) 
gpcr_drd2_6luq_protein_autoprepared_prepared

>  <s_lp_Force_Field>  (1) 
S-OPLS

>  <s_lp_Variant>  (1) 
DiffSBDD_11_num_sample_50-1

>  <s_m_source_file>  (1) 
generated__ligand_DiffSBDD_2026-05-06_prepared.sdf

>  <GenAI_Model>  (1) 
DiffSBDD

>  <Protein>  (1) 
generic_title2

$$$$
DiffSBDD_3_num_sample_50
     RDKit          3D

  0  0  0  0  0  0  0  0  0  0999 V3000
M  V30 BEGIN CTAB
M  V30 COUNTS 57 60 0 0 1
M  V30 BEGIN ATOM
M  V30 1 C 6.990545 0.379160 -14.842846 0
M  V30 2 C 11.141058 8.992987 -6.231338 0
M  V30 3 C 6.778422 0.979157 -17.221142 0
M  V30 4 F 7.314193 3.175871 -17.860867 0
M  V30 5 C 7.694233 7.548794 -12.659904 0
M  V30 6 C 7.120689 6.728111 -13.854982 0 CFG=1
M  V30 7 C 12.225601 8.969289 -7.127259 0
M  V30 8 C 9.675400 8.126152 -7.976232 0
M  V30 9 C 7.541510 3.034267 -12.773791 0 CFG=1
M  V30 10 C 6.687247 5.328484 -13.405389 0
M  V30 11 C 10.570004 7.600717 -10.299175 0
M  V30 12 C 7.707793 4.225827 -13.737051 0 CFG=2
M  V30 13 C 7.729504 2.164995 -17.096123 0 CFG=1
M  V30 14 C 7.645365 3.814510 -15.199121 0
M  V30 15 O 6.234839 8.211073 -15.670522 0
M  V30 16 C 6.079829 2.618220 -12.551855 0
M  V30 17 C 5.489000 7.018054 -15.937424 0
M  V30 18 C 7.828538 2.553785 -15.630498 0
M  V30 19 C 10.761764 8.094965 -8.882558 0
M  V30 20 C 9.868519 8.569302 -6.656086 0
M  V30 21 N 9.292727 7.432789 -10.691627 0
M  V30 22 C 6.426785 0.169039 -16.196117 0
M  V30 23 C 12.040526 8.515099 -8.449180 0
M  V30 24 O 6.601997 -0.242284 -13.861632 0
M  V30 25 O 11.538575 7.369326 -11.024967 0
M  V30 26 C 8.938559 6.892136 -12.002691 0
M  V30 27 C 8.386685 1.840308 -13.216780 0
M  V30 28 C 8.115779 1.410720 -14.682302 0 CFG=1
M  V30 29 C 5.936441 7.385142 -14.541920 0 CFG=1
M  V30 30 H 11.285370 9.335207 -5.217060 0
M  V30 31 H 6.356603 0.805286 -18.200194 0
M  V30 32 H 7.949621 8.555259 -12.993339 0
M  V30 33 H 6.914715 7.676072 -11.906500 0
M  V30 34 H 7.899837 6.635283 -14.611213 0
M  V30 35 H 13.202448 9.295361 -6.801027 0
M  V30 36 H 8.696727 7.800250 -8.286086 0
M  V30 37 H 7.930780 3.369318 -11.814007 0
M  V30 38 H 5.728548 5.054087 -13.850720 0
M  V30 39 H 6.495067 5.362919 -12.332339 0
M  V30 40 H 8.718849 4.611469 -13.606909 0
M  V30 41 H 8.712064 1.875310 -17.470874 0
M  V30 42 H 7.436692 4.596563 -15.911111 0
M  V30 43 H 5.552241 2.460340 -13.491720 0
M  V30 44 H 6.018563 1.690017 -11.983113 0
M  V30 45 H 5.529887 3.369304 -11.986457 0
M  V30 46 H 6.037779 6.265417 -16.497241 0
M  V30 47 H 4.464207 7.205457 -16.250679 0
M  V30 48 H 9.036576 8.582995 -5.967502 0
M  V30 49 H 8.529248 7.651415 -10.045481 0
M  V30 50 H 5.727387 -0.641744 -16.342318 0
M  V30 51 H 12.877961 8.493612 -9.131796 0
M  V30 52 H 8.750140 5.841839 -11.797672 0
M  V30 53 H 9.778835 6.921873 -12.693148 0
M  V30 54 H 9.434818 2.099626 -13.091665 0
M  V30 55 H 8.234883 1.010951 -12.526969 0
M  V30 56 H 9.022650 0.943090 -15.048998 0
M  V30 57 H 5.162515 7.769331 -13.880226 0
M  V30 END ATOM
M  V30 BEGIN BOND
M  V30 1 1 6 5
M  V30 2 2 7 2
M  V30 3 1 10 6
M  V30 4 1 12 9
M  V30 5 1 12 10
M  V30 6 1 13 3
M  V30 7 1 13 4
M  V30 8 1 14 12
M  V30 9 1 16 9
M  V30 10 1 17 15
M  V30 11 1 18 13
M  V30 12 2 18 14
M  V30 13 1 19 8
M  V30 14 1 19 11
M  V30 15 1 20 2
M  V30 16 2 20 8
M  V30 17 1 21 11
M  V30 18 1 22 1
M  V30 19 2 22 3
M  V30 20 1 23 7
M  V30 21 2 23 19
M  V30 22 2 24 1
M  V30 23 2 25 11
M  V30 24 1 26 5
M  V30 25 1 26 21
M  V30 26 1 27 9
M  V30 27 1 28 1
M  V30 28 1 28 18
M  V30 29 1 28 27
M  V30 30 1 29 6
M  V30 31 1 29 15
M  V30 32 1 29 17
M  V30 33 1 30 2
M  V30 34 1 31 3
M  V30 35 1 32 5
M  V30 36 1 33 5
M  V30 37 1 6 34 CFG=3
M  V30 38 1 35 7
M  V30 39 1 36 8
M  V30 40 1 9 37 CFG=1
M  V30 41 1 38 10
M  V30 42 1 39 10
M  V30 43 1 12 40 CFG=3
M  V30 44 1 13 41 CFG=3
M  V30 45 1 42 14
M  V30 46 1 43 16
M  V30 47 1 44 16
M  V30 48 1 45 16
M  V30 49 1 46 17
M  V30 50 1 47 17
M  V30 51 1 48 20
M  V30 52 1 49 21
M  V30 53 1 50 22
M  V30 54 1 51 23
M  V30 55 1 52 26
M  V30 56 1 53 26
M  V30 57 1 54 27
M  V30 58 1 55 27
M  V30 59 1 28 56 CFG=3
M  V30 60 1 29 57 CFG=1
M  V30 END BOND
M  V30 END CTAB
M  END
>  <i_epik_Tot_Q>  (1) 
0

>  <i_epik_Tot_abs_Q>  (1) 
0

>  <i_i_glide_confnum>  (1) 
70

>  <i_i_glide_lignum>  (1) 
10

>  <i_i_glide_posenum>  (1) 
333

>  <i_i_glide_rotatable_bonds>  (1) 
8

>  <i_lp_mmshare_version>  (1) 
72125

>  <i_m_source_file_index>  (1) 
4

>  <i_f3d_flags>  (1) 
0

>  <num_sample>  (1) 
50

>  <b_lp_Chiralities_Consistent>  (1) 
1

>  <r_epik_Charging_Adjusted_Penalty>  (1) 
0

>  <r_epik_Ionization_Penalty>  (1) 
1.5409479738535797e-07

>  <r_epik_Ionization_Penalty_Charging>  (1) 
0

>  <r_epik_Ionization_Penalty_Neutral>  (1) 
1.5409479738535797e-07

>  <r_epik_State_Penalty>  (1) 
-0

>  <r_glide_ring_energy>  (1) 
0

>  <r_i_docking_score>  (1) 
-6.1597447773790659

>  <r_i_glide_ecoul>  (1) 
-5.1275174045364427

>  <r_i_glide_eff_state_penalty>  (1) 
-0

>  <r_i_glide_einternal>  (1) 
7.1947482193069199

>  <r_i_glide_emodel>  (1) 
-48.205863811440892

>  <r_i_glide_emodel_strain>  (1) 
0.5010600339308553

>  <r_i_glide_energy>  (1) 
-38.501985808153243

>  <r_i_glide_erotb>  (1) 
0.86725254217801073

>  <r_i_glide_esite>  (1) 
-0.1215770286919732

>  <r_i_glide_evdw>  (1) 
-33.374468403616802

>  <r_i_glide_gscore>  (1) 
-6.1597447773790659

>  <r_i_glide_gscore_strain>  (1) 
0

>  <r_i_glide_hbond>  (1) 
0

>  <r_i_glide_ligand_efficiency>  (1) 
-0.21240499232341606

>  <r_i_glide_ligand_efficiency_ln>  (1) 
-1.4104253563693536

>  <r_i_glide_ligand_efficiency_sa>  (1) 
-0.65257543177490451

>  <r_i_glide_lipo>  (1) 
-2.6504362362259331

>  <r_i_glide_metal>  (1) 
-0

>  <r_i_glide_rewards>  (1) 
-1.8171330237778636

>  <r_lp_Energy>  (1) 
34.697915000000002

>  <r_lp_tautomer_probability>  (1) 
1

>  <s_epik_cmdline>  (1) 
J2VwaWtfcHl0aG9uJywgJy1waHQnLCAnMS4wJywgJy1waCcsICc3LjQnLCAnLXRuJywgJzgnLCAnLW1hJywgJzUwMCcsICctaW1hZScsICc8aW5maWxlLm1hZT4nLCAnLW9tYWUnLCAnPG91dGZpbGUubWFlPic=

>  <s_epik_input>  (1) 
RltDQEBIXTFbQ0hdPVtDSF1DKD1PKVtDQEBIXShDMTIpW0NIMl1bQ0BIXShbQ0gzXSlbQ0BASF0oW0NIXT0yKVtDSDJdW0NAQEhdKFtDQEhdM09bQ0gyXTMpW0NIMl1bQ0gyXVtOSF1DKD1PKWM0W2NIXVtjSF1bY0hdW2NIXVtjSF00

>  <s_glide_docking_method>  (1) 
confgen

>  <s_i_glide_gridfile>  (1) 
gpcr_drd2_6luq_protein_autoprepared_prepared

>  <s_lp_Force_Field>  (1) 
S-OPLS

>  <s_lp_Variant>  (1) 
DiffSBDD_3_num_sample_50-1

>  <s_m_source_file>  (1) 
generated__ligand_DiffSBDD_2026-05-06_prepared.sdf

>  <GenAI_Model>  (1) 
DiffSBDD

>  <Protein>  (1) 
generic_title2

$$$$
DiffSBDD_23_num_sample_50
     RDKit          3D

  0  0  0  0  0  0  0  0  0  0999 V3000
M  V30 BEGIN CTAB
M  V30 COUNTS 68 70 0 0 1
M  V30 BEGIN ATOM
M  V30 1 C 9.898200 7.654410 -9.874981 0
M  V30 2 C 8.692753 5.526754 -8.225210 0
M  V30 3 C 12.225392 6.852152 -3.332143 0
M  V30 4 C 11.837226 9.195758 -3.872040 0
M  V30 5 C 9.585952 7.920668 -8.387820 0
M  V30 6 C 12.233486 9.542443 -2.579221 0
M  V30 7 C 7.710221 5.984451 -12.500554 0 CFG=1
M  V30 8 O 3.979478 6.434408 -16.691847 0 CHG=-1
M  V30 9 C 9.536417 6.620780 -7.556819 0 CFG=2
M  V30 10 O 11.434000 7.534244 -5.529015 0
M  V30 11 C 5.113546 6.169692 -17.140853 0
M  V30 12 C 9.194506 5.315620 -9.644824 0
M  V30 13 C 6.340607 6.566726 -16.264832 0
M  V30 14 N 9.034529 6.573966 -10.407136 0 CFG=2 CHG=1
M  V30 15 O 5.347887 5.634887 -18.250320 0
M  V30 16 C 7.555790 4.449229 -12.467042 0
M  V30 17 C 9.063147 6.441335 -11.883908 0
M  V30 18 C 6.382455 4.476219 -14.673749 0
M  V30 19 C 6.157139 8.099645 -16.160510 0
M  V30 20 C 12.632138 7.210944 -2.046853 0
M  V30 21 C 10.949874 6.082783 -7.294711 0
M  V30 22 C 11.307653 6.172894 -5.839346 0
M  V30 23 C 7.603592 6.083237 -17.045447 0
M  V30 24 C 7.618649 6.497897 -13.957105 0
M  V30 25 C 6.298388 2.400866 -13.201105 0
M  V30 26 C 6.388499 6.002802 -14.779424 0 CFG=1
M  V30 27 C 6.352071 3.940067 -13.244321 0 CFG=1
M  V30 28 C 11.832492 7.854906 -4.259407 0
M  V30 29 C 12.637273 8.557689 -1.671442 0
M  V30 30 H 10.947105 7.395678 -10.018776 0
M  V30 31 H 9.716400 8.569550 -10.435370 0
M  V30 32 H 8.763860 4.596092 -7.665091 0
M  V30 33 H 7.632780 5.769567 -8.235704 0
M  V30 34 H 12.219355 5.811804 -3.607713 0
M  V30 35 H 11.530061 9.962293 -4.569883 0
M  V30 36 H 8.636831 8.446389 -8.288993 0
M  V30 37 H 10.324267 8.608672 -7.971843 0
M  V30 38 H 12.234649 10.569144 -2.280022 0
M  V30 39 H 6.887737 6.433984 -11.940947 0
M  V30 40 H 9.056249 6.864038 -6.606895 0
M  V30 41 H 10.234839 5.022165 -9.640211 0
M  V30 42 H 8.682989 4.464023 -10.054993 0
M  V30 43 H 8.465808 3.966929 -12.827730 0
M  V30 44 H 7.374249 4.096240 -11.461376 0
M  V30 45 H 9.296154 7.424113 -12.298655 0
M  V30 46 H 9.887282 5.796595 -12.189859 0
M  V30 47 H 5.459633 4.170420 -15.089521 0
M  V30 48 H 7.196703 4.022022 -15.238107 0
M  V30 49 H 7.034820 8.600734 -15.792752 0
M  V30 50 H 5.834839 8.564950 -17.092304 0
M  V30 51 H 5.357572 8.340382 -15.460203 0
M  V30 52 H 12.942125 6.450358 -1.346210 0
M  V30 53 H 11.699110 6.609185 -7.882662 0
M  V30 54 H 11.034563 5.035192 -7.577833 0
M  V30 55 H 12.234981 5.624857 -5.689531 0
M  V30 56 H 10.521028 5.769291 -5.206527 0
M  V30 57 H 8.537535 6.169179 -16.501580 0
M  V30 58 H 7.541634 5.019381 -17.278902 0
M  V30 59 H 7.723279 6.600507 -17.997035 0
M  V30 60 H 7.646665 7.586586 -13.944247 0
M  V30 61 H 8.537827 6.168038 -14.435161 0
M  V30 62 H 7.186947 1.958233 -13.653785 0
M  V30 63 H 6.231101 2.033599 -12.176847 0
M  V30 64 H 5.434602 2.007256 -13.731047 0
M  V30 65 H 5.489799 6.351980 -14.267391 0
M  V30 66 H 5.449632 4.316130 -12.760409 0
M  V30 67 H 12.955821 8.838764 -0.691532 0
M  V30 68 H 8.097952 6.918566 -10.176648 0
M  V30 END ATOM
M  V30 BEGIN BOND
M  V30 1 1 5 1
M  V30 2 1 6 4
M  V30 3 1 9 2
M  V30 4 1 9 5
M  V30 5 1 11 8
M  V30 6 1 12 2
M  V30 7 1 13 11
M  V30 8 1 14 1
M  V30 9 1 14 12
M  V30 10 2 15 11
M  V30 11 1 16 7
M  V30 12 1 17 7
M  V30 13 1 17 14
M  V30 14 1 19 13
M  V30 15 2 20 3
M  V30 16 1 21 9
M  V30 17 1 22 10
M  V30 18 1 22 21
M  V30 19 1 23 13
M  V30 20 1 24 7
M  V30 21 1 26 13
M  V30 22 1 26 18
M  V30 23 1 26 24
M  V30 24 1 27 16
M  V30 25 1 27 18
M  V30 26 1 27 25
M  V30 27 1 28 3
M  V30 28 2 28 4
M  V30 29 1 28 10
M  V30 30 2 29 6
M  V30 31 1 29 20
M  V30 32 1 30 1
M  V30 33 1 31 1
M  V30 34 1 32 2
M  V30 35 1 33 2
M  V30 36 1 34 3
M  V30 37 1 35 4
M  V30 38 1 36 5
M  V30 39 1 37 5
M  V30 40 1 38 6
M  V30 41 1 7 39 CFG=1
M  V30 42 1 9 40 CFG=1
M  V30 43 1 41 12
M  V30 44 1 42 12
M  V30 45 1 43 16
M  V30 46 1 44 16
M  V30 47 1 45 17
M  V30 48 1 46 17
M  V30 49 1 47 18
M  V30 50 1 48 18
M  V30 51 1 49 19
M  V30 52 1 50 19
M  V30 53 1 51 19
M  V30 54 1 52 20
M  V30 55 1 53 21
M  V30 56 1 54 21
M  V30 57 1 55 22
M  V30 58 1 56 22
M  V30 59 1 57 23
M  V30 60 1 58 23
M  V30 61 1 59 23
M  V30 62 1 60 24
M  V30 63 1 61 24
M  V30 64 1 62 25
M  V30 65 1 63 25
M  V30 66 1 64 25
M  V30 67 1 26 65 CFG=1
M  V30 68 1 27 66 CFG=1
M  V30 69 1 67 29
M  V30 70 1 14 68 CFG=3
M  V30 END BOND
M  V30 END CTAB
M  END
>  <i_epik_Tot_Q>  (1) 
0

>  <i_epik_Tot_abs_Q>  (1) 
2

>  <i_i_glide_confnum>  (1) 
180

>  <i_i_glide_lignum>  (1) 
63

>  <i_i_glide_posenum>  (1) 
136

>  <i_i_glide_rotatable_bonds>  (1) 
8

>  <i_lp_mmshare_version>  (1) 
72125

>  <i_m_source_file_index>  (1) 
24

>  <i_f3d_flags>  (1) 
0

>  <num_sample>  (1) 
50

>  <b_lp_Chiralities_Consistent>  (1) 
1

>  <r_epik_Charging_Adjusted_Penalty>  (1) 
0.003094722008017318

>  <r_epik_Ionization_Penalty>  (1) 
0.003094722008017318

>  <r_epik_Ionization_Penalty_Charging>  (1) 
0.003094722008017318

>  <r_epik_Ionization_Penalty_Neutral>  (1) 
0

>  <r_epik_State_Penalty>  (1) 
-0

>  <r_glide_ring_energy>  (1) 
0

>  <r_i_docking_score>  (1) 
-6.1472241743808445

>  <r_i_glide_ecoul>  (1) 
-6.2793465043597463

>  <r_i_glide_eff_state_penalty>  (1) 
-0

>  <r_i_glide_einternal>  (1) 
14.533993615586354

>  <r_i_glide_emodel>  (1) 
-28.71182104246391

>  <r_i_glide_emodel_strain>  (1) 
0.17398563511174814

>  <r_i_glide_energy>  (1) 
-24.877821538999342

>  <r_i_glide_erotb>  (1) 
0.72975461734148295

>  <r_i_glide_esite>  (1) 
-0.093726392711372231

>  <r_i_glide_evdw>  (1) 
-18.598475034639595

>  <r_i_glide_gscore>  (1) 
-6.1472241743808445

>  <r_i_glide_gscore_strain>  (1) 
0

>  <r_i_glide_hbond>  (1) 
-0.20000000000000001

>  <r_i_glide_ligand_efficiency>  (1) 
-0.21197324739244292

>  <r_i_glide_ligand_efficiency_ln>  (1) 
-1.4075584557778589

>  <r_i_glide_ligand_efficiency_sa>  (1) 
-0.65124897455907116

>  <r_i_glide_lipo>  (1) 
-2.9361160603926284

>  <r_i_glide_metal>  (1) 
-0

>  <r_i_glide_rewards>  (1) 
-1.7753106112323842

>  <r_lp_Energy>  (1) 
51.626332999999995

>  <r_lp_tautomer_probability>  (1) 
1

>  <s_epik_cmdline>  (1) 
J2VwaWtfcHl0aG9uJywgJy1waHQnLCAnMS4wJywgJy1waCcsICc3LjQnLCAnLXRuJywgJzgnLCAnLW1hJywgJzUwMCcsICctaW1hZScsICc8aW5maWxlLm1hZT4nLCAnLW9tYWUnLCAnPG91dGZpbGUubWFlPic=

>  <s_epik_input>  (1) 
W09IXUMoPU8pQyhbQ0gzXSkoW0NIM10pW0NASF0oW0NIMl0xKVtDSDJdW0NAQEhdKFtDSDNdKVtDSDJdW0NASF0xW0NIMl1OKFtDSDJdW0NIMl0yKVtDSDJdW0NIMl1bQ0hdMltDSDJdW0NIMl1PYzNbY0hdW2NIXVtjSF1bY0hdW2NIXTM=

>  <s_glide_docking_method>  (1) 
confgen

>  <s_i_glide_gridfile>  (1) 
gpcr_drd2_6luq_protein_autoprepared_prepared

>  <s_lp_Force_Field>  (1) 
S-OPLS

>  <s_lp_Variant>  (1) 
DiffSBDD_23_num_sample_50-2

>  <s_m_source_file>  (1) 
generated__ligand_DiffSBDD_2026-05-06_prepared.sdf

>  <GenAI_Model>  (1) 
DiffSBDD

>  <Protein>  (1) 
generic_title2

$$$$
DiffSBDD_0_num_sample_50
     RDKit          3D

  0  0  0  0  0  0  0  0  0  0999 V3000
M  V30 BEGIN CTAB
M  V30 COUNTS 58 61 0 0 1
M  V30 BEGIN ATOM
M  V30 1 C 11.034638 7.173022 -5.412428 0
M  V30 2 C 8.467605 5.622220 -11.651584 0 CFG=2
M  V30 3 N 8.755570 6.169261 -10.300019 0 CFG=2 CHG=1
M  V30 4 N 10.052958 8.034499 -7.995708 0
M  V30 5 C 7.177117 1.010644 -14.994578 0
M  V30 6 C 5.832282 2.074396 -13.091705 0
M  V30 7 C 5.907857 6.005926 -11.661926 0
M  V30 8 S 8.234838 3.085836 -13.490953 0
M  V30 9 O 7.908122 4.969163 -8.627874 0
M  V30 10 C 11.449815 8.363165 -6.047053 0
M  V30 11 C 8.854408 6.704106 -12.671261 0
M  V30 12 C 11.134017 8.624700 -7.489773 0
M  V30 13 C 10.982090 7.078903 -11.301715 0
M  V30 14 C 7.059028 4.992125 -11.819898 0 CFG=1
M  V30 15 C 9.610989 8.346458 -9.365041 0
M  V30 16 N 5.034923 5.774724 -10.691645 0
M  V30 17 O 5.813335 6.968089 -12.415949 0
M  V30 18 F 12.595465 7.600391 -2.101228 0
M  V30 19 O 11.834848 9.369326 -8.142110 0
M  V30 20 C 11.434793 6.914906 -4.081165 0
M  V30 21 C 6.937943 4.305668 -13.194482 0 CFG=2
M  V30 22 C 9.724970 7.634677 -11.892583 0 CFG=2
M  V30 23 C 12.608996 9.050092 -3.997306 0
M  V30 24 F 6.433011 -0.095859 -15.018664 0
M  V30 25 F 6.717759 1.873527 -15.899653 0
M  V30 26 C 9.732592 7.275403 -10.432655 0 CFG=2
M  V30 27 C 9.138685 5.157242 -9.284973 0
M  V30 28 F 11.057655 5.769378 -3.477025 0
M  V30 29 C 12.220472 7.853164 -3.377085 0
M  V30 30 C 7.192723 1.622708 -13.585947 0 CFG=2
M  V30 31 C 5.627782 3.565811 -13.408625 0
M  V30 32 C 12.234559 9.305310 -5.329531 0
M  V30 33 H 10.441952 6.443628 -5.947083 0
M  V30 34 H 9.213583 4.840365 -11.784531 0
M  V30 35 H 9.480545 7.436965 -7.417587 0
M  V30 36 H 8.182001 0.717232 -15.299031 0
M  V30 37 H 5.026437 1.457858 -13.491295 0
M  V30 38 H 5.834876 1.942235 -12.009246 0
M  V30 39 H 7.747271 5.683546 -8.023720 0
M  V30 40 H 8.039072 7.279439 -13.099196 0
M  V30 41 H 9.399526 6.237069 -13.491500 0
M  V30 42 H 11.809710 7.763910 -11.120412 0
M  V30 43 H 11.247498 6.169318 -11.842324 0
M  V30 44 H 6.942791 4.217449 -11.059819 0
M  V30 45 H 10.183829 9.179270 -9.761280 0
M  V30 46 H 8.634842 8.814725 -9.331910 0
M  V30 47 H 5.149352 4.976081 -10.079478 0
M  V30 48 H 4.266764 6.413783 -10.550153 0
M  V30 49 H 7.042076 5.063515 -13.973999 0
M  V30 50 H 9.705554 8.680284 -12.178941 0
M  V30 51 H 13.207930 9.768215 -3.457496 0
M  V30 52 H 9.890763 5.504555 -8.577500 0
M  V30 53 H 9.494551 4.223734 -9.725336 0
M  V30 54 H 7.594830 0.878411 -12.898636 0
M  V30 55 H 4.766851 3.968923 -12.877255 0
M  V30 56 H 5.434869 3.769397 -14.448375 0
M  V30 57 H 12.557984 10.216932 -5.811871 0
M  V30 58 H 7.918857 6.660297 -9.968362 0
M  V30 END ATOM
M  V30 BEGIN BOND
M  V30 1 1 3 2
M  V30 2 2 10 1
M  V30 3 1 11 2
M  V30 4 1 12 4
M  V30 5 1 12 10
M  V30 6 1 14 2
M  V30 7 1 14 7
M  V30 8 1 15 4
M  V30 9 1 16 7
M  V30 10 2 17 7
M  V30 11 2 19 12
M  V30 12 1 20 1
M  V30 13 1 21 8
M  V30 14 1 21 14
M  V30 15 1 22 11
M  V30 16 1 22 13
M  V30 17 1 24 5
M  V30 18 1 25 5
M  V30 19 1 26 3
M  V30 20 1 26 13
M  V30 21 1 26 15 CFG=1
M  V30 22 1 26 22
M  V30 23 1 27 3
M  V30 24 1 27 9
M  V30 25 1 28 20
M  V30 26 1 29 18
M  V30 27 2 29 20
M  V30 28 1 29 23
M  V30 29 1 30 5
M  V30 30 1 30 6
M  V30 31 1 30 8
M  V30 32 1 31 6
M  V30 33 1 31 21
M  V30 34 1 32 10
M  V30 35 2 32 23
M  V30 36 1 33 1
M  V30 37 1 2 34 CFG=3
M  V30 38 1 35 4
M  V30 39 1 36 5
M  V30 40 1 37 6
M  V30 41 1 38 6
M  V30 42 1 39 9
M  V30 43 1 40 11
M  V30 44 1 41 11
M  V30 45 1 42 13
M  V30 46 1 43 13
M  V30 47 1 14 44 CFG=1
M  V30 48 1 45 15
M  V30 49 1 46 15
M  V30 50 1 47 16
M  V30 51 1 48 16
M  V30 52 1 21 49 CFG=3
M  V30 53 1 22 50 CFG=1
M  V30 54 1 51 23
M  V30 55 1 52 27
M  V30 56 1 53 27
M  V30 57 1 30 54 CFG=1
M  V30 58 1 55 31
M  V30 59 1 56 31
M  V30 60 1 57 32
M  V30 61 1 3 58 CFG=1
M  V30 END BOND
M  V30 END CTAB
M  END
>  <i_epik_Tot_Q>  (1) 
1

>  <i_epik_Tot_abs_Q>  (1) 
1

>  <i_i_glide_confnum>  (1) 
10

>  <i_i_glide_lignum>  (1) 
2

>  <i_i_glide_posenum>  (1) 
239

>  <i_i_glide_rotatable_bonds>  (1) 
10

>  <i_lp_mmshare_version>  (1) 
72125

>  <i_m_source_file_index>  (1) 
1

>  <i_f3d_flags>  (1) 
0

>  <num_sample>  (1) 
50

>  <b_lp_Chiralities_Consistent>  (1) 
1

>  <r_epik_Charging_Adjusted_Penalty>  (1) 
2.6270329568783799

>  <r_epik_Ionization_Penalty>  (1) 
1.3408557112072272

>  <r_epik_Ionization_Penalty_Charging>  (1) 
1.3119003563655398

>  <r_epik_Ionization_Penalty_Neutral>  (1) 
0.028955354841687337

>  <r_epik_State_Penalty>  (1) 
1.3151326005128403

>  <r_glide_ring_energy>  (1) 
1.7094833596619941

>  <r_i_docking_score>  (1) 
-6.1351334621163787

>  <r_i_glide_ecoul>  (1) 
-8.7187422522761722

>  <r_i_glide_eff_state_penalty>  (1) 
1.3151326005128403

>  <r_i_glide_einternal>  (1) 
4.3272730917983893

>  <r_i_glide_emodel>  (1) 
-55.083012167889507

>  <r_i_glide_emodel_strain>  (1) 
2.5622766162249206

>  <r_i_glide_energy>  (1) 
-37.335736832234971

>  <r_i_glide_erotb>  (1) 
0.53508942527165992

>  <r_i_glide_esite>  (1) 
-0.27887149890959118

>  <r_i_glide_evdw>  (1) 
-28.616994579958799

>  <r_i_glide_gscore>  (1) 
-7.4502660626292192

>  <r_i_glide_gscore_strain>  (1) 
0

>  <r_i_glide_hbond>  (1) 
-0.43754006865848016

>  <r_i_glide_ligand_efficiency>  (1) 
-0.19172292069113683

>  <r_i_glide_ligand_efficiency_ln>  (1) 
-1.3738236195897853

>  <r_i_glide_ligand_efficiency_sa>  (1) 
-0.60868233198305266

>  <r_i_glide_lipo>  (1) 
-2.5922947930066105

>  <r_i_glide_metal>  (1) 
-0

>  <r_i_glide_rewards>  (1) 
-1.9379880604868316

>  <r_lp_Energy>  (1) 
13.303457999999999

>  <s_epik_Chemistry_Notes>  (1) 
This compound contains an acetal/aminal-like group ( X-CH(R)-Y where X, Y are N, S, or O) that may be acid/base labile, releasing an aldehyde.

>  <s_epik_cmdline>  (1) 
J2VwaWtfcHl0aG9uJywgJy1waHQnLCAnMS4wJywgJy1waCcsICc3LjQnLCAnLXRuJywgJzgnLCAnLW1hJywgJzUwMCcsICctaW1hZScsICc8aW5maWxlLm1hZT4nLCAnLW9tYWUnLCAnPG91dGZpbGUubWFlPic=

>  <s_epik_input>  (1) 
W2NIXTFbY0hdYyhGKWMoRilbY0hdYzFDKD1PKVtOSF1bQ0gyXVtDQF0yM1tDQEBIXShbQ0gyXTMpW0NIMl1bQ0BASF0oTjJbQ0gyXVtPSF0pW0NAQEhdKEMoPU8pW05IMl0pW0NASF00U1tDQEhdKFtDSF0oRilGKVtDSDJdW0NIMl00

>  <s_glide_docking_method>  (1) 
confgen

>  <s_i_glide_gridfile>  (1) 
gpcr_drd2_6luq_protein_autoprepared_prepared

>  <s_lp_Force_Field>  (1) 
S-OPLS

>  <s_lp_Variant>  (1) 
DiffSBDD_0_num_sample_50-2

>  <s_m_source_file>  (1) 
generated__ligand_DiffSBDD_2026-05-06_prepared.sdf

>  <GenAI_Model>  (1) 
DiffSBDD

>  <Protein>  (1) 
generic_title2

$$$$
DiffSBDD_29_num_sample_50
     RDKit          3D

  0  0  0  0  0  0  0  0  0  0999 V3000
M  V30 BEGIN CTAB
M  V30 COUNTS 64 67 0 0 1
M  V30 BEGIN ATOM
M  V30 1 C 11.434839 7.501132 -5.289804 0
M  V30 2 O 8.064702 5.351455 -11.763560 0
M  V30 3 C 5.435081 6.864962 -13.533436 0
M  V30 4 C 11.165978 6.071191 -5.573614 0
M  V30 5 O 8.240464 4.552027 -14.586953 0
M  V30 6 N 9.055249 6.569304 -8.875206 0 CFG=1 CHG=1
M  V30 7 C 6.780386 6.426411 -14.122070 0
M  V30 8 C 5.316958 5.851650 -11.126738 0
M  V30 9 C 5.631322 3.371855 -10.691931 0
M  V30 10 C 11.895054 9.404834 -3.941882 0
M  V30 11 C 9.339405 6.076162 -7.501040 0
M  V30 12 C 9.434839 8.001600 -9.038845 0
M  V30 13 C 8.067343 3.779243 -15.771818 0
M  V30 14 C 7.138035 4.505570 -12.438226 0 CFG=1
M  V30 15 C 11.424600 8.291382 -6.366020 0
M  V30 16 C 10.900524 8.260461 -8.747802 0
M  V30 17 C 10.845962 6.224037 -7.163206 0 CFG=1
M  V30 18 C 5.757159 4.498062 -11.728781 0 CFG=2
M  V30 19 C 11.733590 8.022558 -4.032294 0
M  V30 20 C 8.551822 4.793764 -10.561655 0
M  V30 21 N 11.574845 9.628702 -6.361231 0
M  V30 22 C 7.037760 4.926312 -13.921812 0 CFG=2
M  V30 23 C 5.484420 7.103631 -12.013189 0
M  V30 24 N 11.294701 7.589874 -7.519953 0
M  V30 25 C 11.770295 10.169299 -5.131083 0
M  V30 26 N 11.950570 6.503360 -1.921281 0
M  V30 27 C 9.599871 5.681393 -9.932757 0
M  V30 28 C 11.850440 7.171282 -2.856356 0
M  V30 29 C 7.563527 4.617877 -16.954014 0
M  V30 30 H 4.672267 6.132151 -13.790386 0
M  V30 31 H 5.134889 7.786990 -14.025900 0
M  V30 32 H 12.043209 5.456293 -5.373143 0
M  V30 33 H 10.304602 5.769298 -4.981379 0
M  V30 34 H 6.773606 6.648076 -15.188224 0
M  V30 35 H 7.598523 7.017817 -13.710218 0
M  V30 36 H 4.273566 5.770321 -10.824411 0
M  V30 37 H 5.838914 6.021719 -10.190396 0
M  V30 38 H 6.234900 3.454884 -9.802588 0
M  V30 39 H 4.634842 3.369293 -10.291673 0
M  V30 40 H 5.834836 2.402955 -11.146556 0
M  V30 41 H 12.087769 9.882260 -2.990878 0
M  V30 42 H 9.016370 5.039454 -7.413494 0
M  V30 43 H 8.735510 6.653612 -6.797989 0
M  V30 44 H 8.850912 8.593734 -8.331001 0
M  V30 45 H 9.165415 8.354157 -10.035777 0
M  V30 46 H 9.036353 3.366417 -16.040290 0
M  V30 47 H 7.415314 2.923293 -15.590950 0
M  V30 48 H 7.521845 3.483337 -12.453994 0
M  V30 49 H 11.109070 9.329965 -8.744365 0
M  V30 50 H 11.511403 7.847297 -9.549526 0
M  V30 51 H 11.434823 5.496063 -7.710561 0
M  V30 52 H 5.014347 4.237475 -12.481904 0
M  V30 53 H 8.988959 3.814896 -10.771716 0
M  V30 54 H 7.784695 4.671348 -9.812155 0
M  V30 55 H 6.204566 4.377245 -14.365593 0
M  V30 56 H 4.707255 7.817698 -11.736633 0
M  V30 57 H 6.421337 7.602264 -11.765872 0
M  V30 58 H 11.834838 11.240827 -5.096945 0
M  V30 59 H 10.188237 6.204905 -10.687187 0
M  V30 60 H 10.234839 4.962392 -9.440286 0
M  V30 61 H 7.533259 4.022202 -17.866412 0
M  V30 62 H 6.557682 4.997347 -16.781211 0
M  V30 63 H 8.220600 5.468269 -17.135295 0
M  V30 64 H 8.043832 6.637765 -9.006980 0
M  V30 END ATOM
M  V30 BEGIN BOND
M  V30 1 1 4 1
M  V30 2 1 7 3
M  V30 3 1 11 6
M  V30 4 1 12 6
M  V30 5 1 13 5
M  V30 6 1 14 2
M  V30 7 1 15 1
M  V30 8 1 16 12
M  V30 9 1 17 4
M  V30 10 1 17 11
M  V30 11 1 18 8
M  V30 12 1 18 9
M  V30 13 1 18 14
M  V30 14 2 19 1
M  V30 15 1 19 10
M  V30 16 1 20 2
M  V30 17 2 21 15
M  V30 18 1 22 5
M  V30 19 1 22 7
M  V30 20 1 22 14
M  V30 21 1 23 3
M  V30 22 1 23 8
M  V30 23 1 24 15
M  V30 24 1 24 16
M  V30 25 1 24 17
M  V30 26 2 25 10
M  V30 27 1 25 21
M  V30 28 1 27 6
M  V30 29 1 27 20
M  V30 30 1 28 19
M  V30 31 3 28 26
M  V30 32 1 29 13
M  V30 33 1 30 3
M  V30 34 1 31 3
M  V30 35 1 32 4
M  V30 36 1 33 4
M  V30 37 1 34 7
M  V30 38 1 35 7
M  V30 39 1 36 8
M  V30 40 1 37 8
M  V30 41 1 38 9
M  V30 42 1 39 9
M  V30 43 1 40 9
M  V30 44 1 41 10
M  V30 45 1 42 11
M  V30 46 1 43 11
M  V30 47 1 44 12
M  V30 48 1 45 12
M  V30 49 1 46 13
M  V30 50 1 47 13
M  V30 51 1 14 48 CFG=3
M  V30 52 1 49 16
M  V30 53 1 50 16
M  V30 54 1 17 51 CFG=3
M  V30 55 1 18 52 CFG=3
M  V30 56 1 53 20
M  V30 57 1 54 20
M  V30 58 1 22 55 CFG=3
M  V30 59 1 56 23
M  V30 60 1 57 23
M  V30 61 1 58 25
M  V30 62 1 59 27
M  V30 63 1 60 27
M  V30 64 1 61 29
M  V30 65 1 62 29
M  V30 66 1 63 29
M  V30 67 1 6 64 CFG=3
M  V30 END BOND
M  V30 END CTAB
M  END
>  <i_epik_Tot_Q>  (1) 
1

>  <i_epik_Tot_abs_Q>  (1) 
1

>  <i_i_glide_confnum>  (1) 
104

>  <i_i_glide_lignum>  (1) 
76

>  <i_i_glide_posenum>  (1) 
183

>  <i_i_glide_rotatable_bonds>  (1) 
6

>  <i_lp_mmshare_version>  (1) 
72125

>  <i_m_source_file_index>  (1) 
30

>  <i_f3d_flags>  (1) 
0

>  <num_sample>  (1) 
50

>  <b_lp_Chiralities_Consistent>  (1) 
1

>  <r_epik_Charging_Adjusted_Penalty>  (1) 
1.0026227849201053

>  <r_epik_Ionization_Penalty>  (1) 
0.50131159217577048

>  <r_epik_Ionization_Penalty_Charging>  (1) 
0.50131139246005263

>  <r_epik_Ionization_Penalty_Neutral>  (1) 
1.9971571790720627e-07

>  <r_epik_State_Penalty>  (1) 
0.50131139246005263

>  <r_glide_ring_energy>  (1) 
0.21629496332687739

>  <r_i_docking_score>  (1) 
-6.1097517609594174

>  <r_i_glide_ecoul>  (1) 
-5.5779110920551354

>  <r_i_glide_eff_state_penalty>  (1) 
0.50131139246005263

>  <r_i_glide_einternal>  (1) 
9.2434694083780808

>  <r_i_glide_emodel>  (1) 
-35.851651617086375

>  <r_i_glide_emodel_strain>  (1) 
1.22513610998638

>  <r_i_glide_energy>  (1) 
-31.039207185063841

>  <r_i_glide_erotb>  (1) 
0.42959825739445412

>  <r_i_glide_esite>  (1) 
-0.10000000000000001

>  <r_i_glide_evdw>  (1) 
-25.461296093008706

>  <r_i_glide_gscore>  (1) 
-6.6110631534194697

>  <r_i_glide_gscore_strain>  (1) 
0

>  <r_i_glide_hbond>  (1) 
-0.14893545412791617

>  <r_i_glide_ligand_efficiency>  (1) 
-0.21068109520549716

>  <r_i_glide_ligand_efficiency_ln>  (1) 
-1.3989782233227692

>  <r_i_glide_ligand_efficiency_sa>  (1) 
-0.64727907365377091

>  <r_i_glide_lipo>  (1) 
-2.1410925938044598

>  <r_i_glide_metal>  (1) 
-0

>  <r_i_glide_rewards>  (1) 
-2.5408818944228417

>  <r_lp_Energy>  (1) 
44.423873

>  <s_epik_cmdline>  (1) 
J2VwaWtfcHl0aG9uJywgJy1waHQnLCAnMS4wJywgJy1waCcsICc3LjQnLCAnLXRuJywgJzgnLCAnLW1hJywgJzUwMCcsICctaW1hZScsICc8aW5maWxlLm1hZT4nLCAnLW9tYWUnLCAnPG91dGZpbGUubWFlPic=

>  <s_epik_input>  (1) 
TiNDYzFbY0hdW2NIXW5jKGMxMilOM1tDQEhdKFtDSDJdMilbQ0gyXU4oW0NIMl1bQ0gyXTMpW0NIMl1bQ0gyXU9bQ0BIXTRbQ0BASF0oW0NIM10pW0NIMl1bQ0gyXVtDSDJdW0NIMl1bQ0BIXTRPW0NIMl1bQ0gzXQ==

>  <s_glide_docking_method>  (1) 
confgen

>  <s_i_glide_gridfile>  (1) 
gpcr_drd2_6luq_protein_autoprepared_prepared

>  <s_lp_Force_Field>  (1) 
S-OPLS

>  <s_lp_Variant>  (1) 
DiffSBDD_29_num_sample_50-6

>  <s_m_source_file>  (1) 
generated__ligand_DiffSBDD_2026-05-06_prepared.sdf

>  <GenAI_Model>  (1) 
DiffSBDD

>  <Protein>  (1) 
generic_title2

$$$$
DiffSBDD_38_num_sample_50
     RDKit          3D

  0  0  0  0  0  0  0  0  0  0999 V3000
M  V30 BEGIN CTAB
M  V30 COUNTS 60 62 0 0 1
M  V30 BEGIN ATOM
M  V30 1 C 5.779251 4.942348 -19.377818 0
M  V30 2 O 8.050131 4.834584 -20.148159 0
M  V30 3 S 9.556245 4.969305 -15.805466 0
M  V30 4 F 11.417721 6.334102 -6.541033 0
M  V30 5 C 10.383687 7.259011 -9.924270 0 CFG=2
M  V30 6 C 5.414735 7.453356 -19.882231 0
M  V30 7 C 9.407918 5.617961 -8.337127 0
M  V30 8 C 8.245463 5.949050 -13.115472 0
M  V30 9 C 4.963494 6.229915 -19.061930 0 CFG=2
M  V30 10 C 7.945671 5.369449 -15.529785 0
M  V30 11 N 7.729306 5.601640 -18.056125 0
M  V30 12 C 8.874796 5.486394 -10.693681 0
M  V30 13 C 5.987710 5.320506 -13.997474 0
M  V30 14 C 7.294203 5.114635 -19.222495 0
M  V30 15 F 12.185926 7.787514 -7.909159 0
M  V30 16 O 6.234848 7.769048 -16.084191 0
M  V30 17 C 8.173078 4.932279 -11.941933 0 CFG=2
M  V30 18 O 9.760765 6.518620 -10.959621 0
M  V30 19 C 8.926700 3.647064 -12.335573 0
M  V30 20 O 9.155902 8.569298 -6.691620 0
M  V30 21 C 8.687317 5.045960 -9.433547 0
M  V30 22 N 11.148331 9.137355 -5.820176 0
M  V30 23 C 6.675780 4.634283 -11.637452 0
M  V30 24 C 6.058626 6.738457 -16.733074 0
M  V30 25 C 10.366503 8.390957 -6.604887 0
M  V30 26 C 4.776589 6.569275 -17.555931 0
M  V30 27 C 10.225045 6.652411 -8.534693 0
M  V30 28 C 7.017061 5.524153 -16.773010 0 CFG=2
M  V30 29 N 7.411590 5.536210 -14.264804 0
M  V30 30 C 5.844227 4.273093 -12.884213 0
M  V30 31 N 9.834840 8.569008 -9.891613 0
M  V30 32 C 11.054700 7.279143 -7.411657 0
M  V30 33 H 5.435337 4.104037 -18.772149 0
M  V30 34 H 5.586298 4.651020 -20.411219 0
M  V30 35 H 11.444097 7.310891 -10.169683 0
M  V30 36 H 6.422288 7.769267 -19.615381 0
M  V30 37 H 5.412751 7.232516 -20.949738 0
M  V30 38 H 4.749193 8.302919 -19.721468 0
M  V30 39 H 9.297573 5.201623 -7.348549 0
M  V30 40 H 7.846613 6.905181 -12.774111 0
M  V30 41 H 9.282722 6.160476 -13.369614 0
M  V30 42 H 3.962233 5.995791 -19.415257 0
M  V30 43 H 8.724665 5.763472 -17.983557 0
M  V30 44 H 5.536867 6.263997 -13.686984 0
M  V30 45 H 5.434830 4.968413 -14.861391 0
M  V30 46 H 8.437770 3.102284 -13.141496 0
M  V30 47 H 9.936063 3.878698 -12.672783 0
M  V30 48 H 9.034786 2.968741 -11.491670 0
M  V30 49 H 7.994918 4.240368 -9.247955 0
M  V30 50 H 10.744213 9.880971 -5.272318 0
M  V30 51 H 12.139850 8.958068 -5.782526 0
M  V30 52 H 6.579339 3.825472 -10.913217 0
M  V30 53 H 6.229021 5.513122 -11.168340 0
M  V30 54 H 4.200683 5.773376 -17.084740 0
M  V30 55 H 6.441301 4.606165 -16.791374 0
M  V30 56 H 4.794798 4.169361 -12.608076 0
M  V30 57 H 6.149976 3.297839 -13.263095 0
M  V30 58 H 9.744594 8.926314 -10.829717 0
M  V30 59 H 8.872653 8.508002 -9.554827 0
M  V30 60 H 4.175189 7.473807 -17.454184 0
M  V30 END ATOM
M  V30 BEGIN BOND
M  V30 1 1 9 1
M  V30 2 1 9 6
M  V30 3 2 10 3
M  V30 4 1 14 1
M  V30 5 2 14 2
M  V30 6 1 14 11
M  V30 7 1 17 8
M  V30 8 1 17 12
M  V30 9 1 18 5
M  V30 10 1 18 12
M  V30 11 1 17 19 CFG=3
M  V30 12 1 21 7
M  V30 13 2 21 12
M  V30 14 1 23 17
M  V30 15 2 24 16
M  V30 16 2 25 20
M  V30 17 1 25 22
M  V30 18 1 26 9
M  V30 19 1 26 24
M  V30 20 1 27 5
M  V30 21 2 27 7
M  V30 22 1 28 10
M  V30 23 1 28 11
M  V30 24 1 28 24
M  V30 25 1 29 8
M  V30 26 1 29 10
M  V30 27 1 29 13
M  V30 28 1 30 13
M  V30 29 1 30 23
M  V30 30 1 31 5
M  V30 31 1 32 4
M  V30 32 1 32 15
M  V30 33 1 32 25
M  V30 34 1 32 27
M  V30 35 1 33 1
M  V30 36 1 34 1
M  V30 37 1 5 35 CFG=3
M  V30 38 1 36 6
M  V30 39 1 37 6
M  V30 40 1 38 6
M  V30 41 1 39 7
M  V30 42 1 40 8
M  V30 43 1 41 8
M  V30 44 1 9 42 CFG=3
M  V30 45 1 43 11
M  V30 46 1 44 13
M  V30 47 1 45 13
M  V30 48 1 46 19
M  V30 49 1 47 19
M  V30 50 1 48 19
M  V30 51 1 49 21
M  V30 52 1 50 22
M  V30 53 1 51 22
M  V30 54 1 52 23
M  V30 55 1 53 23
M  V30 56 1 54 26
M  V30 57 1 28 55 CFG=3
M  V30 58 1 56 30
M  V30 59 1 57 30
M  V30 60 1 58 31
M  V30 61 1 59 31
M  V30 62 1 60 26
M  V30 END BOND
M  V30 END CTAB
M  END
>  <i_epik_Tot_Q>  (1) 
0

>  <i_epik_Tot_abs_Q>  (1) 
0

>  <i_i_glide_confnum>  (1) 
18

>  <i_i_glide_lignum>  (1) 
96

>  <i_i_glide_posenum>  (1) 
281

>  <i_i_glide_rotatable_bonds>  (1) 
5

>  <i_lp_mmshare_version>  (1) 
72125

>  <i_m_source_file_index>  (1) 
39

>  <i_f3d_flags>  (1) 
0

>  <num_sample>  (1) 
50

>  <b_lp_Chiralities_Consistent>  (1) 
1

>  <r_epik_Charging_Adjusted_Penalty>  (1) 
0.0043173356697657605

>  <r_epik_Ionization_Penalty>  (1) 
2.5101429145755949

>  <r_epik_Ionization_Penalty_Charging>  (1) 
0

>  <r_epik_Ionization_Penalty_Neutral>  (1) 
2.5101429145755949

>  <r_epik_State_Penalty>  (1) 
0.0043173356697657605

>  <r_glide_ring_energy>  (1) 
0.02445303134611268

>  <r_i_docking_score>  (1) 
-6.1026388927541966

>  <r_i_glide_ecoul>  (1) 
0.96783640455559905

>  <r_i_glide_eff_state_penalty>  (1) 
0.0043173356697657605

>  <r_i_glide_einternal>  (1) 
15.855464586938181

>  <r_i_glide_emodel>  (1) 
-50.331963411685841

>  <r_i_glide_emodel_strain>  (1) 
0.67084443366564273

>  <r_i_glide_energy>  (1) 
-44.049194761822598

>  <r_i_glide_erotb>  (1) 
0.36503894659470715

>  <r_i_glide_esite>  (1) 
-0.045151796039690023

>  <r_i_glide_evdw>  (1) 
-45.017031166378196

>  <r_i_glide_gscore>  (1) 
-6.1069562284239627

>  <r_i_glide_gscore_strain>  (1) 
0

>  <r_i_glide_hbond>  (1) 
-0.16

>  <r_i_glide_ligand_efficiency>  (1) 
-0.19070746539856864

>  <r_i_glide_ligand_efficiency_ln>  (1) 
-1.3665471997410858

>  <r_i_glide_ligand_efficiency_sa>  (1) 
-0.60545846238375378

>  <r_i_glide_lipo>  (1) 
-1.6575886127071284

>  <r_i_glide_metal>  (1) 
-0

>  <r_i_glide_rewards>  (1) 
-2.5035786686362824

>  <r_lp_Energy>  (1) 
72.958390999999992

>  <r_lp_tautomer_probability>  (1) 
0.99999998000000001

>  <s_epik_Chemistry_Notes>  (1) 
This compound contains an acetal/aminal-like group ( X-CH(R)-Y where X, Y are N, S, or O) that may be acid/base labile, releasing an aldehyde.

>  <s_epik_cmdline>  (1) 
J2VwaWtfcHl0aG9uJywgJy1waHQnLCAnMS4wJywgJy1waCcsICc3LjQnLCAnLXRuJywgJzgnLCAnLW1hJywgJzUwMCcsICctaW1hZScsICc8aW5maWxlLm1hZT4nLCAnLW9tYWUnLCAnPG91dGZpbGUubWFlPic=

>  <s_epik_input>  (1) 
W0NIM11bQ0BASF0xW0NIMl1DKD1PKVtOSF1bQ0BIXShDKD1PKVtDSDJdMSlDKD1TKU4oW0NIMl1bQ0gyXVtDSDJdMilbQ0gyXVtDQEBdMihbQ0gzXSlDKE9bQ0BASF0zW05IMl0pPVtDSF1bQ0hdPUMzQyhGKShGKUMoPU8pW05IMl0=

>  <s_glide_docking_method>  (1) 
confgen

>  <s_i_glide_gridfile>  (1) 
gpcr_drd2_6luq_protein_autoprepared_prepared

>  <s_lp_Force_Field>  (1) 
S-OPLS

>  <s_lp_Variant>  (1) 
DiffSBDD_38_num_sample_50-4

>  <s_m_source_file>  (1) 
generated__ligand_DiffSBDD_2026-05-06_prepared.sdf

>  <GenAI_Model>  (1) 
DiffSBDD

>  <Protein>  (1) 
generic_title2

$$$$
DiffSBDD_23_num_sample_50
     RDKit          3D

  0  0  0  0  0  0  0  0  0  0999 V3000
M  V30 BEGIN CTAB
M  V30 COUNTS 68 70 0 0 1
M  V30 BEGIN ATOM
M  V30 1 C 8.754231 4.798632 -10.141747 0
M  V30 2 C 9.891350 7.468354 -10.390937 0
M  V30 3 C 11.834444 6.986158 -4.022764 0
M  V30 4 C 11.681147 9.417130 -3.887200 0
M  V30 5 C 8.961230 5.670087 -8.891793 0
M  V30 6 C 12.134173 9.369017 -2.559245 0
M  V30 7 C 8.074159 5.404250 -13.895298 0 CFG=1
M  V30 8 O 9.924119 6.170244 -18.932117 0 CHG=-1
M  V30 9 C 10.087454 6.699579 -9.080427 0 CFG=2
M  V30 10 O 11.067656 8.314563 -5.912652 0
M  V30 11 C 8.892475 5.462739 -18.907845 0
M  V30 12 C 9.686953 6.548918 -11.592688 0
M  V30 13 C 8.730944 4.489941 -17.706384 0
M  V30 14 N 8.560259 5.595790 -11.382699 0 CFG=1 CHG=1
M  V30 15 O 7.978996 5.476527 -19.762916 0
M  V30 16 C 6.685096 6.054580 -14.035873 0
M  V30 17 C 8.311612 4.688488 -12.544951 0
M  V30 18 C 7.016825 6.106747 -16.545800 0
M  V30 19 C 10.093039 3.775717 -17.512938 0
M  V30 20 C 12.295287 6.944345 -2.691490 0
M  V30 21 C 10.178011 7.711480 -7.939571 0
M  V30 22 C 10.746865 7.149335 -6.641019 0
M  V30 23 C 7.673045 3.404643 -18.038806 0
M  V30 24 C 8.380753 4.521071 -15.111449 0
M  V30 25 C 5.373488 7.708900 -15.507114 0
M  V30 26 C 8.352810 5.326499 -16.431765 0 CFG=1
M  V30 27 C 6.677259 6.941393 -15.291613 0 CFG=1
M  V30 28 C 11.525180 8.234963 -4.624239 0
M  V30 29 C 12.446547 8.138297 -1.962861 0
M  V30 30 H 9.608797 4.132117 -10.266928 0
M  V30 31 H 7.877558 4.169369 -9.986233 0
M  V30 32 H 9.034820 8.136781 -10.299514 0
M  V30 33 H 10.751023 8.113664 -10.577456 0
M  V30 34 H 11.717505 6.066961 -4.576900 0
M  V30 35 H 11.437760 10.367014 -4.340004 0
M  V30 36 H 9.181722 5.029926 -8.037305 0
M  V30 37 H 8.028688 6.169297 -8.646027 0
M  V30 38 H 12.234770 10.281143 -1.993567 0
M  V30 39 H 8.825191 6.169288 -13.999208 0
M  V30 40 H 11.034850 6.169413 -9.114247 0
M  V30 41 H 10.600649 6.004955 -11.835517 0
M  V30 42 H 9.490044 7.225656 -12.419450 0
M  V30 43 H 5.908629 5.290794 -14.099055 0
M  V30 44 H 6.461470 6.661336 -13.157865 0
M  V30 45 H 9.178252 4.031104 -12.639689 0
M  V30 46 H 7.461527 4.039326 -12.327731 0
M  V30 47 H 7.034402 6.768898 -17.411332 0
M  V30 48 H 6.202736 5.406016 -16.724097 0
M  V30 49 H 10.016137 2.936148 -16.822691 0
M  V30 50 H 10.468093 3.372328 -18.454707 0
M  V30 51 H 10.855807 4.452699 -17.125454 0
M  V30 52 H 12.531639 5.996361 -2.230901 0
M  V30 53 H 9.205319 8.171665 -7.754375 0
M  V30 54 H 10.833357 8.522985 -8.261568 0
M  V30 55 H 11.644449 6.558285 -6.830000 0
M  V30 56 H 10.007802 6.533837 -6.124922 0
M  V30 57 H 7.577108 2.672192 -17.237727 0
M  V30 58 H 6.684028 3.823164 -18.222828 0
M  V30 59 H 7.951986 2.855999 -18.939325 0
M  V30 60 H 9.398065 4.169302 -14.972441 0
M  V30 61 H 7.714248 3.659395 -15.145555 0
M  V30 62 H 4.597623 7.050011 -15.891583 0
M  V30 63 H 5.032779 8.169189 -14.582199 0
M  V30 64 H 5.506404 8.503556 -16.243095 0
M  V30 65 H 9.141865 6.072706 -16.322995 0
M  V30 66 H 7.434838 7.701436 -15.109780 0
M  V30 67 H 12.799763 8.111765 -0.945144 0
M  V30 68 H 7.730925 6.157691 -11.232839 0
M  V30 END ATOM
M  V30 BEGIN BOND
M  V30 1 1 5 1
M  V30 2 1 6 4
M  V30 3 1 9 2
M  V30 4 1 9 5
M  V30 5 1 11 8
M  V30 6 1 12 2
M  V30 7 1 13 11
M  V30 8 1 14 1
M  V30 9 1 14 12
M  V30 10 2 15 11
M  V30 11 1 16 7
M  V30 12 1 17 7
M  V30 13 1 17 14
M  V30 14 1 19 13
M  V30 15 2 20 3
M  V30 16 1 21 9
M  V30 17 1 22 10
M  V30 18 1 22 21
M  V30 19 1 23 13
M  V30 20 1 24 7
M  V30 21 1 26 13
M  V30 22 1 26 18
M  V30 23 1 26 24
M  V30 24 1 27 16
M  V30 25 1 27 18
M  V30 26 1 27 25
M  V30 27 1 28 3
M  V30 28 2 28 4
M  V30 29 1 28 10
M  V30 30 2 29 6
M  V30 31 1 29 20
M  V30 32 1 30 1
M  V30 33 1 31 1
M  V30 34 1 32 2
M  V30 35 1 33 2
M  V30 36 1 34 3
M  V30 37 1 35 4
M  V30 38 1 36 5
M  V30 39 1 37 5
M  V30 40 1 38 6
M  V30 41 1 7 39 CFG=1
M  V30 42 1 9 40 CFG=3
M  V30 43 1 41 12
M  V30 44 1 42 12
M  V30 45 1 43 16
M  V30 46 1 44 16
M  V30 47 1 45 17
M  V30 48 1 46 17
M  V30 49 1 47 18
M  V30 50 1 48 18
M  V30 51 1 49 19
M  V30 52 1 50 19
M  V30 53 1 51 19
M  V30 54 1 52 20
M  V30 55 1 53 21
M  V30 56 1 54 21
M  V30 57 1 55 22
M  V30 58 1 56 22
M  V30 59 1 57 23
M  V30 60 1 58 23
M  V30 61 1 59 23
M  V30 62 1 60 24
M  V30 63 1 61 24
M  V30 64 1 62 25
M  V30 65 1 63 25
M  V30 66 1 64 25
M  V30 67 1 26 65 CFG=1
M  V30 68 1 27 66 CFG=1
M  V30 69 1 67 29
M  V30 70 1 14 68 CFG=1
M  V30 END BOND
M  V30 END CTAB
M  END
>  <i_epik_Tot_Q>  (1) 
0

>  <i_epik_Tot_abs_Q>  (1) 
2

>  <i_i_glide_confnum>  (1) 
32

>  <i_i_glide_lignum>  (1) 
62

>  <i_i_glide_posenum>  (1) 
202

>  <i_i_glide_rotatable_bonds>  (1) 
8

>  <i_lp_mmshare_version>  (1) 
72125

>  <i_m_source_file_index>  (1) 
24

>  <i_f3d_flags>  (1) 
0

>  <num_sample>  (1) 
50

>  <b_lp_Chiralities_Consistent>  (1) 
1

>  <r_epik_Charging_Adjusted_Penalty>  (1) 
0.003094722008017318

>  <r_epik_Ionization_Penalty>  (1) 
0.003094722008017318

>  <r_epik_Ionization_Penalty_Charging>  (1) 
0.003094722008017318

>  <r_epik_Ionization_Penalty_Neutral>  (1) 
0

>  <r_epik_State_Penalty>  (1) 
-0

>  <r_glide_ring_energy>  (1) 
0

>  <r_i_docking_score>  (1) 
-6.0961905711353381

>  <r_i_glide_ecoul>  (1) 
-3.4609337914558904

>  <r_i_glide_eff_state_penalty>  (1) 
-0

>  <r_i_glide_einternal>  (1) 
13.458025157047054

>  <r_i_glide_emodel>  (1) 
-40.620772712343125

>  <r_i_glide_emodel_strain>  (1) 
0.82876076348196648

>  <r_i_glide_energy>  (1) 
-35.560009937466994

>  <r_i_glide_erotb>  (1) 
0.72975461734148295

>  <r_i_glide_esite>  (1) 
-0.029258119352758433

>  <r_i_glide_evdw>  (1) 
-32.0990761460111

>  <r_i_glide_gscore>  (1) 
-6.0961905711353381

>  <r_i_glide_gscore_strain>  (1) 
0

>  <r_i_glide_hbond>  (1) 
0

>  <r_i_glide_ligand_efficiency>  (1) 
-0.21021346797018409

>  <r_i_glide_ligand_efficiency_ln>  (1) 
-1.3958730547351581

>  <r_i_glide_ligand_efficiency_sa>  (1) 
-0.64584237463056959

>  <r_i_glide_lipo>  (1) 
-3.017512835147643

>  <r_i_glide_metal>  (1) 
-0

>  <r_i_glide_rewards>  (1) 
-1.65508035795748

>  <r_lp_Energy>  (1) 
52.616563999999997

>  <r_lp_tautomer_probability>  (1) 
1

>  <s_epik_cmdline>  (1) 
J2VwaWtfcHl0aG9uJywgJy1waHQnLCAnMS4wJywgJy1waCcsICc3LjQnLCAnLXRuJywgJzgnLCAnLW1hJywgJzUwMCcsICctaW1hZScsICc8aW5maWxlLm1hZT4nLCAnLW9tYWUnLCAnPG91dGZpbGUubWFlPic=

>  <s_epik_input>  (1) 
W09IXUMoPU8pQyhbQ0gzXSkoW0NIM10pW0NASF0oW0NIMl0xKVtDSDJdW0NAQEhdKFtDSDNdKVtDSDJdW0NASF0xW0NIMl1OKFtDSDJdW0NIMl0yKVtDSDJdW0NIMl1bQ0hdMltDSDJdW0NIMl1PYzNbY0hdW2NIXVtjSF1bY0hdW2NIXTM=

>  <s_glide_docking_method>  (1) 
confgen

>  <s_i_glide_gridfile>  (1) 
gpcr_drd2_6luq_protein_autoprepared_prepared

>  <s_lp_Force_Field>  (1) 
S-OPLS

>  <s_lp_Variant>  (1) 
DiffSBDD_23_num_sample_50-1

>  <s_m_source_file>  (1) 
generated__ligand_DiffSBDD_2026-05-06_prepared.sdf

>  <GenAI_Model>  (1) 
DiffSBDD

>  <Protein>  (1) 
generic_title2

$$$$
DiffSBDD_7_num_sample_50
     RDKit          3D

  0  0  0  0  0  0  0  0  0  0999 V3000
M  V30 BEGIN CTAB
M  V30 COUNTS 63 67 0 0 1
M  V30 BEGIN ATOM
M  V30 1 C 6.131960 6.628917 -18.972165 0 CFG=1
M  V30 2 C 9.670094 7.081985 -7.658442 0
M  V30 3 C 9.972174 6.958701 -6.291230 0
M  V30 4 C 4.820087 7.058119 -20.990566 0
M  V30 5 C 8.396092 5.530338 -11.239683 0 CFG=2
M  V30 6 C 11.014561 7.719497 -5.727980 0
M  V30 7 C 6.218756 7.870896 -15.229802 0
M  V30 8 C 7.402746 5.392184 -12.390550 0 CFG=2
M  V30 9 C 7.051023 6.766069 -13.016113 0 CFG=2
M  V30 10 C 10.495697 6.945442 -12.291654 0
M  V30 11 C 10.094402 8.099087 -9.932631 0
M  V30 12 C 11.757252 8.601443 -6.535072 0
M  V30 13 C 5.965075 7.765330 -16.725279 0
M  V30 14 C 5.833623 5.319147 -19.647270 0 CFG=2
M  V30 15 C 7.219283 5.910933 -19.750508 0
M  V30 16 O 5.976466 7.358065 -12.303544 0
M  V30 17 C 11.462945 8.716474 -7.903319 0
M  V30 18 C 9.807263 5.989049 -11.403819 0 CFG=1
M  V30 19 C 6.165438 4.556899 -11.957331 0
M  V30 20 C 5.278719 7.685142 -19.662508 0
M  V30 21 C 4.807923 5.542062 -20.734095 0
M  V30 22 C 10.684840 7.004453 -10.745158 0 CFG=1
M  V30 23 C 6.844040 6.646718 -14.551786 0
M  V30 24 C 6.360007 6.734413 -17.498519 0
M  V30 25 C 5.131118 4.287708 -13.067702 0
M  V30 26 C 10.415707 7.961630 -8.465433 0
M  V30 27 C 9.603276 4.534787 -11.217769 0
M  V30 28 H 8.864869 6.503095 -8.088629 0
M  V30 29 H 9.402503 6.282149 -5.671544 0
M  V30 30 H 3.863119 7.445415 -21.335709 0
M  V30 31 H 5.550545 7.285336 -21.768132 0
M  V30 32 H 7.937996 5.769307 -10.281773 0
M  V30 33 H 11.243476 7.625858 -4.677313 0
M  V30 34 H 5.268200 8.115095 -14.753877 0
M  V30 35 H 6.889419 8.716317 -15.091704 0
M  V30 36 H 7.918894 4.817425 -13.160780 0
M  V30 37 H 7.873264 7.461075 -12.878899 0
M  V30 38 H 9.972850 7.806188 -12.691684 0
M  V30 39 H 11.321902 6.567692 -12.890854 0
M  V30 40 H 9.034827 8.212909 -10.120393 0
M  V30 41 H 10.598023 8.969403 -10.294197 0
M  V30 42 H 12.557127 9.185495 -6.103783 0
M  V30 43 H 5.434960 8.590013 -17.172243 0
M  V30 44 H 5.711726 4.427670 -19.035240 0
M  V30 45 H 8.011905 5.419544 -19.189234 0
M  V30 46 H 7.530349 6.336043 -20.702918 0
M  V30 47 H 6.234842 7.446529 -11.389394 0
M  V30 48 H 12.037210 9.386910 -8.523380 0
M  V30 49 H 6.507088 3.598024 -11.567992 0
M  V30 50 H 5.665233 5.047314 -11.120923 0
M  V30 51 H 4.401061 7.904337 -19.053371 0
M  V30 52 H 5.834917 8.610802 -19.810707 0
M  V30 53 H 5.043153 4.962550 -21.627288 0
M  V30 54 H 3.834875 5.220302 -20.365214 0
M  V30 55 H 11.756630 6.969275 -10.566490 0
M  V30 56 H 6.253072 5.776726 -14.815873 0
M  V30 57 H 7.822474 6.461266 -14.997158 0
M  V30 58 H 6.888708 5.911349 -17.043581 0
M  V30 59 H 4.258058 3.769319 -12.691618 0
M  V30 60 H 5.562174 3.696905 -13.875583 0
M  V30 61 H 4.728856 5.206149 -13.491336 0
M  V30 62 H 9.834815 4.094328 -10.251094 0
M  V30 63 H 9.767902 3.891743 -12.080455 0
M  V30 END ATOM
M  V30 BEGIN BOND
M  V30 1 1 3 2
M  V30 2 2 6 3
M  V30 3 1 8 5
M  V30 4 1 9 8
M  V30 5 1 12 6
M  V30 6 1 13 7
M  V30 7 1 14 1
M  V30 8 1 15 1
M  V30 9 1 15 14
M  V30 10 1 16 9
M  V30 11 2 17 12
M  V30 12 1 18 5
M  V30 13 1 18 10 CFG=3
M  V30 14 1 19 8
M  V30 15 1 20 1
M  V30 16 1 20 4
M  V30 17 1 21 4
M  V30 18 1 21 14
M  V30 19 1 22 10
M  V30 20 1 22 11
M  V30 21 1 22 18
M  V30 22 1 23 7
M  V30 23 1 23 9
M  V30 24 1 1 24 CFG=1
M  V30 25 2 24 13
M  V30 26 1 25 19
M  V30 27 2 26 2
M  V30 28 1 26 11
M  V30 29 1 26 17
M  V30 30 1 27 5
M  V30 31 1 27 18
M  V30 32 1 28 2
M  V30 33 1 29 3
M  V30 34 1 30 4
M  V30 35 1 31 4
M  V30 36 1 5 32 CFG=1
M  V30 37 1 33 6
M  V30 38 1 34 7
M  V30 39 1 35 7
M  V30 40 1 8 36 CFG=3
M  V30 41 1 9 37 CFG=3
M  V30 42 1 38 10
M  V30 43 1 39 10
M  V30 44 1 40 11
M  V30 45 1 41 11
M  V30 46 1 42 12
M  V30 47 1 43 13
M  V30 48 1 14 44 CFG=1
M  V30 49 1 45 15
M  V30 50 1 46 15
M  V30 51 1 47 16
M  V30 52 1 48 17
M  V30 53 1 49 19
M  V30 54 1 50 19
M  V30 55 1 51 20
M  V30 56 1 52 20
M  V30 57 1 53 21
M  V30 58 1 54 21
M  V30 59 1 22 55 CFG=3
M  V30 60 1 56 23
M  V30 61 1 57 23
M  V30 62 1 58 24
M  V30 63 1 59 25
M  V30 64 1 60 25
M  V30 65 1 61 25
M  V30 66 1 62 27
M  V30 67 1 63 27
M  V30 END BOND
M  V30 END CTAB
M  END
>  <i_epik_Tot_Q>  (1) 
0

>  <i_epik_Tot_abs_Q>  (1) 
0

>  <i_i_glide_confnum>  (1) 
32

>  <i_i_glide_lignum>  (1) 
17

>  <i_i_glide_posenum>  (1) 
172

>  <i_i_glide_rotatable_bonds>  (1) 
10

>  <i_lp_mmshare_version>  (1) 
72125

>  <i_m_source_file_index>  (1) 
8

>  <i_f3d_flags>  (1) 
0

>  <num_sample>  (1) 
50

>  <b_lp_Chiralities_Consistent>  (1) 
1

>  <r_epik_Charging_Adjusted_Penalty>  (1) 
0

>  <r_epik_Ionization_Penalty>  (1) 
5.611789062664276e-07

>  <r_epik_Ionization_Penalty_Charging>  (1) 
0

>  <r_epik_Ionization_Penalty_Neutral>  (1) 
5.611789062664276e-07

>  <r_epik_State_Penalty>  (1) 
-0

>  <r_glide_ring_energy>  (1) 
0

>  <r_i_docking_score>  (1) 
-6.065330906498815

>  <r_i_glide_ecoul>  (1) 
-2.8564912064577896

>  <r_i_glide_eff_state_penalty>  (1) 
-0

>  <r_i_glide_einternal>  (1) 
12.67102596731397

>  <r_i_glide_emodel>  (1) 
-39.937998115654025

>  <r_i_glide_emodel_strain>  (1) 
1.2849327690270371

>  <r_i_glide_energy>  (1) 
-35.483766178853209

>  <r_i_glide_erotb>  (1) 
1.0125554383439441

>  <r_i_glide_esite>  (1) 
0

>  <r_i_glide_evdw>  (1) 
-32.627274972395419

>  <r_i_glide_gscore>  (1) 
-6.065330906498815

>  <r_i_glide_gscore_strain>  (1) 
0

>  <r_i_glide_hbond>  (1) 
-0.13829486198805641

>  <r_i_glide_ligand_efficiency>  (1) 
-0.22464188542588204

>  <r_i_glide_ligand_efficiency_ln>  (1) 
-1.4119090402379126

>  <r_i_glide_ligand_efficiency_sa>  (1) 
-0.67392565627764622

>  <r_i_glide_lipo>  (1) 
-3.0591173202894768

>  <r_i_glide_metal>  (1) 
-0

>  <r_i_glide_rewards>  (1) 
-1.8206367329767863

>  <r_lp_Energy>  (1) 
23.350185999999997

>  <r_lp_tautomer_probability>  (1) 
1

>  <s_epik_cmdline>  (1) 
J2VwaWtfcHl0aG9uJywgJy1waHQnLCAnMS4wJywgJy1waCcsICc3LjQnLCAnLXRuJywgJzgnLCAnLW1hJywgJzUwMCcsICctaW1hZScsICc8aW5maWxlLm1hZT4nLCAnLW9tYWUnLCAnPG91dGZpbGUubWFlPic=

>  <s_epik_input>  (1) 
W0NIMl0xW0NIMl1bQ0gyXVtDQEBIXShbQ0gyXTIpW0NAXTEyXFtDSF09W0NIXVxbQ0gyXVtDSDJdW0NAQEhdKFtPSF0pW0NASF0oW0NIMl1bQ0gzXSlbQ0BASF0oW0NIMl0zKVtDQF0zNFtDSDJdW0NASF00W0NIMl1jNVtjSF1bY0hdW2NIXVtjSF1bY0hdNQ==

>  <s_glide_docking_method>  (1) 
confgen

>  <s_i_glide_gridfile>  (1) 
gpcr_drd2_6luq_protein_autoprepared_prepared

>  <s_lp_Force_Field>  (1) 
S-OPLS

>  <s_lp_Variant>  (1) 
DiffSBDD_7_num_sample_50-2

>  <s_m_source_file>  (1) 
generated__ligand_DiffSBDD_2026-05-06_prepared.sdf

>  <GenAI_Model>  (1) 
DiffSBDD

>  <Protein>  (1) 
generic_title2

$$$$
DiffSBDD_38_num_sample_50
     RDKit          3D

  0  0  0  0  0  0  0  0  0  0999 V3000
M  V30 BEGIN CTAB
M  V30 COUNTS 60 62 0 0 1
M  V30 BEGIN ATOM
M  V30 1 C 6.432938 -0.084436 -16.086697 0
M  V30 2 O 7.219268 0.169489 -13.832346 0
M  V30 3 S 9.513922 4.969197 -16.647102 0
M  V30 4 F 11.556466 6.515763 -6.906286 0
M  V30 5 C 9.705322 5.562458 -8.711226 0 CFG=1
M  V30 6 C 6.877819 -1.456452 -18.165786 0
M  V30 7 C 10.436898 7.479236 -10.131224 0
M  V30 8 C 8.691316 5.451565 -13.652998 0
M  V30 9 C 7.423459 -0.360737 -17.235191 0 CFG=1
M  V30 10 C 8.325845 4.169840 -15.761941 0
M  V30 11 N 7.163685 2.040448 -15.086617 0
M  V30 12 C 9.201285 5.645486 -11.116016 0
M  V30 13 C 6.393687 4.759325 -14.328414 0
M  V30 14 C 6.987983 0.721159 -14.903695 0
M  V30 15 F 12.235430 8.145675 -8.114258 0
M  V30 16 O 9.731824 1.869992 -17.202424 0
M  V30 17 C 8.489840 4.864754 -12.227104 0 CFG=2
M  V30 18 O 9.209430 4.982392 -9.900195 0
M  V30 19 C 9.049445 3.425572 -12.242431 0
M  V30 20 O 10.889469 9.103532 -5.941548 0
M  V30 21 C 9.789886 6.851606 -11.247235 0
M  V30 22 N 9.034870 8.569347 -7.091558 0
M  V30 23 C 6.979449 4.863053 -11.864768 0
M  V30 24 C 8.503682 1.922928 -17.180218 0
M  V30 25 C 10.337130 8.465503 -6.835920 0
M  V30 26 C 7.742352 0.917001 -18.035154 0
M  V30 27 C 10.421326 6.899922 -8.925910 0
M  V30 28 C 7.645884 2.832557 -16.234725 0 CFG=2
M  V30 29 N 7.830753 4.717153 -14.594853 0
M  V30 30 C 6.085664 4.204718 -12.927579 0
M  V30 31 N 8.634878 5.685275 -7.771998 0
M  V30 32 C 11.141551 7.495740 -7.710798 0
M  V30 33 H 5.542016 0.414852 -16.468396 0
M  V30 34 H 6.079900 -1.031496 -15.677607 0
M  V30 35 H 10.439582 4.862219 -8.312323 0
M  V30 36 H 5.938033 -1.156566 -18.630933 0
M  V30 37 H 7.585034 -1.690968 -18.961476 0
M  V30 38 H 6.694961 -2.380589 -17.616071 0
M  V30 39 H 10.952072 8.418327 -10.270062 0
M  V30 40 H 8.388844 6.498796 -13.683721 0
M  V30 41 H 9.752003 5.408192 -13.905288 0
M  V30 42 H 8.349529 -0.748380 -16.804077 0
M  V30 43 H 7.326580 2.523865 -14.214679 0
M  V30 44 H 6.076497 5.801324 -14.382925 0
M  V30 45 H 5.834522 4.237222 -15.091667 0
M  V30 46 H 8.508113 2.750557 -12.897798 0
M  V30 47 H 10.087189 3.422508 -12.574309 0
M  V30 48 H 9.034841 2.969393 -11.256997 0
M  V30 49 H 9.783631 7.350602 -12.203094 0
M  V30 50 H 8.461655 9.186601 -6.537813 0
M  V30 51 H 8.617683 8.031410 -7.843670 0
M  V30 52 H 6.819209 4.373047 -10.902683 0
M  V30 53 H 6.647591 5.893696 -11.726839 0
M  V30 54 H 6.828765 1.371783 -18.417781 0
M  V30 55 H 6.765899 3.122883 -16.805912 0
M  V30 56 H 5.036843 4.376435 -12.684874 0
M  V30 57 H 6.218982 3.125041 -12.894518 0
M  V30 58 H 8.922394 6.089648 -6.891857 0
M  V30 59 H 7.867670 6.252424 -8.127297 0
M  V30 60 H 8.358245 0.671662 -18.901298 0
M  V30 END ATOM
M  V30 BEGIN BOND
M  V30 1 1 9 1
M  V30 2 1 9 6
M  V30 3 2 10 3
M  V30 4 1 14 1
M  V30 5 2 14 2
M  V30 6 1 14 11
M  V30 7 1 17 8
M  V30 8 1 17 12
M  V30 9 1 18 5
M  V30 10 1 18 12
M  V30 11 1 17 19 CFG=3
M  V30 12 1 21 7
M  V30 13 2 21 12
M  V30 14 1 23 17
M  V30 15 2 24 16
M  V30 16 2 25 20
M  V30 17 1 25 22
M  V30 18 1 26 9
M  V30 19 1 26 24
M  V30 20 1 27 5
M  V30 21 2 27 7
M  V30 22 1 28 10
M  V30 23 1 28 11
M  V30 24 1 28 24
M  V30 25 1 29 8
M  V30 26 1 29 10
M  V30 27 1 29 13
M  V30 28 1 30 13
M  V30 29 1 30 23
M  V30 30 1 31 5
M  V30 31 1 32 4
M  V30 32 1 32 15
M  V30 33 1 32 25
M  V30 34 1 32 27
M  V30 35 1 33 1
M  V30 36 1 34 1
M  V30 37 1 5 35 CFG=1
M  V30 38 1 36 6
M  V30 39 1 37 6
M  V30 40 1 38 6
M  V30 41 1 39 7
M  V30 42 1 40 8
M  V30 43 1 41 8
M  V30 44 1 9 42 CFG=1
M  V30 45 1 43 11
M  V30 46 1 44 13
M  V30 47 1 45 13
M  V30 48 1 46 19
M  V30 49 1 47 19
M  V30 50 1 48 19
M  V30 51 1 49 21
M  V30 52 1 50 22
M  V30 53 1 51 22
M  V30 54 1 52 23
M  V30 55 1 53 23
M  V30 56 1 54 26
M  V30 57 1 28 55 CFG=3
M  V30 58 1 56 30
M  V30 59 1 57 30
M  V30 60 1 58 31
M  V30 61 1 59 31
M  V30 62 1 60 26
M  V30 END BOND
M  V30 END CTAB
M  END
>  <i_epik_Tot_Q>  (1) 
0

>  <i_epik_Tot_abs_Q>  (1) 
0

>  <i_i_glide_confnum>  (1) 
97

>  <i_i_glide_lignum>  (1) 
93

>  <i_i_glide_posenum>  (1) 
289

>  <i_i_glide_rotatable_bonds>  (1) 
5

>  <i_lp_mmshare_version>  (1) 
72125

>  <i_m_source_file_index>  (1) 
39

>  <i_f3d_flags>  (1) 
0

>  <num_sample>  (1) 
50

>  <b_lp_Chiralities_Consistent>  (1) 
1

>  <r_epik_Charging_Adjusted_Penalty>  (1) 
0.0043173356697657605

>  <r_epik_Ionization_Penalty>  (1) 
2.5101429145755949

>  <r_epik_Ionization_Penalty_Charging>  (1) 
0

>  <r_epik_Ionization_Penalty_Neutral>  (1) 
2.5101429145755949

>  <r_epik_State_Penalty>  (1) 
0.0043173356697657605

>  <r_glide_ring_energy>  (1) 
0.024453031346160229

>  <r_i_docking_score>  (1) 
-6.051370172017144

>  <r_i_glide_ecoul>  (1) 
-2.8764873316113269

>  <r_i_glide_eff_state_penalty>  (1) 
0.0043173356697657605

>  <r_i_glide_einternal>  (1) 
31.944926573683343

>  <r_i_glide_emodel>  (1) 
-48.16663008915306

>  <r_i_glide_emodel_strain>  (1) 
0.59345185917236165

>  <r_i_glide_energy>  (1) 
-47.463732506662424

>  <r_i_glide_erotb>  (1) 
0.36503894659470715

>  <r_i_glide_esite>  (1) 
-0.08174440739861244

>  <r_i_glide_evdw>  (1) 
-44.587245175051095

>  <r_i_glide_gscore>  (1) 
-6.0556875076869101

>  <r_i_glide_gscore_strain>  (1) 
0

>  <r_i_glide_hbond>  (1) 
-0.25667357599089341

>  <r_i_glide_ligand_efficiency>  (1) 
-0.18910531787553575

>  <r_i_glide_ligand_efficiency_ln>  (1) 
-1.3550667356355146

>  <r_i_glide_ligand_efficiency_sa>  (1) 
-0.60037196105681245

>  <r_i_glide_lipo>  (1) 
-1.0339139477374026

>  <r_i_glide_metal>  (1) 
-0

>  <r_i_glide_rewards>  (1) 
-2.3875591646604555

>  <r_lp_Energy>  (1) 
65.752579999999995

>  <r_lp_tautomer_probability>  (1) 
0.99999998000000001

>  <s_epik_Chemistry_Notes>  (1) 
This compound contains an acetal/aminal-like group ( X-CH(R)-Y where X, Y are N, S, or O) that may be acid/base labile, releasing an aldehyde.

>  <s_epik_cmdline>  (1) 
J2VwaWtfcHl0aG9uJywgJy1waHQnLCAnMS4wJywgJy1waCcsICc3LjQnLCAnLXRuJywgJzgnLCAnLW1hJywgJzUwMCcsICctaW1hZScsICc8aW5maWxlLm1hZT4nLCAnLW9tYWUnLCAnPG91dGZpbGUubWFlPic=

>  <s_epik_input>  (1) 
W0NIM11bQ0BASF0xW0NIMl1DKD1PKVtOSF1bQ0BIXShDKD1PKVtDSDJdMSlDKD1TKU4oW0NIMl1bQ0gyXVtDSDJdMilbQ0gyXVtDQEBdMihbQ0gzXSlDKE9bQ0BASF0zW05IMl0pPVtDSF1bQ0hdPUMzQyhGKShGKUMoPU8pW05IMl0=

>  <s_glide_docking_method>  (1) 
confgen

>  <s_i_glide_gridfile>  (1) 
gpcr_drd2_6luq_protein_autoprepared_prepared

>  <s_lp_Force_Field>  (1) 
S-OPLS

>  <s_lp_Variant>  (1) 
DiffSBDD_38_num_sample_50-1

>  <s_m_source_file>  (1) 
generated__ligand_DiffSBDD_2026-05-06_prepared.sdf

>  <GenAI_Model>  (1) 
DiffSBDD

>  <Protein>  (1) 
generic_title2

$$$$
DiffSBDD_37_num_sample_50
     RDKit          3D

  0  0  0  0  0  0  0  0  0  0999 V3000
M  V30 BEGIN CTAB
M  V30 COUNTS 43 45 0 0 1
M  V30 BEGIN ATOM
M  V30 1 C 10.067555 7.530022 -6.385527 0
M  V30 2 N 10.225689 6.958257 -10.065248 0
M  V30 3 N 6.589220 5.728075 -13.152250 0 CHG=1
M  V30 4 C 11.189404 8.338409 -6.161088 0
M  V30 5 C 12.026593 8.699445 -7.247517 0
M  V30 6 C 11.735512 8.251171 -8.550028 0
M  V30 7 C 5.906662 4.043313 -11.454314 0
M  V30 8 C 12.436082 9.768941 -4.679752 0
M  V30 9 C 6.623633 4.299438 -12.785606 0 CFG=2
M  V30 10 C 10.559986 6.769357 -12.291016 0
M  V30 11 C 7.791778 5.997285 -13.957316 0 CFG=2
M  V30 12 S 8.938064 5.769294 -10.467982 0
M  V30 13 C 10.576959 7.433431 -8.775659 0
M  V30 14 N 10.947670 7.347659 -11.158136 0
M  V30 15 C 8.111992 3.888336 -12.832592 0
M  V30 16 C 7.566165 5.639359 -15.437509 0
M  V30 17 O 11.462638 8.762003 -4.877646 0
M  V30 18 C 9.759958 7.082108 -7.678473 0
M  V30 19 O 12.577244 8.598272 -9.578422 0
M  V30 20 C 9.543121 5.937389 -12.164701 0
M  V30 21 C 8.884886 5.146766 -13.292743 0 CFG=2
M  V30 22 H 9.434546 7.251769 -5.557823 0
M  V30 23 H 5.740631 5.980788 -13.636769 0
M  V30 24 H 12.898022 9.312075 -7.081966 0
M  V30 25 H 5.835368 2.977152 -11.240380 0
M  V30 26 H 6.405042 4.518598 -10.610783 0
M  V30 27 H 4.893675 4.437314 -11.492091 0
M  V30 28 H 12.381621 10.123127 -3.651404 0
M  V30 29 H 13.446429 9.396067 -4.853165 0
M  V30 30 H 12.234741 10.611591 -5.337788 0
M  V30 31 H 6.092657 3.754398 -13.567876 0
M  V30 32 H 11.094851 7.025281 -13.190398 0
M  V30 33 H 8.023011 7.061335 -13.892125 0
M  V30 34 H 11.735999 7.980725 -11.055884 0
M  V30 35 H 8.235105 3.097727 -13.574371 0
M  V30 36 H 8.479000 3.467549 -11.896158 0
M  V30 37 H 8.483230 5.769464 -16.012680 0
M  V30 38 H 7.252342 4.603354 -15.568708 0
M  V30 39 H 6.803141 6.277005 -15.885172 0
M  V30 40 H 8.885960 6.466554 -7.831529 0
M  V30 41 H 13.241841 9.239705 -9.357830 0
M  V30 42 H 9.670106 4.879376 -14.001920 0
M  V30 43 H 6.665161 6.267159 -12.298982 0
M  V30 END ATOM
M  V30 BEGIN BOND
M  V30 1 1 4 1
M  V30 2 2 5 4
M  V30 3 1 6 5
M  V30 4 1 9 3
M  V30 5 1 9 7
M  V30 6 1 11 3
M  V30 7 1 12 2
M  V30 8 1 13 2
M  V30 9 2 13 6
M  V30 10 1 14 2
M  V30 11 1 14 10
M  V30 12 1 15 9
M  V30 13 1 16 11
M  V30 14 1 17 4
M  V30 15 1 17 8
M  V30 16 2 18 1
M  V30 17 1 18 13
M  V30 18 1 19 6
M  V30 19 2 20 10
M  V30 20 1 20 12
M  V30 21 1 21 11
M  V30 22 1 21 15
M  V30 23 1 21 20
M  V30 24 1 22 1
M  V30 25 1 23 3
M  V30 26 1 24 5
M  V30 27 1 25 7
M  V30 28 1 26 7
M  V30 29 1 27 7
M  V30 30 1 28 8
M  V30 31 1 29 8
M  V30 32 1 30 8
M  V30 33 1 9 31 CFG=3
M  V30 34 1 32 10
M  V30 35 1 11 33 CFG=3
M  V30 36 1 34 14
M  V30 37 1 35 15
M  V30 38 1 36 15
M  V30 39 1 37 16
M  V30 40 1 38 16
M  V30 41 1 39 16
M  V30 42 1 40 18
M  V30 43 1 41 19
M  V30 44 1 21 42 CFG=3
M  V30 45 1 43 3
M  V30 END BOND
M  V30 END CTAB
M  END
>  <i_epik_Tot_Q>  (1) 
1

>  <i_epik_Tot_abs_Q>  (1) 
1

>  <i_i_glide_confnum>  (1) 
6

>  <i_i_glide_lignum>  (1) 
92

>  <i_i_glide_posenum>  (1) 
308

>  <i_i_glide_rotatable_bonds>  (1) 
4

>  <i_lp_mmshare_version>  (1) 
72125

>  <i_m_source_file_index>  (1) 
38

>  <i_f3d_flags>  (1) 
0

>  <num_sample>  (1) 
50

>  <b_lp_Chiralities_Consistent>  (1) 
1

>  <r_epik_Charging_Adjusted_Penalty>  (1) 
0.0014043227577044803

>  <r_epik_Ionization_Penalty>  (1) 
0.0059697486383219651

>  <r_epik_Ionization_Penalty_Charging>  (1) 
0.0014043227577044803

>  <r_epik_Ionization_Penalty_Neutral>  (1) 
0.0045654258806174849

>  <r_epik_State_Penalty>  (1) 
-0

>  <r_glide_ring_energy>  (1) 
0

>  <r_i_docking_score>  (1) 
-6.0418535873402703

>  <r_i_glide_ecoul>  (1) 
-4.0858125360751147

>  <r_i_glide_eff_state_penalty>  (1) 
-0

>  <r_i_glide_einternal>  (1) 
1.68661203330287

>  <r_i_glide_emodel>  (1) 
-49.342745885498509

>  <r_i_glide_emodel_strain>  (1) 
0.053755594642240112

>  <r_i_glide_energy>  (1) 
-35.896249751440436

>  <r_i_glide_erotb>  (1) 
0.38898511058673108

>  <r_i_glide_esite>  (1) 
-0.063715961930955411

>  <r_i_glide_evdw>  (1) 
-31.810437215365319

>  <r_i_glide_gscore>  (1) 
-6.0418535873402703

>  <r_i_glide_gscore_strain>  (1) 
0

>  <r_i_glide_hbond>  (1) 
-0.26771768800480805

>  <r_i_glide_ligand_efficiency>  (1) 
-0.28770731368287

>  <r_i_glide_ligand_efficiency_ln>  (1) 
-1.4938360907551558

>  <r_i_glide_ligand_efficiency_sa>  (1) 
-0.79376266344133695

>  <r_i_glide_lipo>  (1) 
-2.3098851747667113

>  <r_i_glide_metal>  (1) 
-0

>  <r_i_glide_rewards>  (1) 
-1.5861261320449935

>  <r_lp_Energy>  (1) 
16.995556000000001

>  <r_lp_tautomer_probability>  (1) 
1

>  <s_epik_Chemistry_Notes>  (1) 
This compound has a N-S or N-O group and may undergo hydrolysis at high or low pH.

>  <s_epik_cmdline>  (1) 
J2VwaWtfcHl0aG9uJywgJy1waHQnLCAnMS4wJywgJy1waCcsICc3LjQnLCAnLXRuJywgJzgnLCAnLW1hJywgJzUwMCcsICctaW1hZScsICc8aW5maWxlLm1hZT4nLCAnLW9tYWUnLCAnPG91dGZpbGUubWFlPic=

>  <s_epik_input>  (1) 
W0NIM11PYzFbY0hdW2NIXWMoYyhbY0hdMSlbT0hdKU4yU0MoPVtDSF1bTkhdMilbQ0BASF0oW0NIMl0zKVtDQEBIXShbQ0gzXSlbTkhdW0NAQEhdM1tDSDNd

>  <s_glide_docking_method>  (1) 
confgen

>  <s_i_glide_gridfile>  (1) 
gpcr_drd2_6luq_protein_autoprepared_prepared

>  <s_lp_Force_Field>  (1) 
S-OPLS

>  <s_lp_Variant>  (1) 
DiffSBDD_37_num_sample_50-1

>  <s_m_source_file>  (1) 
generated__ligand_DiffSBDD_2026-05-06_prepared.sdf

>  <GenAI_Model>  (1) 
DiffSBDD

>  <Protein>  (1) 
generic_title2

$$$$
DiffSBDD_0_num_sample_50
     RDKit          3D

  0  0  0  0  0  0  0  0  0  0999 V3000
M  V30 BEGIN CTAB
M  V30 COUNTS 58 61 0 0 1
M  V30 BEGIN ATOM
M  V30 1 C 10.087427 7.095842 -6.700816 0
M  V30 2 C 6.756445 5.905096 -13.787627 0 CFG=2
M  V30 3 N 7.616376 6.072033 -12.579396 0 CFG=2 CHG=1
M  V30 4 N 9.034497 5.548556 -9.902054 0
M  V30 5 C 3.972165 7.363005 -18.706246 0
M  V30 6 C 6.241155 6.104287 -18.766706 0
M  V30 7 C 8.578913 4.681954 -15.106063 0
M  V30 8 S 5.434256 7.079290 -16.374756 0
M  V30 9 O 6.930210 8.148348 -11.891669 0
M  V30 10 C 10.017527 6.804290 -8.082681 0
M  V30 11 C 5.850794 4.685393 -13.516278 0
M  V30 12 C 9.034364 5.769203 -8.578912 0
M  V30 13 C 5.595275 5.585546 -11.079804 0
M  V30 14 C 7.590517 5.852804 -15.104200 0 CFG=1
M  V30 15 C 8.075857 4.644903 -10.542548 0
M  V30 16 N 9.834880 4.969273 -14.816223 0
M  V30 17 O 8.202698 3.542997 -15.363860 0
M  V30 18 F 12.689115 9.687007 -6.667285 0
M  V30 19 O 8.283031 5.191458 -7.802783 0
M  V30 20 C 10.987540 8.067834 -6.226795 0
M  V30 21 C 6.713417 5.798510 -16.375578 0 CFG=2
M  V30 22 C 5.929765 4.476448 -12.036773 0 CFG=2
M  V30 23 C 11.763015 8.469023 -8.505306 0
M  V30 24 F 3.434835 6.169300 -18.691486 0
M  V30 25 F 3.204116 8.169294 -17.980501 0
M  V30 26 C 7.045752 5.298753 -11.447711 0 CFG=2
M  V30 27 C 8.091182 7.457019 -12.271247 0
M  V30 28 F 11.048162 8.344491 -4.902260 0
M  V30 29 C 11.824220 8.753416 -7.127118 0
M  V30 30 C 5.385472 7.235334 -18.168153 0 CFG=2
M  V30 31 C 7.372822 5.813397 -17.773027 0
M  V30 32 C 10.862501 7.497824 -8.987362 0
M  V30 33 H 9.445372 6.573805 -6.004081 0
M  V30 34 H 6.099124 6.772878 -13.806265 0
M  V30 35 H 9.686309 6.045378 -10.484310 0
M  V30 36 H 3.968423 7.742723 -19.728742 0
M  V30 37 H 5.643880 5.199731 -18.883661 0
M  V30 38 H 6.622785 6.364627 -19.754492 0
M  V30 39 H 6.904215 8.168781 -10.921370 0
M  V30 40 H 6.181193 3.771395 -14.004162 0
M  V30 41 H 4.820871 4.866299 -13.825769 0
M  V30 42 H 5.255728 5.293478 -10.097294 0
M  V30 43 H 5.087632 6.457123 -11.486146 0
M  V30 44 H 8.160052 6.776725 -15.096527 0
M  V30 45 H 7.501761 4.094485 -9.799669 0
M  V30 46 H 8.635433 3.903899 -11.114914 0
M  V30 47 H 10.108371 5.920231 -14.628948 0
M  V30 48 H 10.529906 4.230283 -14.792506 0
M  V30 49 H 6.234826 4.833798 -16.337141 0
M  V30 50 H 5.791009 3.457425 -11.680905 0
M  V30 51 H 12.406455 8.998176 -9.193632 0
M  V30 52 H 8.521623 7.938099 -13.140105 0
M  V30 53 H 8.830563 7.506059 -11.476890 0
M  V30 54 H 5.834890 8.169915 -18.416361 0
M  V30 55 H 8.143641 6.569297 -17.891051 0
M  V30 56 H 7.847969 4.857665 -17.995999 0
M  V30 57 H 10.820378 7.290975 -10.044784 0
M  V30 58 H 8.453859 5.556629 -12.806401 0
M  V30 END ATOM
M  V30 BEGIN BOND
M  V30 1 1 3 2
M  V30 2 2 10 1
M  V30 3 1 11 2
M  V30 4 1 12 4
M  V30 5 1 12 10
M  V30 6 1 14 2
M  V30 7 1 14 7
M  V30 8 1 15 4
M  V30 9 1 16 7
M  V30 10 2 17 7
M  V30 11 2 19 12
M  V30 12 1 20 1
M  V30 13 1 21 8
M  V30 14 1 21 14
M  V30 15 1 22 11
M  V30 16 1 22 13
M  V30 17 1 24 5
M  V30 18 1 25 5
M  V30 19 1 26 3
M  V30 20 1 26 13
M  V30 21 1 26 15 CFG=1
M  V30 22 1 26 22
M  V30 23 1 27 3
M  V30 24 1 27 9
M  V30 25 1 28 20
M  V30 26 1 29 18
M  V30 27 2 29 20
M  V30 28 1 29 23
M  V30 29 1 30 5
M  V30 30 1 30 6
M  V30 31 1 30 8
M  V30 32 1 31 6
M  V30 33 1 31 21
M  V30 34 1 32 10
M  V30 35 2 32 23
M  V30 36 1 33 1
M  V30 37 1 2 34 CFG=3
M  V30 38 1 35 4
M  V30 39 1 36 5
M  V30 40 1 37 6
M  V30 41 1 38 6
M  V30 42 1 39 9
M  V30 43 1 40 11
M  V30 44 1 41 11
M  V30 45 1 42 13
M  V30 46 1 43 13
M  V30 47 1 14 44 CFG=3
M  V30 48 1 45 15
M  V30 49 1 46 15
M  V30 50 1 47 16
M  V30 51 1 48 16
M  V30 52 1 21 49 CFG=1
M  V30 53 1 22 50 CFG=1
M  V30 54 1 51 23
M  V30 55 1 52 27
M  V30 56 1 53 27
M  V30 57 1 30 54 CFG=1
M  V30 58 1 55 31
M  V30 59 1 56 31
M  V30 60 1 57 32
M  V30 61 1 3 58 CFG=3
M  V30 END BOND
M  V30 END CTAB
M  END
>  <i_epik_Tot_Q>  (1) 
1

>  <i_epik_Tot_abs_Q>  (1) 
1

>  <i_i_glide_confnum>  (1) 
242

>  <i_i_glide_lignum>  (1) 
2

>  <i_i_glide_posenum>  (1) 
153

>  <i_i_glide_rotatable_bonds>  (1) 
10

>  <i_lp_mmshare_version>  (1) 
72125

>  <i_m_source_file_index>  (1) 
1

>  <i_f3d_flags>  (1) 
0

>  <num_sample>  (1) 
50

>  <b_lp_Chiralities_Consistent>  (1) 
1

>  <r_epik_Charging_Adjusted_Penalty>  (1) 
2.6270329568783799

>  <r_epik_Ionization_Penalty>  (1) 
1.3408557112072272

>  <r_epik_Ionization_Penalty_Charging>  (1) 
1.3119003563655398

>  <r_epik_Ionization_Penalty_Neutral>  (1) 
0.028955354841687337

>  <r_epik_State_Penalty>  (1) 
1.3151326005128403

>  <r_glide_ring_energy>  (1) 
0

>  <r_i_docking_score>  (1) 
-6.0294492129603219

>  <r_i_glide_ecoul>  (1) 
-11.514507847404474

>  <r_i_glide_eff_state_penalty>  (1) 
1.3151326005128403

>  <r_i_glide_einternal>  (1) 
10.028446887068379

>  <r_i_glide_emodel>  (1) 
-53.913558738438553

>  <r_i_glide_emodel_strain>  (1) 
0.84013721702073951

>  <r_i_glide_energy>  (1) 
-37.613519791781265

>  <r_i_glide_erotb>  (1) 
0.53508942527165992

>  <r_i_glide_esite>  (1) 
-0.24184741008604349

>  <r_i_glide_evdw>  (1) 
-26.099011944376791

>  <r_i_glide_gscore>  (1) 
-7.3445818134731624

>  <r_i_glide_gscore_strain>  (1) 
0

>  <r_i_glide_hbond>  (1) 
-0.3271548305050721

>  <r_i_glide_ligand_efficiency>  (1) 
-0.18842028790501006

>  <r_i_glide_ligand_efficiency_ln>  (1) 
-1.3501580353599163

>  <r_i_glide_ligand_efficiency_sa>  (1) 
-0.59819712646512802

>  <r_i_glide_lipo>  (1) 
-2.4544274463645346

>  <r_i_glide_metal>  (1) 
-0

>  <r_i_glide_rewards>  (1) 
-1.8241147774596611

>  <r_lp_Energy>  (1) 
13.303457999999999

>  <s_epik_Chemistry_Notes>  (1) 
This compound contains an acetal/aminal-like group ( X-CH(R)-Y where X, Y are N, S, or O) that may be acid/base labile, releasing an aldehyde.

>  <s_epik_cmdline>  (1) 
J2VwaWtfcHl0aG9uJywgJy1waHQnLCAnMS4wJywgJy1waCcsICc3LjQnLCAnLXRuJywgJzgnLCAnLW1hJywgJzUwMCcsICctaW1hZScsICc8aW5maWxlLm1hZT4nLCAnLW9tYWUnLCAnPG91dGZpbGUubWFlPic=

>  <s_epik_input>  (1) 
W2NIXTFbY0hdYyhGKWMoRilbY0hdYzFDKD1PKVtOSF1bQ0gyXVtDQF0yM1tDQEBIXShbQ0gyXTMpW0NIMl1bQ0BASF0oTjJbQ0gyXVtPSF0pW0NAQEhdKEMoPU8pW05IMl0pW0NASF00U1tDQEhdKFtDSF0oRilGKVtDSDJdW0NIMl00

>  <s_glide_docking_method>  (1) 
confgen

>  <s_i_glide_gridfile>  (1) 
gpcr_drd2_6luq_protein_autoprepared_prepared

>  <s_lp_Force_Field>  (1) 
S-OPLS

>  <s_lp_Variant>  (1) 
DiffSBDD_0_num_sample_50-2

>  <s_m_source_file>  (1) 
generated__ligand_DiffSBDD_2026-05-06_prepared.sdf

>  <GenAI_Model>  (1) 
DiffSBDD

>  <Protein>  (1) 
generic_title2

$$$$
DiffSBDD_3_num_sample_50
     RDKit          3D

  0  0  0  0  0  0  0  0  0  0999 V3000
M  V30 BEGIN CTAB
M  V30 COUNTS 57 60 0 0 1
M  V30 BEGIN ATOM
M  V30 1 C 7.416378 5.059122 -19.463177 0
M  V30 2 C 11.774482 8.627375 -7.352293 0
M  V30 3 C 5.199703 6.135626 -19.467890 0
M  V30 4 F 4.337876 6.968169 -17.452870 0
M  V30 5 C 8.718121 4.204581 -12.327171 0
M  V30 6 C 7.821993 3.437221 -13.329935 0 CFG=2
M  V30 7 C 11.035314 7.765623 -6.519448 0
M  V30 8 C 10.739317 7.622015 -9.320240 0
M  V30 9 C 8.540477 4.411784 -16.245545 0 CFG=1
M  V30 10 C 6.911523 4.330893 -14.203160 0
M  V30 11 C 9.034835 5.742404 -9.077851 0
M  V30 12 C 7.576160 5.187976 -15.305921 0 CFG=2
M  V30 13 C 5.458712 6.890505 -18.172517 0 CFG=1
M  V30 14 C 6.487440 5.899044 -16.101917 0
M  V30 15 O 6.425969 1.395630 -13.616613 0
M  V30 16 C 7.975375 3.077959 -16.784626 0
M  V30 17 C 7.393601 0.885996 -12.691668 0
M  V30 18 C 6.587135 6.216175 -17.410544 0
M  V30 19 C 9.994587 6.749338 -8.484435 0
M  V30 20 C 11.626855 8.555976 -8.750463 0
M  V30 21 N 8.923763 5.769331 -10.420437 0
M  V30 22 C 6.078650 5.293098 -20.054810 0
M  V30 23 C 10.149388 6.828047 -7.081850 0
M  V30 24 O 8.207479 4.239558 -19.926344 0
M  V30 25 O 8.404790 4.969152 -8.356913 0
M  V30 26 C 7.998191 4.909366 -11.161689 0
M  V30 27 C 8.997661 5.330394 -17.393907 0
M  V30 28 C 7.824858 5.900549 -18.234996 0 CFG=1
M  V30 29 C 6.986870 2.339443 -12.691703 0 CFG=1
M  V30 30 H 12.454678 9.345001 -6.917463 0
M  V30 31 H 4.235074 6.289768 -19.924527 0
M  V30 32 H 9.438272 3.501716 -11.906000 0
M  V30 33 H 9.311713 4.933223 -12.880536 0
M  V30 34 H 8.513054 2.915829 -13.984929 0
M  V30 35 H 11.148971 7.823160 -5.447174 0
M  V30 36 H 10.632202 7.576911 -10.392622 0
M  V30 37 H 9.435171 4.169331 -15.672054 0
M  V30 38 H 6.310250 4.971828 -13.558365 0
M  V30 39 H 6.188617 3.684546 -14.694340 0
M  V30 40 H 8.146207 5.974554 -14.809752 0
M  V30 41 H 5.730257 7.914013 -18.420558 0
M  V30 42 H 5.582571 6.141760 -15.563630 0
M  V30 43 H 7.032422 3.220360 -17.308833 0
M  V30 44 H 8.673385 2.617110 -17.483957 0
M  V30 45 H 7.792173 2.349202 -15.996948 0
M  V30 46 H 8.343058 0.597446 -13.138714 0
M  V30 47 H 6.982749 0.219871 -11.935814 0
M  V30 48 H 12.194130 9.219456 -9.387433 0
M  V30 49 H 9.466475 6.436702 -10.943206 0
M  V30 50 H 5.822921 4.774458 -20.966837 0
M  V30 51 H 9.584301 6.169440 -6.436941 0
M  V30 52 H 7.202635 5.553327 -11.535853 0
M  V30 53 H 7.515390 4.170468 -10.521249 0
M  V30 54 H 9.548950 6.169083 -16.966634 0
M  V30 55 H 9.728261 4.815288 -18.018303 0
M  V30 56 H 8.169158 6.847105 -18.652948 0
M  V30 57 H 6.253978 2.674849 -11.957967 0
M  V30 END ATOM
M  V30 BEGIN BOND
M  V30 1 1 6 5
M  V30 2 2 7 2
M  V30 3 1 10 6
M  V30 4 1 12 9
M  V30 5 1 12 10
M  V30 6 1 13 3
M  V30 7 1 13 4
M  V30 8 1 14 12
M  V30 9 1 16 9
M  V30 10 1 17 15
M  V30 11 1 18 13
M  V30 12 2 18 14
M  V30 13 1 19 8
M  V30 14 1 19 11
M  V30 15 1 20 2
M  V30 16 2 20 8
M  V30 17 1 21 11
M  V30 18 1 22 1
M  V30 19 2 22 3
M  V30 20 1 23 7
M  V30 21 2 23 19
M  V30 22 2 24 1
M  V30 23 2 25 11
M  V30 24 1 26 5
M  V30 25 1 26 21
M  V30 26 1 27 9
M  V30 27 1 28 1
M  V30 28 1 28 18
M  V30 29 1 28 27
M  V30 30 1 29 6
M  V30 31 1 29 15
M  V30 32 1 29 17
M  V30 33 1 30 2
M  V30 34 1 31 3
M  V30 35 1 32 5
M  V30 36 1 33 5
M  V30 37 1 6 34 CFG=3
M  V30 38 1 35 7
M  V30 39 1 36 8
M  V30 40 1 9 37 CFG=1
M  V30 41 1 38 10
M  V30 42 1 39 10
M  V30 43 1 12 40 CFG=1
M  V30 44 1 13 41 CFG=3
M  V30 45 1 42 14
M  V30 46 1 43 16
M  V30 47 1 44 16
M  V30 48 1 45 16
M  V30 49 1 46 17
M  V30 50 1 47 17
M  V30 51 1 48 20
M  V30 52 1 49 21
M  V30 53 1 50 22
M  V30 54 1 51 23
M  V30 55 1 52 26
M  V30 56 1 53 26
M  V30 57 1 54 27
M  V30 58 1 55 27
M  V30 59 1 28 56 CFG=3
M  V30 60 1 29 57 CFG=1
M  V30 END BOND
M  V30 END CTAB
M  END
>  <i_epik_Tot_Q>  (1) 
0

>  <i_epik_Tot_abs_Q>  (1) 
0

>  <i_i_glide_confnum>  (1) 
92

>  <i_i_glide_lignum>  (1) 
11

>  <i_i_glide_posenum>  (1) 
302

>  <i_i_glide_rotatable_bonds>  (1) 
8

>  <i_lp_mmshare_version>  (1) 
72125

>  <i_m_source_file_index>  (1) 
4

>  <i_f3d_flags>  (1) 
0

>  <num_sample>  (1) 
50

>  <b_lp_Chiralities_Consistent>  (1) 
1

>  <r_epik_Charging_Adjusted_Penalty>  (1) 
0

>  <r_epik_Ionization_Penalty>  (1) 
1.5409479738535797e-07

>  <r_epik_Ionization_Penalty_Charging>  (1) 
0

>  <r_epik_Ionization_Penalty_Neutral>  (1) 
1.5409479738535797e-07

>  <r_epik_State_Penalty>  (1) 
-0

>  <r_glide_ring_energy>  (1) 
0

>  <r_i_docking_score>  (1) 
-6.0236552556592038

>  <r_i_glide_ecoul>  (1) 
-0.042023852298411324

>  <r_i_glide_eff_state_penalty>  (1) 
-0

>  <r_i_glide_einternal>  (1) 
2.0284003149594056

>  <r_i_glide_emodel>  (1) 
-52.744748938592181

>  <r_i_glide_emodel_strain>  (1) 
0

>  <r_i_glide_energy>  (1) 
-38.216304328449894

>  <r_i_glide_erotb>  (1) 
0.86725254217801073

>  <r_i_glide_esite>  (1) 
-0.15883111452705334

>  <r_i_glide_evdw>  (1) 
-38.17428047615148

>  <r_i_glide_gscore>  (1) 
-6.0236552556592038

>  <r_i_glide_gscore_strain>  (1) 
0

>  <r_i_glide_hbond>  (1) 
0

>  <r_i_glide_ligand_efficiency>  (1) 
-0.20771225019514497

>  <r_i_glide_ligand_efficiency_ln>  (1) 
-1.3792643068280215

>  <r_i_glide_ligand_efficiency_sa>  (1) 
-0.63815784117561236

>  <r_i_glide_lipo>  (1) 
-2.8657792381114526

>  <r_i_glide_metal>  (1) 
-0

>  <r_i_glide_rewards>  (1) 
-1.9512798435463725

>  <r_lp_Energy>  (1) 
36.521651999999996

>  <r_lp_tautomer_probability>  (1) 
1

>  <s_epik_cmdline>  (1) 
J2VwaWtfcHl0aG9uJywgJy1waHQnLCAnMS4wJywgJy1waCcsICc3LjQnLCAnLXRuJywgJzgnLCAnLW1hJywgJzUwMCcsICctaW1hZScsICc8aW5maWxlLm1hZT4nLCAnLW9tYWUnLCAnPG91dGZpbGUubWFlPic=

>  <s_epik_input>  (1) 
RltDQEBIXTFbQ0hdPVtDSF1DKD1PKVtDQEBIXShDMTIpW0NIMl1bQ0BIXShbQ0gzXSlbQ0BASF0oW0NIXT0yKVtDSDJdW0NAQEhdKFtDQEhdM09bQ0gyXTMpW0NIMl1bQ0gyXVtOSF1DKD1PKWM0W2NIXVtjSF1bY0hdW2NIXVtjSF00

>  <s_glide_docking_method>  (1) 
confgen

>  <s_i_glide_gridfile>  (1) 
gpcr_drd2_6luq_protein_autoprepared_prepared

>  <s_lp_Force_Field>  (1) 
S-OPLS

>  <s_lp_Variant>  (1) 
DiffSBDD_3_num_sample_50-2

>  <s_m_source_file>  (1) 
generated__ligand_DiffSBDD_2026-05-06_prepared.sdf

>  <GenAI_Model>  (1) 
DiffSBDD

>  <Protein>  (1) 
generic_title2

$$$$
DiffSBDD_29_num_sample_50
     RDKit          3D

  0  0  0  0  0  0  0  0  0  0999 V3000
M  V30 BEGIN CTAB
M  V30 COUNTS 64 67 0 0 1
M  V30 BEGIN ATOM
M  V30 1 C 11.434852 7.507148 -5.401567 0
M  V30 2 O 7.960657 4.184552 -11.362039 0
M  V30 3 C 5.690569 2.859726 -13.491676 0
M  V30 4 C 11.186187 6.059415 -5.584794 0
M  V30 5 O 5.615393 6.181460 -11.740852 0
M  V30 6 N 9.034842 6.569313 -8.783308 0 CFG=1 CHG=1
M  V30 7 C 5.360684 3.932524 -12.449734 0
M  V30 8 C 8.234857 2.767807 -13.747340 0
M  V30 9 C 9.664899 4.860513 -13.903940 0
M  V30 10 C 11.897625 9.500704 -4.192534 0
M  V30 11 C 9.352916 6.071449 -7.429909 0
M  V30 12 C 9.507402 7.946008 -9.061765 0
M  V30 13 C 5.626716 7.553428 -12.123284 0
M  V30 14 C 7.637761 4.975884 -12.502332 0 CFG=1
M  V30 15 C 11.461940 8.214393 -6.533436 0
M  V30 16 C 11.005185 8.021350 -8.903489 0
M  V30 17 C 10.869683 6.116314 -7.177613 0 CFG=1
M  V30 18 C 8.247727 4.319895 -13.751836 0 CFG=2
M  V30 19 C 11.716356 8.115570 -4.184225 0
M  V30 20 C 7.906306 4.875217 -10.126467 0
M  V30 21 N 11.631976 9.544179 -6.626887 0
M  V30 22 C 6.127547 5.227880 -12.664779 0 CFG=2
M  V30 23 C 6.957672 2.046449 -13.305957 0
M  V30 24 N 11.383291 7.429456 -7.632907 0
M  V30 25 C 11.817238 10.174875 -5.440458 0
M  V30 26 N 11.935037 6.722416 -1.983932 0
M  V30 27 C 9.233894 5.584745 -9.861813 0
M  V30 28 C 11.834840 7.340853 -2.953593 0
M  V30 29 C 7.034808 8.169182 -12.190740 0
M  V30 30 H 5.834845 3.336904 -14.460573 0
M  V30 31 H 4.857986 2.156665 -13.491673 0
M  V30 32 H 12.079768 5.479216 -5.353663 0
M  V30 33 H 10.336747 5.769303 -4.970737 0
M  V30 34 H 4.302388 4.169302 -12.537472 0
M  V30 35 H 5.500046 3.554281 -11.436248 0
M  V30 36 H 8.460047 2.428014 -14.759629 0
M  V30 37 H 9.034839 2.398160 -13.103084 0
M  V30 38 H 10.234839 4.515954 -13.046185 0
M  V30 39 H 10.147646 4.569267 -14.834481 0
M  V30 40 H 9.683897 5.942980 -13.877095 0
M  V30 41 H 12.088992 10.042809 -3.275850 0
M  V30 42 H 8.952964 5.068805 -7.287680 0
M  V30 43 H 8.833367 6.716986 -6.718291 0
M  V30 44 H 9.034423 8.630483 -8.355293 0
M  V30 45 H 9.217427 8.282803 -10.054049 0
M  V30 46 H 5.087576 7.698431 -13.060668 0
M  V30 47 H 5.051169 8.084156 -11.365314 0
M  V30 48 H 8.130731 5.928273 -12.403135 0
M  V30 49 H 11.367121 9.042780 -9.027023 0
M  V30 50 H 11.486026 7.438789 -9.691183 0
M  V30 51 H 11.363290 5.300656 -7.693962 0
M  V30 52 H 7.707891 4.665369 -14.634742 0
M  V30 53 H 7.708170 4.169312 -9.322798 0
M  V30 54 H 7.079103 5.575836 -10.077911 0
M  V30 55 H 5.912004 5.593708 -13.670640 0
M  V30 56 H 6.871588 1.132188 -13.896015 0
M  V30 57 H 7.037795 1.693058 -12.291670 0
M  V30 58 H 11.918966 11.245235 -5.491716 0
M  V30 59 H 9.589829 6.087405 -10.760557 0
M  V30 60 H 9.991692 4.851812 -9.591846 0
M  V30 61 H 7.034746 9.216342 -11.891652 0
M  V30 62 H 7.705522 7.696321 -11.491656 0
M  V30 63 H 7.470665 8.077206 -13.185399 0
M  V30 64 H 8.027908 6.752859 -8.799002 0
M  V30 END ATOM
M  V30 BEGIN BOND
M  V30 1 1 4 1
M  V30 2 1 7 3
M  V30 3 1 11 6
M  V30 4 1 12 6
M  V30 5 1 13 5
M  V30 6 1 14 2
M  V30 7 1 15 1
M  V30 8 1 16 12
M  V30 9 1 17 4
M  V30 10 1 17 11
M  V30 11 1 18 8
M  V30 12 1 18 9
M  V30 13 1 18 14
M  V30 14 2 19 1
M  V30 15 1 19 10
M  V30 16 1 20 2
M  V30 17 2 21 15
M  V30 18 1 22 5
M  V30 19 1 22 7
M  V30 20 1 22 14
M  V30 21 1 23 3
M  V30 22 1 23 8
M  V30 23 1 24 15
M  V30 24 1 24 16
M  V30 25 1 24 17
M  V30 26 2 25 10
M  V30 27 1 25 21
M  V30 28 1 27 6
M  V30 29 1 27 20
M  V30 30 1 28 19
M  V30 31 3 28 26
M  V30 32 1 29 13
M  V30 33 1 30 3
M  V30 34 1 31 3
M  V30 35 1 32 4
M  V30 36 1 33 4
M  V30 37 1 34 7
M  V30 38 1 35 7
M  V30 39 1 36 8
M  V30 40 1 37 8
M  V30 41 1 38 9
M  V30 42 1 39 9
M  V30 43 1 40 9
M  V30 44 1 41 10
M  V30 45 1 42 11
M  V30 46 1 43 11
M  V30 47 1 44 12
M  V30 48 1 45 12
M  V30 49 1 46 13
M  V30 50 1 47 13
M  V30 51 1 14 48 CFG=1
M  V30 52 1 49 16
M  V30 53 1 50 16
M  V30 54 1 17 51 CFG=3
M  V30 55 1 18 52 CFG=3
M  V30 56 1 53 20
M  V30 57 1 54 20
M  V30 58 1 22 55 CFG=3
M  V30 59 1 56 23
M  V30 60 1 57 23
M  V30 61 1 58 25
M  V30 62 1 59 27
M  V30 63 1 60 27
M  V30 64 1 61 29
M  V30 65 1 62 29
M  V30 66 1 63 29
M  V30 67 1 6 64 CFG=1
M  V30 END BOND
M  V30 END CTAB
M  END
>  <i_epik_Tot_Q>  (1) 
1

>  <i_epik_Tot_abs_Q>  (1) 
1

>  <i_i_glide_confnum>  (1) 
35

>  <i_i_glide_lignum>  (1) 
76

>  <i_i_glide_posenum>  (1) 
235

>  <i_i_glide_rotatable_bonds>  (1) 
6

>  <i_lp_mmshare_version>  (1) 
72125

>  <i_m_source_file_index>  (1) 
30

>  <i_f3d_flags>  (1) 
0

>  <num_sample>  (1) 
50

>  <b_lp_Chiralities_Consistent>  (1) 
1

>  <r_epik_Charging_Adjusted_Penalty>  (1) 
1.0026227849201053

>  <r_epik_Ionization_Penalty>  (1) 
0.50131159217577048

>  <r_epik_Ionization_Penalty_Charging>  (1) 
0.50131139246005263

>  <r_epik_Ionization_Penalty_Neutral>  (1) 
1.9971571790720627e-07

>  <r_epik_State_Penalty>  (1) 
0.50131139246005263

>  <r_glide_ring_energy>  (1) 
0.21629496332687739

>  <r_i_docking_score>  (1) 
-6.0230558102652374

>  <r_i_glide_ecoul>  (1) 
-6.0897034971809987

>  <r_i_glide_eff_state_penalty>  (1) 
0.50131139246005263

>  <r_i_glide_einternal>  (1) 
5.8672501833838648

>  <r_i_glide_emodel>  (1) 
-35.57341568903071

>  <r_i_glide_emodel_strain>  (1) 
0.83926527915070892

>  <r_i_glide_energy>  (1) 
-28.826774604507907

>  <r_i_glide_erotb>  (1) 
0.42959825739445412

>  <r_i_glide_esite>  (1) 
-0.10000000000000001

>  <r_i_glide_evdw>  (1) 
-22.737071107326909

>  <r_i_glide_gscore>  (1) 
-6.5243672027252897

>  <r_i_glide_gscore_strain>  (1) 
0

>  <r_i_glide_hbond>  (1) 
-0.20718065195198762

>  <r_i_glide_ligand_efficiency>  (1) 
-0.20769157966431853

>  <r_i_glide_ligand_efficiency_ln>  (1) 
-1.3791270490334269

>  <r_i_glide_ligand_efficiency_sa>  (1) 
-0.63809433475595845

>  <r_i_glide_lipo>  (1) 
-2.2442838866881374

>  <r_i_glide_metal>  (1) 
-0

>  <r_i_glide_rewards>  (1) 
-2.3521918415361238

>  <r_lp_Energy>  (1) 
44.423873

>  <s_epik_cmdline>  (1) 
J2VwaWtfcHl0aG9uJywgJy1waHQnLCAnMS4wJywgJy1waCcsICc3LjQnLCAnLXRuJywgJzgnLCAnLW1hJywgJzUwMCcsICctaW1hZScsICc8aW5maWxlLm1hZT4nLCAnLW9tYWUnLCAnPG91dGZpbGUubWFlPic=

>  <s_epik_input>  (1) 
TiNDYzFbY0hdW2NIXW5jKGMxMilOM1tDQEhdKFtDSDJdMilbQ0gyXU4oW0NIMl1bQ0gyXTMpW0NIMl1bQ0gyXU9bQ0BIXTRbQ0BASF0oW0NIM10pW0NIMl1bQ0gyXVtDSDJdW0NIMl1bQ0BIXTRPW0NIMl1bQ0gzXQ==

>  <s_glide_docking_method>  (1) 
confgen

>  <s_i_glide_gridfile>  (1) 
gpcr_drd2_6luq_protein_autoprepared_prepared

>  <s_lp_Force_Field>  (1) 
S-OPLS

>  <s_lp_Variant>  (1) 
DiffSBDD_29_num_sample_50-6

>  <s_m_source_file>  (1) 
generated__ligand_DiffSBDD_2026-05-06_prepared.sdf

>  <GenAI_Model>  (1) 
DiffSBDD

>  <Protein>  (1) 
generic_title2

$$$$
DiffSBDD_3_num_sample_50
     RDKit          3D

  0  0  0  0  0  0  0  0  0  0999 V3000
M  V30 BEGIN CTAB
M  V30 COUNTS 57 60 0 0 1
M  V30 BEGIN ATOM
M  V30 1 C 7.185773 5.559279 -19.511636 0
M  V30 2 C 11.699699 8.468664 -7.492364 0
M  V30 3 C 5.034803 6.572754 -18.866757 0
M  V30 4 F 4.558282 6.839885 -16.601294 0
M  V30 5 C 8.022735 4.503626 -12.280267 0
M  V30 6 C 7.048270 3.814120 -13.270582 0 CFG=1
M  V30 7 C 12.418766 8.539845 -8.699635 0
M  V30 8 C 9.834837 7.417281 -8.661866 0
M  V30 9 C 8.898713 4.219608 -16.796761 0 CFG=1
M  V30 10 C 7.680137 3.498596 -14.651701 0
M  V30 11 C 9.944195 6.969314 -11.171142 0
M  V30 12 C 8.085493 4.684929 -15.556430 0 CFG=2
M  V30 13 C 5.534392 6.986929 -17.493241 0 CFG=1
M  V30 14 C 6.884528 5.537126 -15.950826 0
M  V30 15 O 5.834812 1.608949 -13.491659 0
M  V30 16 C 8.302294 3.002434 -17.534479 0
M  V30 17 C 6.990570 1.160024 -12.763592 0
M  V30 18 C 6.759465 6.169300 -17.135408 0
M  V30 19 C 10.551095 7.491906 -9.882596 0
M  V30 20 C 10.410153 7.906512 -7.473060 0
M  V30 21 N 8.658074 6.579559 -11.091669 0
M  V30 22 C 5.773454 5.911476 -19.786507 0
M  V30 23 C 11.848920 8.052732 -9.891721 0
M  V30 24 O 7.859346 4.880150 -20.284269 0
M  V30 25 O 10.607165 6.919418 -12.208151 0
M  V30 26 C 7.918505 6.041095 -12.230852 0
M  V30 27 C 9.131246 5.400352 -17.755229 0
M  V30 28 C 7.824849 6.096878 -18.215867 0 CFG=1
M  V30 29 C 6.455491 2.563807 -12.623343 0 CFG=1
M  V30 30 H 12.138571 8.843791 -6.579841 0
M  V30 31 H 4.010386 6.821029 -19.091666 0
M  V30 32 H 7.816469 4.143811 -11.271227 0
M  V30 33 H 9.050624 4.201118 -12.487213 0
M  V30 34 H 6.190745 4.468605 -13.416302 0
M  V30 35 H 13.410034 8.969292 -8.712731 0
M  V30 36 H 8.846338 6.983512 -8.633211 0
M  V30 37 H 9.881090 3.905342 -16.440994 0
M  V30 38 H 6.974272 2.890546 -15.216796 0
M  V30 39 H 8.551678 2.870386 -14.488298 0
M  V30 40 H 8.742183 5.335258 -14.980361 0
M  V30 41 H 5.779657 8.048137 -17.495524 0
M  V30 42 H 6.094875 5.621662 -15.221718 0
M  V30 43 H 7.258353 3.162845 -17.803716 0
M  V30 44 H 8.853042 2.792317 -18.451657 0
M  V30 45 H 8.352361 2.099467 -16.925949 0
M  V30 46 H 7.868703 0.968845 -13.375896 0
M  V30 47 H 6.771307 0.430776 -11.986312 0
M  V30 48 H 9.859709 7.848996 -6.545148 0
M  V30 49 H 8.157291 6.692887 -10.213282 0
M  V30 50 H 5.348839 5.627524 -20.738053 0
M  V30 51 H 12.406300 8.111897 -10.814842 0
M  V30 52 H 8.239008 6.502530 -13.164556 0
M  V30 53 H 6.876772 6.332788 -12.093070 0
M  V30 54 H 9.745808 6.138787 -17.238935 0
M  V30 55 H 9.738246 5.085194 -18.604630 0
M  V30 56 H 8.092017 7.124134 -18.460096 0
M  V30 57 H 5.868199 2.770563 -11.730018 0
M  V30 END ATOM
M  V30 BEGIN BOND
M  V30 1 1 6 5
M  V30 2 2 7 2
M  V30 3 1 10 6
M  V30 4 1 12 9
M  V30 5 1 12 10
M  V30 6 1 13 3
M  V30 7 1 13 4
M  V30 8 1 14 12
M  V30 9 1 16 9
M  V30 10 1 17 15
M  V30 11 1 18 13
M  V30 12 2 18 14
M  V30 13 1 19 8
M  V30 14 1 19 11
M  V30 15 1 20 2
M  V30 16 2 20 8
M  V30 17 1 21 11
M  V30 18 1 22 1
M  V30 19 2 22 3
M  V30 20 1 23 7
M  V30 21 2 23 19
M  V30 22 2 24 1
M  V30 23 2 25 11
M  V30 24 1 26 5
M  V30 25 1 26 21
M  V30 26 1 27 9
M  V30 27 1 28 1
M  V30 28 1 28 18
M  V30 29 1 28 27
M  V30 30 1 29 6
M  V30 31 1 29 15
M  V30 32 1 29 17
M  V30 33 1 30 2
M  V30 34 1 31 3
M  V30 35 1 32 5
M  V30 36 1 33 5
M  V30 37 1 6 34 CFG=3
M  V30 38 1 35 7
M  V30 39 1 36 8
M  V30 40 1 9 37 CFG=1
M  V30 41 1 38 10
M  V30 42 1 39 10
M  V30 43 1 12 40 CFG=1
M  V30 44 1 13 41 CFG=3
M  V30 45 1 42 14
M  V30 46 1 43 16
M  V30 47 1 44 16
M  V30 48 1 45 16
M  V30 49 1 46 17
M  V30 50 1 47 17
M  V30 51 1 48 20
M  V30 52 1 49 21
M  V30 53 1 50 22
M  V30 54 1 51 23
M  V30 55 1 52 26
M  V30 56 1 53 26
M  V30 57 1 54 27
M  V30 58 1 55 27
M  V30 59 1 28 56 CFG=3
M  V30 60 1 29 57 CFG=1
M  V30 END BOND
M  V30 END CTAB
M  END
>  <i_epik_Tot_Q>  (1) 
0

>  <i_epik_Tot_abs_Q>  (1) 
0

>  <i_i_glide_confnum>  (1) 
30

>  <i_i_glide_lignum>  (1) 
10

>  <i_i_glide_posenum>  (1) 
383

>  <i_i_glide_rotatable_bonds>  (1) 
8

>  <i_lp_mmshare_version>  (1) 
72125

>  <i_m_source_file_index>  (1) 
4

>  <i_f3d_flags>  (1) 
0

>  <num_sample>  (1) 
50

>  <b_lp_Chiralities_Consistent>  (1) 
1

>  <r_epik_Charging_Adjusted_Penalty>  (1) 
0

>  <r_epik_Ionization_Penalty>  (1) 
1.5409479738535797e-07

>  <r_epik_Ionization_Penalty_Charging>  (1) 
0

>  <r_epik_Ionization_Penalty_Neutral>  (1) 
1.5409479738535797e-07

>  <r_epik_State_Penalty>  (1) 
-0

>  <r_glide_ring_energy>  (1) 
0

>  <r_i_docking_score>  (1) 
-6.0064631614589334

>  <r_i_glide_ecoul>  (1) 
-3.4759104725929251

>  <r_i_glide_eff_state_penalty>  (1) 
-0

>  <r_i_glide_einternal>  (1) 
8.7386081854223931

>  <r_i_glide_emodel>  (1) 
-45.574825884458349

>  <r_i_glide_emodel_strain>  (1) 
0

>  <r_i_glide_energy>  (1) 
-36.485280227810556

>  <r_i_glide_erotb>  (1) 
0.86725254217801073

>  <r_i_glide_esite>  (1) 
-0.13541221451805305

>  <r_i_glide_evdw>  (1) 
-33.009369755217634

>  <r_i_glide_gscore>  (1) 
-6.0064631614589334

>  <r_i_glide_gscore_strain>  (1) 
0

>  <r_i_glide_hbond>  (1) 
0

>  <r_i_glide_ligand_efficiency>  (1) 
-0.20711941936065287

>  <r_i_glide_ligand_efficiency_ln>  (1) 
-1.3753277532100534

>  <r_i_glide_ligand_efficiency_sa>  (1) 
-0.63633647702801699

>  <r_i_glide_lipo>  (1) 
-2.6501178520170212

>  <r_i_glide_metal>  (1) 
-0

>  <r_i_glide_rewards>  (1) 
-1.9163305784520488

>  <r_lp_Energy>  (1) 
34.697915000000002

>  <r_lp_tautomer_probability>  (1) 
1

>  <s_epik_cmdline>  (1) 
J2VwaWtfcHl0aG9uJywgJy1waHQnLCAnMS4wJywgJy1waCcsICc3LjQnLCAnLXRuJywgJzgnLCAnLW1hJywgJzUwMCcsICctaW1hZScsICc8aW5maWxlLm1hZT4nLCAnLW9tYWUnLCAnPG91dGZpbGUubWFlPic=

>  <s_epik_input>  (1) 
RltDQEBIXTFbQ0hdPVtDSF1DKD1PKVtDQEBIXShDMTIpW0NIMl1bQ0BIXShbQ0gzXSlbQ0BASF0oW0NIXT0yKVtDSDJdW0NAQEhdKFtDQEhdM09bQ0gyXTMpW0NIMl1bQ0gyXVtOSF1DKD1PKWM0W2NIXVtjSF1bY0hdW2NIXVtjSF00

>  <s_glide_docking_method>  (1) 
confgen

>  <s_i_glide_gridfile>  (1) 
gpcr_drd2_6luq_protein_autoprepared_prepared

>  <s_lp_Force_Field>  (1) 
S-OPLS

>  <s_lp_Variant>  (1) 
DiffSBDD_3_num_sample_50-1

>  <s_m_source_file>  (1) 
generated__ligand_DiffSBDD_2026-05-06_prepared.sdf

>  <GenAI_Model>  (1) 
DiffSBDD

>  <Protein>  (1) 
generic_title2

$$$$
DiffSBDD_29_num_sample_50
     RDKit          3D

  0  0  0  0  0  0  0  0  0  0999 V3000
M  V30 BEGIN CTAB
M  V30 COUNTS 64 67 0 0 1
M  V30 BEGIN ATOM
M  V30 1 C 11.016575 7.700820 -5.281419 0
M  V30 2 O 7.603184 5.610134 -11.834620 0
M  V30 3 C 7.743393 5.151856 -15.721188 0
M  V30 4 C 10.254454 6.410778 -5.293792 0
M  V30 5 O 6.835293 2.851352 -12.877593 0
M  V30 6 N 9.186377 6.133439 -9.117920 0 CFG=1 CHG=1
M  V30 7 C 7.984297 4.340213 -14.436290 0
M  V30 8 C 6.728040 7.094532 -14.331510 0
M  V30 9 C 5.545633 7.533798 -12.106747 0
M  V30 10 C 12.587565 9.326872 -4.492850 0
M  V30 11 C 9.590851 5.632096 -7.775925 0
M  V30 12 C 9.958781 7.333871 -9.500123 0
M  V30 13 C 6.518067 1.678478 -13.612340 0
M  V30 14 C 6.442098 5.215253 -12.562316 0 CFG=1
M  V30 15 C 10.768854 8.497015 -6.328107 0
M  V30 16 C 9.691327 8.477629 -8.523661 0
M  V30 17 C 9.386804 6.678502 -6.667579 0 CFG=2
M  V30 18 C 5.864014 6.492851 -13.197000 0 CFG=2
M  V30 19 C 11.939234 8.095476 -4.295181 0
M  V30 20 C 7.872416 4.780189 -10.720989 0
M  V30 21 N 11.393364 9.651053 -6.593750 0
M  V30 22 C 6.718749 4.079444 -13.588507 0 CFG=2
M  V30 23 C 6.693133 6.271107 -15.628150 0
M  V30 24 N 9.773130 8.036822 -7.127661 0
M  V30 25 C 12.281857 10.054482 -5.672202 0
M  V30 26 N 12.466170 6.599933 -2.220921 0
M  V30 27 C 9.250989 5.083078 -10.156267 0
M  V30 28 C 12.234861 7.263705 -3.136920 0
M  V30 29 C 6.852286 0.461482 -12.747522 0
M  V30 30 H 7.439936 4.471981 -16.519342 0
M  V30 31 H 8.695779 5.577525 -16.042023 0
M  V30 32 H 11.002818 5.638694 -5.441181 0
M  V30 33 H 9.686328 6.169863 -4.399738 0
M  V30 34 H 8.441479 3.397923 -14.732370 0
M  V30 35 H 8.747599 4.833735 -13.833684 0
M  V30 36 H 6.334061 8.074543 -14.594291 0
M  V30 37 H 7.753104 7.267677 -14.000771 0
M  V30 38 H 6.435726 8.094650 -11.818958 0
M  V30 39 H 4.797706 8.247456 -12.448038 0
M  V30 40 H 5.149734 7.068320 -11.202786 0
M  V30 41 H 13.316153 9.694355 -3.785419 0
M  V30 42 H 10.644420 5.357736 -7.821828 0
M  V30 43 H 9.023913 4.735365 -7.527646 0
M  V30 44 H 9.690083 7.650063 -10.509008 0
M  V30 45 H 11.023000 7.093738 -9.509239 0
M  V30 46 H 5.457913 1.670766 -13.864518 0
M  V30 47 H 7.079715 1.632216 -14.544980 0
M  V30 48 H 5.682657 4.854490 -11.864805 0
M  V30 49 H 8.693983 8.890552 -8.687023 0
M  V30 50 H 10.381505 9.284605 -8.763018 0
M  V30 51 H 8.327214 6.720810 -6.418430 0
M  V30 52 H 4.914949 6.198183 -13.634914 0
M  V30 53 H 7.926501 3.768162 -11.072717 0
M  V30 54 H 7.089453 4.831356 -9.962752 0
M  V30 55 H 5.846713 3.991533 -14.238352 0
M  V30 56 H 5.695056 5.856072 -15.771003 0
M  V30 57 H 6.838412 6.939660 -16.476883 0
M  V30 58 H 12.769545 10.969301 -5.891615 0
M  V30 59 H 9.911288 5.349272 -10.981290 0
M  V30 60 H 9.665087 4.169303 -9.726742 0
M  V30 61 H 6.597810 -0.465643 -13.261757 0
M  V30 62 H 7.916880 0.429508 -12.515542 0
M  V30 63 H 6.300078 0.485864 -11.807307 0
M  V30 64 H 8.218555 6.451989 -9.070503 0
M  V30 END ATOM
M  V30 BEGIN BOND
M  V30 1 1 4 1
M  V30 2 1 7 3
M  V30 3 1 11 6
M  V30 4 1 12 6
M  V30 5 1 13 5
M  V30 6 1 14 2
M  V30 7 1 15 1
M  V30 8 1 16 12
M  V30 9 1 17 4
M  V30 10 1 17 11
M  V30 11 1 18 8
M  V30 12 1 18 9
M  V30 13 1 18 14
M  V30 14 2 19 1
M  V30 15 1 19 10
M  V30 16 1 20 2
M  V30 17 2 21 15
M  V30 18 1 22 5
M  V30 19 1 22 7
M  V30 20 1 22 14
M  V30 21 1 23 3
M  V30 22 1 23 8
M  V30 23 1 24 15
M  V30 24 1 24 16
M  V30 25 1 24 17
M  V30 26 2 25 10
M  V30 27 1 25 21
M  V30 28 1 27 6
M  V30 29 1 27 20
M  V30 30 1 28 19
M  V30 31 3 28 26
M  V30 32 1 29 13
M  V30 33 1 30 3
M  V30 34 1 31 3
M  V30 35 1 32 4
M  V30 36 1 33 4
M  V30 37 1 34 7
M  V30 38 1 35 7
M  V30 39 1 36 8
M  V30 40 1 37 8
M  V30 41 1 38 9
M  V30 42 1 39 9
M  V30 43 1 40 9
M  V30 44 1 41 10
M  V30 45 1 42 11
M  V30 46 1 43 11
M  V30 47 1 44 12
M  V30 48 1 45 12
M  V30 49 1 46 13
M  V30 50 1 47 13
M  V30 51 1 14 48 CFG=1
M  V30 52 1 49 16
M  V30 53 1 50 16
M  V30 54 1 17 51 CFG=1
M  V30 55 1 18 52 CFG=3
M  V30 56 1 53 20
M  V30 57 1 54 20
M  V30 58 1 22 55 CFG=3
M  V30 59 1 56 23
M  V30 60 1 57 23
M  V30 61 1 58 25
M  V30 62 1 59 27
M  V30 63 1 60 27
M  V30 64 1 61 29
M  V30 65 1 62 29
M  V30 66 1 63 29
M  V30 67 1 6 64 CFG=1
M  V30 END BOND
M  V30 END CTAB
M  END
>  <i_epik_Tot_Q>  (1) 
1

>  <i_epik_Tot_abs_Q>  (1) 
1

>  <i_i_glide_confnum>  (1) 
418

>  <i_i_glide_lignum>  (1) 
74

>  <i_i_glide_posenum>  (1) 
129

>  <i_i_glide_rotatable_bonds>  (1) 
6

>  <i_lp_mmshare_version>  (1) 
72125

>  <i_m_source_file_index>  (1) 
30

>  <i_f3d_flags>  (1) 
0

>  <num_sample>  (1) 
50

>  <b_lp_Chiralities_Consistent>  (1) 
1

>  <r_epik_Charging_Adjusted_Penalty>  (1) 
1.0026227849201053

>  <r_epik_Ionization_Penalty>  (1) 
0.50131159217577048

>  <r_epik_Ionization_Penalty_Charging>  (1) 
0.50131139246005263

>  <r_epik_Ionization_Penalty_Neutral>  (1) 
1.9971571790720627e-07

>  <r_epik_State_Penalty>  (1) 
0.50131139246005263

>  <r_glide_ring_energy>  (1) 
0.9799809587009326

>  <r_i_docking_score>  (1) 
-6.0054258571397936

>  <r_i_glide_ecoul>  (1) 
-4.9937570150675183

>  <r_i_glide_eff_state_penalty>  (1) 
0.50131139246005263

>  <r_i_glide_einternal>  (1) 
24.197540580317014

>  <r_i_glide_emodel>  (1) 
-37.438994295869122

>  <r_i_glide_emodel_strain>  (1) 
1.8637519587550031

>  <r_i_glide_energy>  (1) 
-40.340727284854403

>  <r_i_glide_erotb>  (1) 
0.6137117962777916

>  <r_i_glide_esite>  (1) 
-0.14149138718087156

>  <r_i_glide_evdw>  (1) 
-35.346970269786887

>  <r_i_glide_gscore>  (1) 
-6.5067372495998459

>  <r_i_glide_gscore_strain>  (1) 
0

>  <r_i_glide_hbond>  (1) 
-0.19610896804128075

>  <r_i_glide_ligand_efficiency>  (1) 
-0.20708365024619979

>  <r_i_glide_ligand_efficiency_ln>  (1) 
-1.3750902368247384

>  <r_i_glide_ligand_efficiency_sa>  (1) 
-0.63622658297584278

>  <r_i_glide_lipo>  (1) 
-2.6053312735252372

>  <r_i_glide_metal>  (1) 
-0

>  <r_i_glide_rewards>  (1) 
-1.6611053513807765

>  <r_lp_Energy>  (1) 
45.317810000000001

>  <s_epik_cmdline>  (1) 
J2VwaWtfcHl0aG9uJywgJy1waHQnLCAnMS4wJywgJy1waCcsICc3LjQnLCAnLXRuJywgJzgnLCAnLW1hJywgJzUwMCcsICctaW1hZScsICc8aW5maWxlLm1hZT4nLCAnLW9tYWUnLCAnPG91dGZpbGUubWFlPic=

>  <s_epik_input>  (1) 
TiNDYzFbY0hdW2NIXW5jKGMxMilOM1tDQEhdKFtDSDJdMilbQ0gyXU4oW0NIMl1bQ0gyXTMpW0NIMl1bQ0gyXU9bQ0BIXTRbQ0BASF0oW0NIM10pW0NIMl1bQ0gyXVtDSDJdW0NIMl1bQ0BIXTRPW0NIMl1bQ0gzXQ==

>  <s_glide_docking_method>  (1) 
confgen

>  <s_i_glide_gridfile>  (1) 
gpcr_drd2_6luq_protein_autoprepared_prepared

>  <s_lp_Force_Field>  (1) 
S-OPLS

>  <s_lp_Variant>  (1) 
DiffSBDD_29_num_sample_50-4

>  <s_m_source_file>  (1) 
generated__ligand_DiffSBDD_2026-05-06_prepared.sdf

>  <GenAI_Model>  (1) 
DiffSBDD

>  <Protein>  (1) 
generic_title2

$$$$
DiffSBDD_23_num_sample_50
     RDKit          3D

  0  0  0  0  0  0  0  0  0  0999 V3000
M  V30 BEGIN CTAB
M  V30 COUNTS 68 70 0 0 1
M  V30 BEGIN ATOM
M  V30 1 C 7.768463 4.232441 -11.274936 0
M  V30 2 C 9.452090 6.536270 -10.745917 0
M  V30 3 C 11.627927 6.969257 -4.227845 0
M  V30 4 C 11.039690 8.605310 -5.943395 0
M  V30 5 C 7.713155 4.955554 -9.926619 0
M  V30 6 C 11.645551 9.621218 -5.177758 0
M  V30 7 C 7.798738 5.348975 -14.885663 0 CFG=1
M  V30 8 O 8.750989 6.607086 -19.999458 0 CHG=-1
M  V30 9 C 9.083449 5.561547 -9.610516 0 CFG=2
M  V30 10 O 10.438815 6.268840 -6.190291 0
M  V30 11 C 7.861857 5.726404 -19.973564 0
M  V30 12 C 9.421429 5.833878 -12.122818 0
M  V30 13 C 7.928505 4.690236 -18.815755 0
M  V30 14 N 8.118771 5.153771 -12.377869 0 CFG=1 CHG=1
M  V30 15 O 6.923537 5.612777 -20.794316 0
M  V30 16 C 6.415479 6.028253 -14.819698 0
M  V30 17 C 8.064333 4.434470 -13.679019 0
M  V30 18 C 6.420518 6.245399 -17.343738 0
M  V30 19 C 9.328673 4.033048 -18.890093 0
M  V30 20 C 12.234848 7.985362 -3.466192 0
M  V30 21 C 9.116317 6.184267 -8.199213 0
M  V30 22 C 10.526596 6.254666 -7.607252 0
M  V30 23 C 6.863819 3.579464 -19.023975 0
M  V30 24 C 7.914118 4.548411 -16.199376 0
M  V30 25 C 4.929009 7.752197 -15.992602 0
M  V30 26 C 7.744642 5.443785 -17.450734 0 CFG=1
M  V30 27 C 6.252939 6.988952 -16.004253 0 CFG=1
M  V30 28 C 11.033873 7.272843 -5.468148 0
M  V30 29 C 12.243778 9.309615 -3.939894 0
M  V30 30 H 8.528828 3.447069 -11.256609 0
M  V30 31 H 6.799696 3.769357 -11.466111 0
M  V30 32 H 8.756249 7.376362 -10.749075 0
M  V30 33 H 10.440939 6.962088 -10.572676 0
M  V30 34 H 11.618065 5.953102 -3.860951 0
M  V30 35 H 10.576395 8.848505 -6.888032 0
M  V30 36 H 7.426279 4.247983 -9.147899 0
M  V30 37 H 6.940904 5.725667 -9.942214 0
M  V30 38 H 11.650160 10.639005 -5.538787 0
M  V30 39 H 8.566513 6.121773 -14.905991 0
M  V30 40 H 9.797525 4.736579 -9.623779 0
M  V30 41 H 10.228908 5.101241 -12.175540 0
M  V30 42 H 9.616204 6.568277 -12.902793 0
M  V30 43 H 5.621256 5.280440 -14.828277 0
M  V30 44 H 6.307583 6.586055 -13.889032 0
M  V30 45 H 8.995011 3.881703 -13.814905 0
M  V30 46 H 7.274109 3.682288 -13.658040 0
M  V30 47 H 6.351764 6.975836 -18.149654 0
M  V30 48 H 5.574340 5.572725 -17.477730 0
M  V30 49 H 9.403837 3.163688 -18.237782 0
M  V30 50 H 9.553089 3.686347 -19.900317 0
M  V30 51 H 10.117370 4.730257 -18.603437 0
M  V30 52 H 12.691817 7.748370 -2.516683 0
M  V30 53 H 8.511641 5.565092 -7.534854 0
M  V30 54 H 8.652862 7.168652 -8.180165 0
M  V30 55 H 11.122641 7.053399 -8.048609 0
M  V30 56 H 11.034835 5.325277 -7.845857 0
M  V30 57 H 6.923027 2.809613 -18.255924 0
M  V30 58 H 5.846800 3.970946 -19.018738 0
M  V30 59 H 7.005122 3.076490 -19.982170 0
M  V30 60 H 8.885685 4.056650 -16.222719 0
M  V30 61 H 7.166555 3.754691 -16.202158 0
M  V30 62 H 4.098050 7.112812 -16.291671 0
M  V30 63 H 4.715537 8.181699 -15.014841 0
M  V30 64 H 4.974152 8.569246 -16.708020 0
M  V30 65 H 8.554720 6.169279 -17.405200 0
M  V30 66 H 7.034818 7.736629 -15.891827 0
M  V30 67 H 12.708810 10.085980 -3.352489 0
M  V30 68 H 7.402945 5.866883 -12.389688 0
M  V30 END ATOM
M  V30 BEGIN BOND
M  V30 1 1 5 1
M  V30 2 1 6 4
M  V30 3 1 9 2
M  V30 4 1 9 5
M  V30 5 1 11 8
M  V30 6 1 12 2
M  V30 7 1 13 11
M  V30 8 1 14 1
M  V30 9 1 14 12
M  V30 10 2 15 11
M  V30 11 1 16 7
M  V30 12 1 17 7
M  V30 13 1 17 14
M  V30 14 1 19 13
M  V30 15 2 20 3
M  V30 16 1 21 9
M  V30 17 1 22 10
M  V30 18 1 22 21
M  V30 19 1 23 13
M  V30 20 1 24 7
M  V30 21 1 26 13
M  V30 22 1 26 18
M  V30 23 1 26 24
M  V30 24 1 27 16
M  V30 25 1 27 18
M  V30 26 1 27 25
M  V30 27 1 28 3
M  V30 28 2 28 4
M  V30 29 1 28 10
M  V30 30 2 29 6
M  V30 31 1 29 20
M  V30 32 1 30 1
M  V30 33 1 31 1
M  V30 34 1 32 2
M  V30 35 1 33 2
M  V30 36 1 34 3
M  V30 37 1 35 4
M  V30 38 1 36 5
M  V30 39 1 37 5
M  V30 40 1 38 6
M  V30 41 1 7 39 CFG=3
M  V30 42 1 9 40 CFG=1
M  V30 43 1 41 12
M  V30 44 1 42 12
M  V30 45 1 43 16
M  V30 46 1 44 16
M  V30 47 1 45 17
M  V30 48 1 46 17
M  V30 49 1 47 18
M  V30 50 1 48 18
M  V30 51 1 49 19
M  V30 52 1 50 19
M  V30 53 1 51 19
M  V30 54 1 52 20
M  V30 55 1 53 21
M  V30 56 1 54 21
M  V30 57 1 55 22
M  V30 58 1 56 22
M  V30 59 1 57 23
M  V30 60 1 58 23
M  V30 61 1 59 23
M  V30 62 1 60 24
M  V30 63 1 61 24
M  V30 64 1 62 25
M  V30 65 1 63 25
M  V30 66 1 64 25
M  V30 67 1 26 65 CFG=1
M  V30 68 1 27 66 CFG=1
M  V30 69 1 67 29
M  V30 70 1 14 68 CFG=3
M  V30 END BOND
M  V30 END CTAB
M  END
>  <i_epik_Tot_Q>  (1) 
0

>  <i_epik_Tot_abs_Q>  (1) 
2

>  <i_i_glide_confnum>  (1) 
26

>  <i_i_glide_lignum>  (1) 
62

>  <i_i_glide_posenum>  (1) 
337

>  <i_i_glide_rotatable_bonds>  (1) 
8

>  <i_lp_mmshare_version>  (1) 
72125

>  <i_m_source_file_index>  (1) 
24

>  <i_f3d_flags>  (1) 
0

>  <num_sample>  (1) 
50

>  <b_lp_Chiralities_Consistent>  (1) 
1

>  <r_epik_Charging_Adjusted_Penalty>  (1) 
0.003094722008017318

>  <r_epik_Ionization_Penalty>  (1) 
0.003094722008017318

>  <r_epik_Ionization_Penalty_Charging>  (1) 
0.003094722008017318

>  <r_epik_Ionization_Penalty_Neutral>  (1) 
0

>  <r_epik_State_Penalty>  (1) 
-0

>  <r_glide_ring_energy>  (1) 
0

>  <r_i_docking_score>  (1) 
-5.9870956136475

>  <r_i_glide_ecoul>  (1) 
-2.4818259144202548

>  <r_i_glide_eff_state_penalty>  (1) 
-0

>  <r_i_glide_einternal>  (1) 
12.835760325863316

>  <r_i_glide_emodel>  (1) 
-39.459317235004441

>  <r_i_glide_emodel_strain>  (1) 
1.1052998540869936

>  <r_i_glide_energy>  (1) 
-34.5897773469489

>  <r_i_glide_erotb>  (1) 
0.72975461734148295

>  <r_i_glide_esite>  (1) 
0

>  <r_i_glide_evdw>  (1) 
-32.107951432528644

>  <r_i_glide_gscore>  (1) 
-5.9870956136475

>  <r_i_glide_gscore_strain>  (1) 
0

>  <r_i_glide_hbond>  (1) 
0

>  <r_i_glide_ligand_efficiency>  (1) 
-0.20645157288439656

>  <r_i_glide_ligand_efficiency_ln>  (1) 
-1.3708930758798727

>  <r_i_glide_ligand_efficiency_sa>  (1) 
-0.63428464106203963

>  <r_i_glide_lipo>  (1) 
-3.4068608962437499

>  <r_i_glide_metal>  (1) 
-0

>  <r_i_glide_rewards>  (1) 
-1.3323178759557615

>  <r_lp_Energy>  (1) 
52.616563999999997

>  <r_lp_tautomer_probability>  (1) 
1

>  <s_epik_cmdline>  (1) 
J2VwaWtfcHl0aG9uJywgJy1waHQnLCAnMS4wJywgJy1waCcsICc3LjQnLCAnLXRuJywgJzgnLCAnLW1hJywgJzUwMCcsICctaW1hZScsICc8aW5maWxlLm1hZT4nLCAnLW9tYWUnLCAnPG91dGZpbGUubWFlPic=

>  <s_epik_input>  (1) 
W09IXUMoPU8pQyhbQ0gzXSkoW0NIM10pW0NASF0oW0NIMl0xKVtDSDJdW0NAQEhdKFtDSDNdKVtDSDJdW0NASF0xW0NIMl1OKFtDSDJdW0NIMl0yKVtDSDJdW0NIMl1bQ0hdMltDSDJdW0NIMl1PYzNbY0hdW2NIXVtjSF1bY0hdW2NIXTM=

>  <s_glide_docking_method>  (1) 
confgen

>  <s_i_glide_gridfile>  (1) 
gpcr_drd2_6luq_protein_autoprepared_prepared

>  <s_lp_Force_Field>  (1) 
S-OPLS

>  <s_lp_Variant>  (1) 
DiffSBDD_23_num_sample_50-1

>  <s_m_source_file>  (1) 
generated__ligand_DiffSBDD_2026-05-06_prepared.sdf

>  <GenAI_Model>  (1) 
DiffSBDD

>  <Protein>  (1) 
generic_title2

$$$$
DiffSBDD_23_num_sample_50
     RDKit          3D

  0  0  0  0  0  0  0  0  0  0999 V3000
M  V30 BEGIN CTAB
M  V30 COUNTS 68 70 0 0 1
M  V30 BEGIN ATOM
M  V30 1 C 8.898260 4.810050 -10.421343 0
M  V30 2 C 9.894801 7.544879 -10.636457 0
M  V30 3 C 11.435105 6.758179 -4.205235 0
M  V30 4 C 11.871480 9.153918 -3.999773 0
M  V30 5 C 8.990312 5.712895 -9.174427 0
M  V30 6 C 12.304699 8.957772 -2.678946 0
M  V30 7 C 8.350133 5.292199 -14.212289 0 CFG=1
M  V30 8 O 10.663053 2.740238 -17.873720 0 CHG=-1
M  V30 9 C 10.061945 6.806827 -9.309726 0 CFG=2
M  V30 10 O 11.002291 8.280962 -6.053800 0
M  V30 11 C 10.379766 3.955584 -17.972230 0
M  V30 12 C 9.870315 6.580836 -11.821466 0
M  V30 13 C 8.874097 4.333969 -18.057669 0
M  V30 14 N 8.787121 5.565695 -11.699162 0 CFG=1 CHG=1
M  V30 15 O 11.204566 4.896485 -18.003558 0
M  V30 16 C 6.882429 5.740835 -14.306194 0
M  V30 17 C 8.720147 4.627532 -12.863167 0
M  V30 18 C 7.057862 5.762843 -16.839562 0
M  V30 19 C 8.002858 3.059337 -18.214039 0
M  V30 20 C 11.872164 6.569610 -2.881739 0
M  V30 21 C 10.070129 7.810069 -8.152336 0
M  V30 22 C 10.543417 7.197648 -6.837495 0
M  V30 23 C 8.703484 5.181772 -19.343493 0
M  V30 24 C 8.707221 4.424402 -15.434596 0
M  V30 25 C 5.294637 7.168833 -15.714124 0
M  V30 26 C 8.484240 5.163764 -16.782497 0 CFG=1
M  V30 27 C 6.692940 6.575015 -15.583068 0 CFG=1
M  V30 28 C 11.434806 8.061014 -4.769241 0
M  V30 29 C 12.307834 7.669982 -2.121364 0
M  V30 30 H 9.771171 4.158262 -10.463891 0
M  V30 31 H 8.023455 4.169577 -10.317288 0
M  V30 32 H 8.985890 8.145095 -10.624695 0
M  V30 33 H 10.718445 8.247250 -10.763552 0
M  V30 34 H 11.103284 5.908979 -4.780133 0
M  V30 35 H 11.867325 10.146408 -4.424075 0
M  V30 36 H 9.196986 5.089799 -8.303821 0
M  V30 37 H 8.025978 6.169301 -8.974708 0
M  V30 38 H 12.634697 9.794684 -2.090905 0
M  V30 39 H 8.964567 6.169306 -14.328088 0
M  V30 40 H 11.034796 6.329605 -9.313415 0
M  V30 41 H 10.835219 6.087794 -11.939468 0
M  V30 42 H 9.724220 7.206894 -12.691665 0
M  V30 43 H 6.218593 4.875007 -14.312379 0
M  V30 44 H 6.617464 6.342700 -13.436349 0
M  V30 45 H 9.691865 4.137050 -12.950820 0
M  V30 46 H 8.002100 3.832118 -12.656438 0
M  V30 47 H 6.957422 6.412358 -17.709331 0
M  V30 48 H 6.324036 4.969301 -16.965171 0
M  V30 49 H 6.947765 3.302523 -18.334523 0
M  V30 50 H 8.293470 2.492682 -19.099947 0
M  V30 51 H 8.089206 2.385661 -17.361906 0
M  V30 52 H 11.873252 5.580984 -2.450636 0
M  V30 53 H 9.087876 8.270057 -8.024255 0
M  V30 54 H 10.753066 8.621114 -8.408248 0
M  V30 55 H 11.364674 6.498418 -7.004540 0
M  V30 56 H 9.719037 6.665926 -6.360286 0
M  V30 57 H 7.653881 5.326600 -19.598574 0
M  V30 58 H 9.155858 6.169589 -19.240090 0
M  V30 59 H 9.165687 4.696107 -20.204935 0
M  V30 60 H 9.762340 4.169343 -15.363972 0
M  V30 61 H 8.148635 3.490625 -15.399812 0
M  V30 62 H 4.559454 6.385473 -15.891554 0
M  V30 63 H 5.034948 7.720520 -14.810721 0
M  V30 64 H 5.244928 7.863690 -16.554068 0
M  V30 65 H 9.168122 6.011713 -16.760620 0
M  V30 66 H 7.368161 7.420581 -15.490905 0
M  V30 67 H 12.645663 7.527294 -1.108608 0
M  V30 68 H 7.912241 6.071451 -11.653052 0
M  V30 END ATOM
M  V30 BEGIN BOND
M  V30 1 1 5 1
M  V30 2 1 6 4
M  V30 3 1 9 2
M  V30 4 1 9 5
M  V30 5 1 11 8
M  V30 6 1 12 2
M  V30 7 1 13 11
M  V30 8 1 14 1
M  V30 9 1 14 12
M  V30 10 2 15 11
M  V30 11 1 16 7
M  V30 12 1 17 7
M  V30 13 1 17 14
M  V30 14 1 19 13
M  V30 15 2 20 3
M  V30 16 1 21 9
M  V30 17 1 22 10
M  V30 18 1 22 21
M  V30 19 1 23 13
M  V30 20 1 24 7
M  V30 21 1 26 13
M  V30 22 1 26 18
M  V30 23 1 26 24
M  V30 24 1 27 16
M  V30 25 1 27 18
M  V30 26 1 27 25
M  V30 27 1 28 3
M  V30 28 2 28 4
M  V30 29 1 28 10
M  V30 30 2 29 6
M  V30 31 1 29 20
M  V30 32 1 30 1
M  V30 33 1 31 1
M  V30 34 1 32 2
M  V30 35 1 33 2
M  V30 36 1 34 3
M  V30 37 1 35 4
M  V30 38 1 36 5
M  V30 39 1 37 5
M  V30 40 1 38 6
M  V30 41 1 7 39 CFG=3
M  V30 42 1 9 40 CFG=3
M  V30 43 1 41 12
M  V30 44 1 42 12
M  V30 45 1 43 16
M  V30 46 1 44 16
M  V30 47 1 45 17
M  V30 48 1 46 17
M  V30 49 1 47 18
M  V30 50 1 48 18
M  V30 51 1 49 19
M  V30 52 1 50 19
M  V30 53 1 51 19
M  V30 54 1 52 20
M  V30 55 1 53 21
M  V30 56 1 54 21
M  V30 57 1 55 22
M  V30 58 1 56 22
M  V30 59 1 57 23
M  V30 60 1 58 23
M  V30 61 1 59 23
M  V30 62 1 60 24
M  V30 63 1 61 24
M  V30 64 1 62 25
M  V30 65 1 63 25
M  V30 66 1 64 25
M  V30 67 1 26 65 CFG=1
M  V30 68 1 27 66 CFG=1
M  V30 69 1 67 29
M  V30 70 1 14 68 CFG=1
M  V30 END BOND
M  V30 END CTAB
M  END
>  <i_epik_Tot_Q>  (1) 
0

>  <i_epik_Tot_abs_Q>  (1) 
2

>  <i_i_glide_confnum>  (1) 
32

>  <i_i_glide_lignum>  (1) 
62

>  <i_i_glide_posenum>  (1) 
202

>  <i_i_glide_rotatable_bonds>  (1) 
8

>  <i_lp_mmshare_version>  (1) 
72125

>  <i_m_source_file_index>  (1) 
24

>  <i_f3d_flags>  (1) 
0

>  <num_sample>  (1) 
50

>  <b_lp_Chiralities_Consistent>  (1) 
1

>  <r_epik_Charging_Adjusted_Penalty>  (1) 
0.003094722008017318

>  <r_epik_Ionization_Penalty>  (1) 
0.003094722008017318

>  <r_epik_Ionization_Penalty_Charging>  (1) 
0.003094722008017318

>  <r_epik_Ionization_Penalty_Neutral>  (1) 
0

>  <r_epik_State_Penalty>  (1) 
-0

>  <r_glide_ring_energy>  (1) 
0

>  <r_i_docking_score>  (1) 
-5.9798413293690693

>  <r_i_glide_ecoul>  (1) 
-3.1642826996448736

>  <r_i_glide_eff_state_penalty>  (1) 
-0

>  <r_i_glide_einternal>  (1) 
12.720856440904118

>  <r_i_glide_emodel>  (1) 
-38.469895373387864

>  <r_i_glide_emodel_strain>  (1) 
0.27364043272585548

>  <r_i_glide_energy>  (1) 
-32.726259801710462

>  <r_i_glide_erotb>  (1) 
0.72975461734148295

>  <r_i_glide_esite>  (1) 
-0.0028195387551354883

>  <r_i_glide_evdw>  (1) 
-29.56197710206559

>  <r_i_glide_gscore>  (1) 
-5.9798413293690693

>  <r_i_glide_gscore_strain>  (1) 
0

>  <r_i_glide_hbond>  (1) 
0

>  <r_i_glide_ligand_efficiency>  (1) 
-0.20620142515065756

>  <r_i_glide_ligand_efficiency_ln>  (1) 
-1.3692320287328896

>  <r_i_glide_ligand_efficiency_sa>  (1) 
-0.63351610797076618

>  <r_i_glide_lipo>  (1) 
-3.169335940318633

>  <r_i_glide_metal>  (1) 
-0

>  <r_i_glide_rewards>  (1) 
-1.5846992075867723

>  <r_lp_Energy>  (1) 
52.616563999999997

>  <r_lp_tautomer_probability>  (1) 
1

>  <s_epik_cmdline>  (1) 
J2VwaWtfcHl0aG9uJywgJy1waHQnLCAnMS4wJywgJy1waCcsICc3LjQnLCAnLXRuJywgJzgnLCAnLW1hJywgJzUwMCcsICctaW1hZScsICc8aW5maWxlLm1hZT4nLCAnLW9tYWUnLCAnPG91dGZpbGUubWFlPic=

>  <s_epik_input>  (1) 
W09IXUMoPU8pQyhbQ0gzXSkoW0NIM10pW0NASF0oW0NIMl0xKVtDSDJdW0NAQEhdKFtDSDNdKVtDSDJdW0NASF0xW0NIMl1OKFtDSDJdW0NIMl0yKVtDSDJdW0NIMl1bQ0hdMltDSDJdW0NIMl1PYzNbY0hdW2NIXVtjSF1bY0hdW2NIXTM=

>  <s_glide_docking_method>  (1) 
confgen

>  <s_i_glide_gridfile>  (1) 
gpcr_drd2_6luq_protein_autoprepared_prepared

>  <s_lp_Force_Field>  (1) 
S-OPLS

>  <s_lp_Variant>  (1) 
DiffSBDD_23_num_sample_50-1

>  <s_m_source_file>  (1) 
generated__ligand_DiffSBDD_2026-05-06_prepared.sdf

>  <GenAI_Model>  (1) 
DiffSBDD

>  <Protein>  (1) 
generic_title2

$$$$
DiffSBDD_34_num_sample_50
     RDKit          3D

  0  0  0  0  0  0  0  0  0  0999 V3000
M  V30 BEGIN CTAB
M  V30 COUNTS 109 114 0 0 1
M  V30 BEGIN ATOM
M  V30 1 C 8.902643 4.198141 -20.088975 0
M  V30 2 C 5.156347 6.192886 -16.780227 0
M  V30 3 C 6.675412 7.187479 -14.927913 0
M  V30 4 C 12.013219 4.368966 -18.624564 0
M  V30 5 C 8.648444 4.265605 -12.146915 0
M  V30 6 C 15.428085 8.641147 -20.008508 0 CFG=2
M  V30 7 C 4.716319 7.437048 -17.579913 0 CFG=2
M  V30 8 C 5.642385 6.947621 -13.799085 0
M  V30 9 O 10.698951 5.898842 -20.438810 0
M  V30 10 C 15.509864 4.273068 -19.610969 0 CFG=1
M  V30 11 N 14.634802 10.569248 -18.675587 0 CHG=1
M  V30 12 C 11.643188 5.052146 -21.050218 0 CFG=1
M  V30 13 O 6.592544 6.702997 -21.386212 0
M  V30 14 C 6.567119 6.221969 -16.133251 0 CFG=1
M  V30 15 C 8.654595 6.842825 -20.153959 0
M  V30 16 F 11.304738 5.850040 -23.236122 0
M  V30 17 C 12.834739 7.063731 -21.939498 0
M  V30 18 C 9.508619 4.761078 -9.778491 0
M  V30 19 O 14.142598 8.263374 -20.463036 0
M  V30 20 C 7.082718 4.812007 -15.786123 0
M  V30 21 C 3.183585 7.531159 -17.566529 0
M  V30 22 C 5.254217 7.426365 -19.025256 0
M  V30 23 C 9.694618 4.944416 -11.304268 0 CFG=2
M  V30 24 C 10.964375 3.241893 -18.728186 0
M  V30 25 O 8.568808 8.434250 -12.180153 0
M  V30 26 O 6.526404 6.969170 -19.098807 0
M  V30 27 C 9.009988 4.417143 -17.473188 0
M  V30 28 C 8.535033 7.215015 -11.996672 0
M  V30 29 C 12.240247 5.708093 -22.297821 0 CFG=1
M  V30 30 C 12.686903 4.805032 -19.957378 0 CFG=1
M  V30 31 C 7.146050 6.831399 -20.291556 0
M  V30 32 O 4.575955 7.821314 -19.977659 0
M  V30 33 O 10.938861 6.969316 -11.665224 0
M  V30 34 C 7.339808 4.986930 -11.916443 0
M  V30 35 C 9.466111 3.656331 -18.740492 0 CFG=1
M  V30 36 C 15.801118 7.966328 -18.679898 0
M  V30 37 C 14.964067 5.533182 -18.987356 0 CFG=1
M  V30 38 C 16.154213 6.508858 -18.886957 0
M  V30 39 C 5.036603 6.665586 -11.294573 0
M  V30 40 C 13.977422 6.926189 -20.925155 0 CFG=1
M  V30 41 C 15.392819 10.159891 -19.871816 0
M  V30 42 O 16.638942 3.768294 -18.918363 0
M  V30 43 C 6.097339 7.107059 -12.328548 0 CFG=1
M  V30 44 C 9.834351 6.421587 -11.661381 0
M  V30 45 C 13.663935 6.015748 -19.702354 0 CFG=1
M  V30 46 N 7.387148 6.456504 -12.071404 0
M  V30 47 C 9.347796 5.580828 -20.671328 0 CFG=2
M  V30 48 C 7.589700 4.020238 -17.009474 0
M  V30 49 C 15.476880 2.929826 -18.926207 0
M  V30 50 H 9.133626 3.443121 -20.840992 0
M  V30 51 H 7.814692 4.170240 -20.040273 0
M  V30 52 H 5.092406 5.369339 -17.480369 0
M  V30 53 H 4.417657 5.963204 -16.017267 0
M  V30 54 H 6.580755 8.215723 -15.276688 0
M  V30 55 H 7.694863 7.128672 -14.557592 0
M  V30 56 H 11.570287 5.229367 -18.121989 0
M  V30 57 H 12.791297 4.023563 -17.944853 0
M  V30 58 H 8.564883 3.209741 -11.891901 0
M  V30 59 H 8.935935 4.301041 -13.197761 0
M  V30 60 H 16.158567 8.401927 -20.782800 0
M  V30 61 H 5.111966 8.329733 -17.096374 0
M  V30 62 H 5.187780 5.963460 -13.905751 0
M  V30 63 H 4.863582 7.684796 -13.967346 0
M  V30 64 H 15.649255 4.296260 -20.689899 0
M  V30 65 H 14.611616 11.576542 -18.595057 0
M  V30 66 H 13.678406 10.229410 -18.725880 0
M  V30 67 H 11.210930 4.097563 -21.348591 0
M  V30 68 H 7.277571 6.569537 -16.869079 0
M  V30 69 H 8.917097 7.019260 -19.111874 0
M  V30 70 H 9.024447 7.707582 -20.704589 0
M  V30 71 H 13.197688 7.564869 -22.837771 0
M  V30 72 H 12.051283 7.706005 -21.534195 0
M  V30 73 H 10.122146 5.464224 -9.213985 0
M  V30 74 H 8.484593 4.901183 -9.436224 0
M  V30 75 H 9.834838 3.769281 -9.474427 0
M  V30 76 H 7.904442 4.885836 -15.076973 0
M  V30 77 H 6.301507 4.253673 -15.270946 0
M  V30 78 H 2.799056 8.302167 -18.231017 0
M  V30 79 H 2.747820 6.587866 -17.890927 0
M  V30 80 H 2.816602 7.759847 -16.566105 0
M  V30 81 H 10.634807 4.488185 -11.601153 0
M  V30 82 H 11.102750 2.602668 -17.854311 0
M  V30 83 H 11.187125 2.590487 -19.573511 0
M  V30 84 H 9.091061 5.489458 -17.632776 0
M  V30 85 H 9.696626 4.198265 -16.654079 0
M  V30 86 H 13.003667 5.061624 -22.732735 0
M  V30 87 H 13.229454 3.946928 -20.346617 0
M  V30 88 H 6.940049 4.749058 -10.930634 0
M  V30 89 H 6.613969 4.576536 -12.617690 0
M  V30 90 H 8.977466 2.684348 -18.652780 0
M  V30 91 H 16.678908 8.466168 -18.267504 0
M  V30 92 H 15.011510 8.056126 -17.933555 0
M  V30 93 H 14.682470 5.297120 -17.960299 0
M  V30 94 H 16.794251 6.423750 -19.767132 0
M  V30 95 H 16.782740 6.192034 -18.052811 0
M  V30 96 H 4.235079 7.398061 -11.217429 0
M  V30 97 H 4.634863 5.681378 -11.516963 0
M  V30 98 H 5.434828 6.568969 -10.291573 0
M  V30 99 H 14.859624 6.571325 -21.460202 0
M  V30 100 H 16.404317 10.562016 -19.811181 0
M  V30 101 H 14.943639 10.569298 -20.773480 0
M  V30 102 H 6.198084 8.169348 -12.140362 0
M  V30 103 H 13.134758 6.672198 -19.009432 0
M  V30 104 H 9.182737 5.553286 -21.749534 0
M  V30 105 H 7.601158 2.962088 -16.744298 0
M  V30 106 H 6.886891 4.109199 -17.835938 0
M  V30 107 H 14.981366 2.832844 -17.962976 0
M  V30 108 H 15.573142 2.026152 -19.524456 0
M  V30 109 H 15.067153 10.184736 -17.849765 0
M  V30 END ATOM
M  V30 BEGIN BOND
M  V30 1 1 7 2
M  V30 2 1 8 3
M  V30 3 1 12 9
M  V30 4 1 14 2
M  V30 5 1 14 3
M  V30 6 1 19 6
M  V30 7 1 20 14
M  V30 8 1 21 7
M  V30 9 1 22 7
M  V30 10 1 23 5
M  V30 11 1 23 18
M  V30 12 1 24 4
M  V30 13 1 26 22
M  V30 14 2 28 25
M  V30 15 1 29 12
M  V30 16 1 29 16
M  V30 17 1 29 17
M  V30 18 1 30 4
M  V30 19 1 30 12
M  V30 20 2 31 13
M  V30 21 1 31 15
M  V30 22 1 31 26
M  V30 23 2 32 22
M  V30 24 1 34 5
M  V30 25 1 35 1
M  V30 26 1 35 24
M  V30 27 1 35 27
M  V30 28 1 36 6
M  V30 29 1 37 10
M  V30 30 1 38 36
M  V30 31 1 38 37
M  V30 32 1 40 17
M  V30 33 1 40 19
M  V30 34 1 41 6
M  V30 35 1 41 11
M  V30 36 1 42 10
M  V30 37 1 43 8
M  V30 38 1 43 39
M  V30 39 1 44 23
M  V30 40 1 44 28
M  V30 41 2 44 33
M  V30 42 1 45 30
M  V30 43 1 45 37
M  V30 44 1 45 40
M  V30 45 1 46 28
M  V30 46 1 46 34
M  V30 47 1 46 43
M  V30 48 1 47 1
M  V30 49 1 47 9
M  V30 50 1 47 15
M  V30 51 1 48 20
M  V30 52 1 48 27
M  V30 53 1 49 10
M  V30 54 1 49 42
M  V30 55 1 50 1
M  V30 56 1 51 1
M  V30 57 1 52 2
M  V30 58 1 53 2
M  V30 59 1 54 3
M  V30 60 1 55 3
M  V30 61 1 56 4
M  V30 62 1 57 4
M  V30 63 1 58 5
M  V30 64 1 59 5
M  V30 65 1 6 60 CFG=3
M  V30 66 1 7 61 CFG=1
M  V30 67 1 62 8
M  V30 68 1 63 8
M  V30 69 1 10 64 CFG=3
M  V30 70 1 65 11
M  V30 71 1 66 11
M  V30 72 1 12 67 CFG=3
M  V30 73 1 14 68 CFG=3
M  V30 74 1 69 15
M  V30 75 1 70 15
M  V30 76 1 71 17
M  V30 77 1 72 17
M  V30 78 1 73 18
M  V30 79 1 74 18
M  V30 80 1 75 18
M  V30 81 1 76 20
M  V30 82 1 77 20
M  V30 83 1 78 21
M  V30 84 1 79 21
M  V30 85 1 80 21
M  V30 86 1 23 81 CFG=3
M  V30 87 1 82 24
M  V30 88 1 83 24
M  V30 89 1 84 27
M  V30 90 1 85 27
M  V30 91 1 29 86 CFG=3
M  V30 92 1 30 87 CFG=3
M  V30 93 1 88 34
M  V30 94 1 89 34
M  V30 95 1 35 90 CFG=1
M  V30 96 1 91 36
M  V30 97 1 92 36
M  V30 98 1 37 93 CFG=1
M  V30 99 1 94 38
M  V30 100 1 95 38
M  V30 101 1 96 39
M  V30 102 1 97 39
M  V30 103 1 98 39
M  V30 104 1 40 99 CFG=3
M  V30 105 1 100 41
M  V30 106 1 101 41
M  V30 107 1 43 102 CFG=1
M  V30 108 1 45 103 CFG=1
M  V30 109 1 47 104 CFG=3
M  V30 110 1 105 48
M  V30 111 1 106 48
M  V30 112 1 107 49
M  V30 113 1 108 49
M  V30 114 1 109 11
M  V30 END BOND
M  V30 END CTAB
M  END
>  <i_epik_Tot_Q>  (1) 
1

>  <i_epik_Tot_abs_Q>  (1) 
1

>  <i_i_glide_confnum>  (1) 
153

>  <i_i_glide_lignum>  (1) 
87

>  <i_i_glide_posenum>  (1) 
148

>  <i_i_glide_rotatable_bonds>  (1) 
6

>  <i_lp_mmshare_version>  (1) 
72125

>  <i_m_source_file_index>  (1) 
35

>  <i_f3d_flags>  (1) 
0

>  <num_sample>  (1) 
50

>  <b_lp_Chiralities_Consistent>  (1) 
1

>  <r_epik_Charging_Adjusted_Penalty>  (1) 
0.0091647518509246212

>  <r_epik_Ionization_Penalty>  (1) 
0.0045823761218381463

>  <r_epik_Ionization_Penalty_Charging>  (1) 
0.0045823759254623037

>  <r_epik_Ionization_Penalty_Neutral>  (1) 
1.9637584269267853e-10

>  <r_epik_State_Penalty>  (1) 
0.0045823759254623184

>  <r_glide_ring_energy>  (1) 
0.075723670429018577

>  <r_i_docking_score>  (1) 
-5.9525780745874179

>  <r_i_glide_ecoul>  (1) 
-8.3244635410110508

>  <r_i_glide_eff_state_penalty>  (1) 
0.0045823759254623184

>  <r_i_glide_einternal>  (1) 
12.315143950534479

>  <r_i_glide_emodel>  (1) 
-46.587322676392382

>  <r_i_glide_emodel_strain>  (1) 
1.765575368883006

>  <r_i_glide_energy>  (1) 
-38.77037825040982

>  <r_i_glide_erotb>  (1) 
0.051949520036259446

>  <r_i_glide_esite>  (1) 
-0.17890786501273703

>  <r_i_glide_evdw>  (1) 
-30.445914709398771

>  <r_i_glide_gscore>  (1) 
-5.9571604505128803

>  <r_i_glide_gscore_strain>  (1) 
0

>  <r_i_glide_hbond>  (1) 
-0.093270401689260304

>  <r_i_glide_ligand_efficiency>  (1) 
-0.12148118519566159

>  <r_i_glide_ligand_efficiency_ln>  (1) 
-1.2168431609980621

>  <r_i_glide_ligand_efficiency_sa>  (1) 
-0.44453679464684259

>  <r_i_glide_lipo>  (1) 
-1.8583439871221283

>  <r_i_glide_metal>  (1) 
-0

>  <r_i_glide_rewards>  (1) 
-1.1076224501034184

>  <r_lp_Energy>  (1) 
81.194295999999994

>  <r_lp_tautomer_probability>  (1) 
0.99995000000000001

>  <s_epik_cmdline>  (1) 
J2VwaWtfcHl0aG9uJywgJy1waHQnLCAnMS4wJywgJy1waCcsICc3LjQnLCAnLXRuJywgJzgnLCAnLW1hJywgJzUwMCcsICctaW1hZScsICc8aW5maWxlLm1hZT4nLCAnLW9tYWUnLCAnPG91dGZpbGUubWFlPic=

>  <s_epik_input>  (1) 
W0NIMl0xT1tDQEBIXTFbQ0BIXTJbQ0gyXVtDSDJdW0NASF0oW0NIMl1bTkgyXSlPW0NASF0oW0NIMl1bQ0BASF0zRilbQ0BIXTJbQ0BIXShbQ0BIXTM0KVtDSDJdW0NIMl1bQ0BASF01W0NIMl1bQ0BIXShPNClbQ0gyXUMoPU8pT0MoPU8pW0NAQEhdKFtDSDNdKVtDSDJdW0NASF0oW0NIMl1bQ0gyXVtDSDJdNSlbQ0gyXVtDSDJdW0NAQEhdKFtDSDNdKU4oQyg9TylDNj1PKVtDSDJdW0NIMl1bQ0BASF02W0NIM10=

>  <s_glide_docking_method>  (1) 
confgen

>  <s_i_glide_gridfile>  (1) 
gpcr_drd2_6luq_protein_autoprepared_prepared

>  <s_lp_Force_Field>  (1) 
S-OPLS

>  <s_lp_Variant>  (1) 
DiffSBDD_34_num_sample_50-1

>  <s_m_source_file>  (1) 
generated__ligand_DiffSBDD_2026-05-06_prepared.sdf

>  <GenAI_Model>  (1) 
DiffSBDD

>  <Protein>  (1) 
generic_title2

$$$$
DiffSBDD_7_num_sample_50
     RDKit          3D

  0  0  0  0  0  0  0  0  0  0999 V3000
M  V30 BEGIN CTAB
M  V30 COUNTS 63 67 0 0 1
M  V30 BEGIN ATOM
M  V30 1 C 11.179552 8.275888 -5.265287 0 CFG=1
M  V30 2 C 6.801216 1.740509 -13.922543 0
M  V30 3 C 6.319432 0.420380 -13.978273 0
M  V30 4 C 12.483031 7.670922 -3.264906 0
M  V30 5 C 8.096669 4.898287 -11.929277 0 CFG=2
M  V30 6 C 6.194559 -0.230762 -15.220047 0
M  V30 7 C 10.681623 6.482433 -7.714451 0
M  V30 8 C 9.277348 5.720792 -11.386583 0 CFG=2
M  V30 9 C 9.466521 5.602316 -9.848268 0 CFG=2
M  V30 10 C 7.089908 6.258479 -14.172356 0
M  V30 11 C 7.660787 3.838686 -15.059249 0
M  V30 12 C 6.553098 0.434453 -16.406505 0
M  V30 13 C 9.627018 7.273752 -6.976815 0
M  V30 14 C 11.411464 9.521838 -4.441036 0 CFG=2
M  V30 15 C 12.083214 9.397650 -5.774068 0
M  V30 16 O 8.234836 5.610634 -9.176402 0
M  V30 17 C 7.034961 1.754497 -16.354128 0
M  V30 18 C 7.165223 5.351312 -13.000727 0 CFG=1
M  V30 19 C 9.497379 7.117029 -12.023027 0
M  V30 20 C 11.663549 7.101086 -4.429952 0
M  V30 21 C 12.109667 9.154397 -3.150460 0
M  V30 22 C 6.729587 4.746688 -14.281983 0 CFG=1
M  V30 23 C 10.449498 6.632417 -9.222082 0
M  V30 24 C 9.858018 8.055908 -5.916944 0
M  V30 25 C 8.523369 8.257611 -11.704165 0
M  V30 26 C 7.156870 2.411637 -15.112510 0
M  V30 27 C 6.590219 5.272713 -11.647615 0
M  V30 28 H 6.893068 2.240541 -12.970006 0
M  V30 29 H 6.043237 -0.093962 -13.068819 0
M  V30 30 H 12.303932 7.128943 -2.335538 0
M  V30 31 H 13.541236 7.573369 -3.491586 0
M  V30 32 H 8.299399 3.829704 -11.898794 0
M  V30 33 H 5.824705 -1.243402 -15.261934 0
M  V30 34 H 10.641370 5.432456 -7.425795 0
M  V30 35 H 11.675839 6.849209 -7.458403 0
M  V30 36 H 10.139358 5.179149 -11.780001 0
M  V30 37 H 9.835288 4.596493 -9.650322 0
M  V30 38 H 8.002476 6.565078 -14.675924 0
M  V30 39 H 6.272298 6.975915 -14.196515 0
M  V30 40 H 8.652558 3.856288 -14.609440 0
M  V30 41 H 7.763706 4.230418 -16.071576 0
M  V30 42 H 6.456176 -0.068044 -17.357373 0
M  V30 43 H 8.620648 7.190390 -7.349534 0
M  V30 44 H 10.634835 10.280051 -4.369620 0
M  V30 45 H 11.697727 10.012781 -6.584027 0
M  V30 46 H 13.168323 9.354346 -5.729271 0
M  V30 47 H 7.784849 6.447050 -9.322972 0
M  V30 48 H 7.305474 2.265428 -17.266280 0
M  V30 49 H 10.508280 7.460069 -11.803984 0
M  V30 50 H 9.499818 6.967183 -13.091650 0
M  V30 51 H 10.799148 6.564661 -4.035420 0
M  V30 52 H 12.225409 6.386218 -5.029842 0
M  V30 53 H 12.995399 9.769246 -3.003876 0
M  V30 54 H 11.434868 9.320434 -2.310314 0
M  V30 55 H 5.668964 4.548295 -14.419537 0
M  V30 56 H 10.120250 7.651377 -9.415242 0
M  V30 57 H 11.416565 6.569302 -9.705357 0
M  V30 58 H 9.026092 8.569306 -5.491668 0
M  V30 59 H 8.731251 9.116995 -12.338775 0
M  V30 60 H 8.634799 8.601829 -10.679483 0
M  V30 61 H 7.483853 7.988026 -11.875033 0
M  V30 62 H 5.900569 4.457395 -11.440230 0
M  V30 63 H 6.375696 6.200302 -11.124608 0
M  V30 END ATOM
M  V30 BEGIN BOND
M  V30 1 1 3 2
M  V30 2 2 6 3
M  V30 3 1 8 5
M  V30 4 1 9 8
M  V30 5 1 12 6
M  V30 6 1 13 7
M  V30 7 1 14 1
M  V30 8 1 15 1
M  V30 9 1 15 14
M  V30 10 1 16 9
M  V30 11 2 17 12
M  V30 12 1 18 5
M  V30 13 1 18 10 CFG=3
M  V30 14 1 19 8
M  V30 15 1 20 1
M  V30 16 1 20 4
M  V30 17 1 21 4
M  V30 18 1 21 14
M  V30 19 1 22 10
M  V30 20 1 22 11
M  V30 21 1 22 18
M  V30 22 1 23 7
M  V30 23 1 23 9
M  V30 24 1 1 24 CFG=3
M  V30 25 2 24 13
M  V30 26 1 25 19
M  V30 27 2 26 2
M  V30 28 1 26 11
M  V30 29 1 26 17
M  V30 30 1 27 5
M  V30 31 1 27 18
M  V30 32 1 28 2
M  V30 33 1 29 3
M  V30 34 1 30 4
M  V30 35 1 31 4
M  V30 36 1 5 32 CFG=3
M  V30 37 1 33 6
M  V30 38 1 34 7
M  V30 39 1 35 7
M  V30 40 1 8 36 CFG=3
M  V30 41 1 9 37 CFG=3
M  V30 42 1 38 10
M  V30 43 1 39 10
M  V30 44 1 40 11
M  V30 45 1 41 11
M  V30 46 1 42 12
M  V30 47 1 43 13
M  V30 48 1 14 44 CFG=1
M  V30 49 1 45 15
M  V30 50 1 46 15
M  V30 51 1 47 16
M  V30 52 1 48 17
M  V30 53 1 49 19
M  V30 54 1 50 19
M  V30 55 1 51 20
M  V30 56 1 52 20
M  V30 57 1 53 21
M  V30 58 1 54 21
M  V30 59 1 22 55 CFG=1
M  V30 60 1 56 23
M  V30 61 1 57 23
M  V30 62 1 58 24
M  V30 63 1 59 25
M  V30 64 1 60 25
M  V30 65 1 61 25
M  V30 66 1 62 27
M  V30 67 1 63 27
M  V30 END BOND
M  V30 END CTAB
M  END
>  <i_epik_Tot_Q>  (1) 
0

>  <i_epik_Tot_abs_Q>  (1) 
0

>  <i_i_glide_confnum>  (1) 
148

>  <i_i_glide_lignum>  (1) 
16

>  <i_i_glide_posenum>  (1) 
363

>  <i_i_glide_rotatable_bonds>  (1) 
10

>  <i_lp_mmshare_version>  (1) 
72125

>  <i_m_source_file_index>  (1) 
8

>  <i_f3d_flags>  (1) 
0

>  <num_sample>  (1) 
50

>  <b_lp_Chiralities_Consistent>  (1) 
1

>  <r_epik_Charging_Adjusted_Penalty>  (1) 
0

>  <r_epik_Ionization_Penalty>  (1) 
5.611789062664276e-07

>  <r_epik_Ionization_Penalty_Charging>  (1) 
0

>  <r_epik_Ionization_Penalty_Neutral>  (1) 
5.611789062664276e-07

>  <r_epik_State_Penalty>  (1) 
-0

>  <r_glide_ring_energy>  (1) 
0

>  <r_i_docking_score>  (1) 
-5.9475556112989167

>  <r_i_glide_ecoul>  (1) 
-3.7557563910635858

>  <r_i_glide_eff_state_penalty>  (1) 
-0

>  <r_i_glide_einternal>  (1) 
18.920069674780862

>  <r_i_glide_emodel>  (1) 
-34.901163146045285

>  <r_i_glide_emodel_strain>  (1) 
1.56627052318224

>  <r_i_glide_energy>  (1) 
-34.497356902716149

>  <r_i_glide_erotb>  (1) 
1.0125554383439441

>  <r_i_glide_esite>  (1) 
0

>  <r_i_glide_evdw>  (1) 
-30.741600511652564

>  <r_i_glide_gscore>  (1) 
-5.9475556112989167

>  <r_i_glide_gscore_strain>  (1) 
0

>  <r_i_glide_hbond>  (1) 
-0.16

>  <r_i_glide_ligand_efficiency>  (1) 
-0.22027983745551544

>  <r_i_glide_ligand_efficiency_ln>  (1) 
-1.3844928931928682

>  <r_i_glide_ligand_efficiency_sa>  (1) 
-0.66083951236654648

>  <r_i_glide_lipo>  (1) 
-3.0401790662333377

>  <r_i_glide_metal>  (1) 
-0

>  <r_i_glide_rewards>  (1) 
-1.6594884991673575

>  <r_lp_Energy>  (1) 
25.483521999999997

>  <r_lp_tautomer_probability>  (1) 
1

>  <s_epik_cmdline>  (1) 
J2VwaWtfcHl0aG9uJywgJy1waHQnLCAnMS4wJywgJy1waCcsICc3LjQnLCAnLXRuJywgJzgnLCAnLW1hJywgJzUwMCcsICctaW1hZScsICc8aW5maWxlLm1hZT4nLCAnLW9tYWUnLCAnPG91dGZpbGUubWFlPic=

>  <s_epik_input>  (1) 
W0NIMl0xW0NIMl1bQ0gyXVtDQEBIXShbQ0gyXTIpW0NAXTEyL1tDSF09W0NIXVxbQ0gyXVtDSDJdW0NAQEhdKFtPSF0pW0NASF0oW0NIMl1bQ0gzXSlbQ0BASF0oW0NIMl0zKVtDQF0zNFtDSDJdW0NASF00W0NIMl1jNVtjSF1bY0hdW2NIXVtjSF1bY0hdNQ==

>  <s_glide_docking_method>  (1) 
confgen

>  <s_i_glide_gridfile>  (1) 
gpcr_drd2_6luq_protein_autoprepared_prepared

>  <s_lp_Force_Field>  (1) 
S-OPLS

>  <s_lp_Variant>  (1) 
DiffSBDD_7_num_sample_50-1

>  <s_m_source_file>  (1) 
generated__ligand_DiffSBDD_2026-05-06_prepared.sdf

>  <GenAI_Model>  (1) 
DiffSBDD

>  <Protein>  (1) 
generic_title2

$$$$
DiffSBDD_13_num_sample_50
     RDKit          3D

  0  0  0  0  0  0  0  0  0  0999 V3000
M  V30 BEGIN CTAB
M  V30 COUNTS 46 50 0 0 1
M  V30 BEGIN ATOM
M  V30 1 C 9.391583 5.862477 -10.061245 0
M  V30 2 N 6.899639 6.724566 -11.891606 0 CFG=2 CHG=1
M  V30 3 C 12.212910 6.973644 -2.386866 0
M  V30 4 C 11.462754 6.946170 -4.713097 0
M  V30 5 C 9.434850 8.272252 -10.288167 0
M  V30 6 C 11.500471 8.379083 -4.691811 0
M  V30 7 C 9.959183 5.990317 -8.774903 0
M  V30 8 C 6.421991 5.385270 -15.049118 0
M  V30 9 C 11.834803 6.295285 -3.531126 0
M  V30 10 C 7.176664 4.387522 -14.172953 0
M  V30 11 O 8.350354 8.099506 -12.691667 0 CHG=-1
M  V30 12 C 6.060092 5.536821 -12.109300 0 CFG=1
M  V30 13 O 12.603531 8.974434 -1.241499 0
M  V30 14 C 10.001567 8.399835 -9.026608 0
M  V30 15 S 11.033551 8.999931 -6.227928 0
M  V30 16 C 5.862090 6.776291 -12.949583 0 CFG=2
M  V30 17 C 8.357829 6.906731 -12.162951 0 CFG=1
M  V30 18 C 11.047868 6.415936 -6.004864 0
M  V30 19 C 9.098480 7.009460 -10.810654 0
M  V30 20 C 12.236842 8.349129 -2.370016 0
M  V30 21 C 10.764312 7.419317 -6.882655 0
M  V30 22 C 6.285490 6.782625 -14.430518 0
M  V30 23 C 10.249520 7.274746 -8.241747 0
M  V30 24 C 6.516322 4.243890 -12.793077 0
M  V30 25 Cl 9.034912 4.310632 -10.691952 0
M  V30 26 C 11.883917 9.076448 -3.526491 0
M  V30 27 H 12.492109 6.417164 -1.504116 0
M  V30 28 H 9.181750 9.147647 -10.835103 0
M  V30 29 H 10.155658 5.104579 -8.191632 0
M  V30 30 H 5.434917 4.975603 -15.214933 0
M  V30 31 H 6.892126 5.456182 -16.030198 0
M  V30 32 H 11.842014 5.264854 -3.518720 0
M  V30 33 H 7.166239 3.409954 -14.661024 0
M  V30 34 H 8.226670 4.647028 -14.107167 0
M  V30 35 H 5.420273 5.410002 -11.238034 0
M  V30 36 H 12.886705 8.397455 -0.552227 0
M  V30 37 H 10.208993 9.369312 -8.646779 0
M  V30 38 H 5.134292 7.528569 -12.648981 0
M  V30 39 H 8.774690 6.062154 -12.690067 0
M  V30 40 H 10.960146 5.369332 -6.218929 0
M  V30 41 H 7.186301 7.356829 -14.619251 0
M  V30 42 H 5.511295 7.312910 -14.983768 0
M  V30 43 H 7.097758 3.613557 -12.131858 0
M  V30 44 H 5.604961 3.665338 -12.949225 0
M  V30 45 H 11.906122 10.155329 -3.520730 0
M  V30 46 H 6.634935 7.235446 -11.046705 0
M  V30 END ATOM
M  V30 BEGIN BOND
M  V30 1 2 6 4
M  V30 2 1 7 1
M  V30 3 2 9 3
M  V30 4 1 9 4
M  V30 5 1 10 8
M  V30 6 1 12 2
M  V30 7 2 14 5
M  V30 8 1 15 6
M  V30 9 1 16 2
M  V30 10 1 16 12
M  V30 11 1 17 2
M  V30 12 1 17 11
M  V30 13 1 18 4
M  V30 14 2 19 1
M  V30 15 1 19 5
M  V30 16 1 19 17
M  V30 17 1 20 3
M  V30 18 1 20 13
M  V30 19 1 21 15
M  V30 20 2 21 18
M  V30 21 1 22 8
M  V30 22 1 22 16
M  V30 23 2 23 7
M  V30 24 1 23 14
M  V30 25 1 23 21
M  V30 26 1 24 10
M  V30 27 1 24 12
M  V30 28 1 25 1
M  V30 29 1 26 6
M  V30 30 2 26 20
M  V30 31 1 27 3
M  V30 32 1 28 5
M  V30 33 1 29 7
M  V30 34 1 30 8
M  V30 35 1 31 8
M  V30 36 1 32 9
M  V30 37 1 33 10
M  V30 38 1 34 10
M  V30 39 1 12 35 CFG=1
M  V30 40 1 36 13
M  V30 41 1 37 14
M  V30 42 1 16 38 CFG=1
M  V30 43 1 17 39 CFG=3
M  V30 44 1 40 18
M  V30 45 1 41 22
M  V30 46 1 42 22
M  V30 47 1 43 24
M  V30 48 1 44 24
M  V30 49 1 45 26
M  V30 50 1 2 46 CFG=1
M  V30 END BOND
M  V30 END CTAB
M  END
>  <i_epik_Tot_Q>  (1) 
0

>  <i_epik_Tot_abs_Q>  (1) 
2

>  <i_i_glide_confnum>  (1) 
5

>  <i_i_glide_lignum>  (1) 
49

>  <i_i_glide_posenum>  (1) 
50

>  <i_i_glide_rotatable_bonds>  (1) 
4

>  <i_lp_mmshare_version>  (1) 
72125

>  <i_m_source_file_index>  (1) 
14

>  <i_f3d_flags>  (1) 
0

>  <num_sample>  (1) 
50

>  <b_lp_Chiralities_Consistent>  (1) 
1

>  <r_epik_Charging_Adjusted_Penalty>  (1) 
0.011735890959206876

>  <r_epik_Ionization_Penalty>  (1) 
0.011735890959206876

>  <r_epik_Ionization_Penalty_Charging>  (1) 
0.0019353161310539371

>  <r_epik_Ionization_Penalty_Neutral>  (1) 
0.009800574828152938

>  <r_epik_State_Penalty>  (1) 
0.0098005748281529397

>  <r_glide_ring_energy>  (1) 
0

>  <r_i_docking_score>  (1) 
-5.9270142623540902

>  <r_i_glide_ecoul>  (1) 
-1.8536908145333202

>  <r_i_glide_eff_state_penalty>  (1) 
0.0098005748281529397

>  <r_i_glide_einternal>  (1) 
11.521382029942828

>  <r_i_glide_emodel>  (1) 
-23.716487420884334

>  <r_i_glide_emodel_strain>  (1) 
3.95057903949413

>  <r_i_glide_energy>  (1) 
-23.792924218975145

>  <r_i_glide_erotb>  (1) 
0.39195233306171845

>  <r_i_glide_esite>  (1) 
-0.1536782430961075

>  <r_i_glide_evdw>  (1) 
-21.939233404441826

>  <r_i_glide_gscore>  (1) 
-5.9368148371822436

>  <r_i_glide_gscore_strain>  (1) 
0

>  <r_i_glide_hbond>  (1) 
-0.20000000000000001

>  <r_i_glide_ligand_efficiency>  (1) 
-0.22796208701361886

>  <r_i_glide_ligand_efficiency_ln>  (1) 
-1.3919398513938035

>  <r_i_glide_ligand_efficiency_sa>  (1) 
-0.67533678652378493

>  <r_i_glide_lipo>  (1) 
-2.922228521109401

>  <r_i_glide_metal>  (1) 
-0

>  <r_i_glide_rewards>  (1) 
-1.6778451136363639

>  <r_lp_Energy>  (1) 
50.308721999999996

>  <s_epik_Chemistry_Notes>  (1) 
This compound contains an acetal/aminal-like group ( X-CH(R)-Y where X, Y are N, S, or O) that may be acid/base labile, releasing an aldehyde.

>  <s_epik_cmdline>  (1) 
J2VwaWtfcHl0aG9uJywgJy1waHQnLCAnMS4wJywgJy1waCcsICc3LjQnLCAnLXRuJywgJzgnLCAnLW1hJywgJzUwMCcsICctaW1hZScsICc8aW5maWxlLm1hZT4nLCAnLW9tYWUnLCAnPG91dGZpbGUubWFlPic=

>  <s_epik_input>  (1) 
W2NIXTFbY0hdYyhbT0hdKVtjSF1jKGMxMilzYyhbY0hdMiktYyhbY0hdYzNDbClbY0hdW2NIXWMzW0NASF0oW09IXSlONFtDQEhdKFtDQEhdNDUpW0NIMl1bQ0gyXVtDSDJdW0NIMl01

>  <s_glide_docking_method>  (1) 
confgen

>  <s_i_glide_gridfile>  (1) 
gpcr_drd2_6luq_protein_autoprepared_prepared

>  <s_lp_Force_Field>  (1) 
S-OPLS

>  <s_lp_Variant>  (1) 
DiffSBDD_13_num_sample_50-2

>  <s_m_source_file>  (1) 
generated__ligand_DiffSBDD_2026-05-06_prepared.sdf

>  <GenAI_Model>  (1) 
DiffSBDD

>  <Protein>  (1) 
generic_title2

$$$$
DiffSBDD_25_num_sample_50
     RDKit          3D

  0  0  0  0  0  0  0  0  0  0999 V3000
M  V30 BEGIN CTAB
M  V30 COUNTS 70 75 0 0 1
M  V30 BEGIN ATOM
M  V30 1 C 7.531956 1.852665 -17.690114 0 CFG=2
M  V30 2 C 11.007929 7.174766 -5.182882 0
M  V30 3 C 8.477284 6.573845 -11.638841 0
M  V30 4 C 11.418616 8.982422 -6.756229 0
M  V30 5 S 8.234938 -0.436166 -16.849501 0
M  V30 6 C 10.556263 6.365928 -6.231412 0
M  V30 7 C 10.043411 5.925697 -8.660562 0 CFG=2
M  V30 8 C 11.435170 8.481144 -5.440308 0
M  V30 9 C 8.603457 5.459532 -8.526979 0
M  V30 10 C 8.444592 3.861596 -18.461643 0 CFG=2
M  V30 11 C 6.881287 0.778495 -16.845309 0
M  V30 12 C 6.518526 6.325762 -17.287892 0
M  V30 13 C 6.402935 6.383171 -13.926630 0
M  V30 14 C 6.520612 5.471978 -12.690547 0
M  V30 15 N 6.495907 5.370429 -16.235773 0
M  V30 16 F 8.193935 3.696928 -19.763769 0
M  V30 17 O 5.882922 7.372822 -17.309024 0
M  V30 18 C 10.964941 8.163092 -7.818628 0
M  V30 19 N 7.082044 6.130139 -11.492984 0 CFG=1 CHG=1
M  V30 20 C 10.529934 6.844885 -7.544852 0
M  V30 21 C 8.973186 1.795156 -17.266227 0 CFG=1
M  V30 22 O 9.298144 0.429432 -17.462836 0
M  V30 23 C 8.630042 5.357236 -18.199110 0
M  V30 24 C 12.072601 9.369454 -9.530984 0
M  V30 25 O 10.942976 8.640574 -9.104500 0
M  V30 26 Cl 11.986513 9.461932 -4.146888 0
M  V30 27 C 9.641159 2.940451 -18.046302 0 CFG=1
M  V30 28 N 8.353469 4.969477 -9.866988 0
M  V30 29 C 5.676308 5.628239 -15.049709 0
M  V30 30 C 7.215199 3.347938 -17.688040 0 CFG=2
M  V30 31 C 10.533535 2.460852 -19.201938 0
M  V30 32 C 7.174039 4.048459 -16.303992 0
M  V30 33 C 6.991719 5.261064 -10.293091 0
M  V30 34 C 9.256407 5.654115 -10.731969 0 CFG=2
M  V30 35 O 7.336138 5.933118 -18.312889 0
M  V30 36 O 10.102591 6.438791 -9.974561 0
M  V30 37 H 7.459215 1.507576 -18.724993 0
M  V30 38 H 11.022566 6.790111 -4.173435 0
M  V30 39 H 8.559129 7.600865 -11.277228 0
M  V30 40 H 8.880580 6.526549 -12.650353 0
M  V30 41 H 11.751352 9.990747 -6.952097 0
M  V30 42 H 10.230407 5.369306 -6.030744 0
M  V30 43 H 10.634734 5.017293 -8.610955 0
M  V30 44 H 8.459220 4.688623 -7.771013 0
M  V30 45 H 7.974266 6.303279 -8.285093 0
M  V30 46 H 5.967882 0.377808 -17.286093 0
M  V30 47 H 6.679244 1.097035 -15.823099 0
M  V30 48 H 5.831349 7.275316 -13.665585 0
M  V30 49 H 7.376156 6.734791 -14.269466 0
M  V30 50 H 7.120445 4.590462 -12.928455 0
M  V30 51 H 5.522886 5.115008 -12.427052 0
M  V30 52 H 9.035356 2.014379 -16.199000 0
M  V30 53 H 9.290237 5.793479 -18.949344 0
M  V30 54 H 9.070555 5.570566 -17.224719 0
M  V30 55 H 12.299689 9.105881 -10.562584 0
M  V30 56 H 11.836368 10.432847 -9.491288 0
M  V30 57 H 12.968245 9.148456 -8.948514 0
M  V30 58 H 10.280433 3.480334 -17.346590 0
M  V30 59 H 5.304773 4.689328 -14.651619 0
M  V30 60 H 4.779962 6.169301 -15.346825 0
M  V30 61 H 6.286263 3.523227 -18.235398 0
M  V30 62 H 9.979391 1.843136 -19.908966 0
M  V30 63 H 10.958772 3.303893 -19.747467 0
M  V30 64 H 11.359871 1.860108 -18.820419 0
M  V30 65 H 8.160431 4.132330 -15.846697 0
M  V30 66 H 6.634911 3.374215 -15.639110 0
M  V30 67 H 6.478221 4.323148 -10.507576 0
M  V30 68 H 6.406502 5.769277 -9.530368 0
M  V30 69 H 9.827841 4.920765 -11.302138 0
M  V30 70 H 6.547452 6.959832 -11.263792 0
M  V30 END ATOM
M  V30 BEGIN BOND
M  V30 1 2 6 2
M  V30 2 1 8 2
M  V30 3 2 8 4
M  V30 4 1 9 7
M  V30 5 1 11 1
M  V30 6 1 11 5
M  V30 7 1 14 13
M  V30 8 1 15 12
M  V30 9 1 10 16 CFG=3
M  V30 10 2 17 12
M  V30 11 1 18 4
M  V30 12 1 19 3
M  V30 13 1 19 14
M  V30 14 1 20 6
M  V30 15 1 20 7
M  V30 16 2 20 18
M  V30 17 1 21 1
M  V30 18 1 22 5
M  V30 19 1 22 21
M  V30 20 1 23 10
M  V30 21 1 25 18
M  V30 22 1 25 24
M  V30 23 1 26 8
M  V30 24 1 27 10
M  V30 25 1 27 21
M  V30 26 1 28 9
M  V30 27 1 29 13
M  V30 28 1 29 15
M  V30 29 1 30 1
M  V30 30 1 30 10
M  V30 31 1 31 27
M  V30 32 1 32 15
M  V30 33 1 32 30
M  V30 34 1 33 19
M  V30 35 1 33 28
M  V30 36 1 34 3
M  V30 37 1 34 28
M  V30 38 1 35 12
M  V30 39 1 35 23
M  V30 40 1 36 7
M  V30 41 1 36 34
M  V30 42 1 1 37 CFG=3
M  V30 43 1 38 2
M  V30 44 1 39 3
M  V30 45 1 40 3
M  V30 46 1 41 4
M  V30 47 1 42 6
M  V30 48 1 7 43 CFG=3
M  V30 49 1 44 9
M  V30 50 1 45 9
M  V30 51 1 46 11
M  V30 52 1 47 11
M  V30 53 1 48 13
M  V30 54 1 49 13
M  V30 55 1 50 14
M  V30 56 1 51 14
M  V30 57 1 21 52 CFG=1
M  V30 58 1 53 23
M  V30 59 1 54 23
M  V30 60 1 55 24
M  V30 61 1 56 24
M  V30 62 1 57 24
M  V30 63 1 27 58 CFG=1
M  V30 64 1 59 29
M  V30 65 1 60 29
M  V30 66 1 30 61 CFG=3
M  V30 67 1 62 31
M  V30 68 1 63 31
M  V30 69 1 64 31
M  V30 70 1 65 32
M  V30 71 1 66 32
M  V30 72 1 67 33
M  V30 73 1 68 33
M  V30 74 1 34 69 CFG=3
M  V30 75 1 19 70 CFG=1
M  V30 END BOND
M  V30 END CTAB
M  END
>  <i_epik_Tot_Q>  (1) 
1

>  <i_epik_Tot_abs_Q>  (1) 
1

>  <i_i_glide_confnum>  (1) 
167

>  <i_i_glide_lignum>  (1) 
67

>  <i_i_glide_posenum>  (1) 
134

>  <i_i_glide_rotatable_bonds>  (1) 
6

>  <i_lp_mmshare_version>  (1) 
72125

>  <i_m_source_file_index>  (1) 
26

>  <i_f3d_flags>  (1) 
0

>  <num_sample>  (1) 
50

>  <b_lp_Chiralities_Consistent>  (1) 
1

>  <r_epik_Charging_Adjusted_Penalty>  (1) 
0.023952579331408368

>  <r_epik_Ionization_Penalty>  (1) 
0.024408664809918493

>  <r_epik_Ionization_Penalty_Charging>  (1) 
0.023952579331408368

>  <r_epik_Ionization_Penalty_Neutral>  (1) 
0.00045608547851012601

>  <r_epik_State_Penalty>  (1) 
-0

>  <r_glide_ring_energy>  (1) 
0

>  <r_i_docking_score>  (1) 
-5.9175133066970016

>  <r_i_glide_ecoul>  (1) 
-5.7310437978171684

>  <r_i_glide_eff_state_penalty>  (1) 
-0

>  <r_i_glide_einternal>  (1) 
9.3259508988673172

>  <r_i_glide_emodel>  (1) 
-43.451654966553718

>  <r_i_glide_emodel_strain>  (1) 
1.4012745501802328

>  <r_i_glide_energy>  (1) 
-36.829065436206491

>  <r_i_glide_erotb>  (1) 
0.35075509399968952

>  <r_i_glide_esite>  (1) 
-0.23138395454054492

>  <r_i_glide_evdw>  (1) 
-31.098021638389326

>  <r_i_glide_gscore>  (1) 
-5.9175133066970016

>  <r_i_glide_gscore_strain>  (1) 
0

>  <r_i_glide_hbond>  (1) 
-0.069030361339740012

>  <r_i_glide_ligand_efficiency>  (1) 
-0.16437536963047228

>  <r_i_glide_ligand_efficiency_ln>  (1) 
-1.2910415307873098

>  <r_i_glide_ligand_efficiency_sa>  (1) 
-0.54275551202998273

>  <r_i_glide_lipo>  (1) 
-2.4068664722681516

>  <r_i_glide_metal>  (1) 
-0

>  <r_i_glide_rewards>  (1) 
-1.1464299609562119

>  <r_lp_Energy>  (1) 
70.690685999999999

>  <r_lp_tautomer_probability>  (1) 
1

>  <s_epik_Chemistry_Notes>  (1) 
This compound has an ester and may undergo hydrolysis at high or low pH. This compound contains an acetal/aminal-like group ( X-CH(R)-Y where X, Y are N, S, or O) that may be acid/base labile, releasing an aldehyde.

>  <s_epik_cmdline>  (1) 
J2VwaWtfcHl0aG9uJywgJy1waHQnLCAnMS4wJywgJy1waCcsICc3LjQnLCAnLXRuJywgJzgnLCAnLW1hJywgJzUwMCcsICctaW1hZScsICc8aW5maWxlLm1hZT4nLCAnLW9tYWUnLCAnPG91dGZpbGUubWFlPic=

>  <s_epik_input>  (1) 
W0NIMl0xU09bQ0BASF0oW0NASF0yW0NIM10pW0NAQEhdMVtDQEhdKFtDQF0yM0YpW0NIMl1OKEMoPU8pT1tDSDJdMylbQ0gyXVtDSDJdW0NIMl1OKFtDSDJdNClbQ0gyXVtDQEhdKE40NSlPW0NASF0oW0NIMl01KWMoW2NIXVtjSF1jNkNsKWMoW2NIXTYpT1tDSDNd

>  <s_glide_docking_method>  (1) 
confgen

>  <s_i_glide_gridfile>  (1) 
gpcr_drd2_6luq_protein_autoprepared_prepared

>  <s_lp_Force_Field>  (1) 
S-OPLS

>  <s_lp_Variant>  (1) 
DiffSBDD_25_num_sample_50-1

>  <s_m_source_file>  (1) 
generated__ligand_DiffSBDD_2026-05-06_prepared.sdf

>  <GenAI_Model>  (1) 
DiffSBDD

>  <Protein>  (1) 
generic_title2

$$$$
DiffSBDD_38_num_sample_50
     RDKit          3D

  0  0  0  0  0  0  0  0  0  0999 V3000
M  V30 BEGIN CTAB
M  V30 COUNTS 60 62 0 0 1
M  V30 BEGIN ATOM
M  V30 1 C 11.433680 8.163002 -7.263282 0
M  V30 2 O 13.097897 8.169303 -8.986721 0
M  V30 3 S 10.634797 6.569299 -12.291662 0
M  V30 4 F 6.064110 -0.903752 -16.796628 0
M  V30 5 C 7.454435 2.419839 -16.598297 0 CFG=2
M  V30 6 C 11.034779 6.946702 -5.077963 0
M  V30 7 C 7.136540 0.742258 -14.783335 0
M  V30 8 C 8.654394 4.204907 -12.365291 0
M  V30 9 C 11.029924 6.837636 -6.602915 0 CFG=1
M  V30 10 C 9.573166 6.151328 -11.071450 0
M  V30 11 N 10.983760 7.764322 -9.647120 0
M  V30 12 C 7.359959 3.090228 -14.231913 0
M  V30 13 C 7.409819 5.104059 -10.395050 0
M  V30 14 C 11.911097 8.022281 -8.711729 0
M  V30 15 F 6.720785 0.440195 -18.322794 0
M  V30 16 O 9.834661 4.633197 -8.686627 0
M  V30 17 C 7.417205 4.312888 -13.298605 0 CFG=2
M  V30 18 O 7.434851 3.407629 -15.580166 0
M  V30 19 C 7.499350 5.620663 -14.126407 0
M  V30 20 O 9.432255 -0.560702 -17.239869 0
M  V30 21 C 7.224246 1.809593 -13.831183 0
M  V30 22 N 8.058962 -2.218405 -17.891707 0
M  V30 23 C 6.118917 4.343394 -12.437217 0
M  V30 24 C 9.763046 5.851453 -8.528248 0
M  V30 25 C 8.296951 -0.987096 -17.432190 0
M  V30 26 C 9.652403 6.401108 -7.117312 0
M  V30 27 C 7.229877 0.992707 -16.091695 0
M  V30 28 C 9.792888 6.873945 -9.691506 0 CFG=2
M  V30 29 N 8.585048 5.193049 -11.262554 0
M  V30 30 C 6.164528 5.340492 -11.261161 0
M  V30 31 N 8.679349 2.504464 -17.332362 0
M  V30 32 C 7.070871 -0.101090 -17.154609 0
M  V30 33 H 10.610505 8.878269 -7.222576 0
M  V30 34 H 12.246992 8.620563 -6.698255 0
M  V30 35 H 6.634683 2.657415 -17.272356 0
M  V30 36 H 10.327782 7.700574 -4.747222 0
M  V30 37 H 10.754594 6.000648 -4.614372 0
M  V30 38 H 12.016695 7.217020 -4.691583 0
M  V30 39 H 6.968941 -0.269510 -14.440411 0
M  V30 40 H 8.659711 3.226042 -11.886541 0
M  V30 41 H 9.568216 4.208514 -12.956340 0
M  V30 42 H 11.771348 6.074779 -6.854264 0
M  V30 43 H 11.341752 7.910995 -10.581192 0
M  V30 44 H 7.365468 4.106180 -9.965651 0
M  V30 45 H 7.399675 5.769279 -9.543300 0
M  V30 46 H 7.533007 6.508876 -13.495960 0
M  V30 47 H 8.393336 5.643347 -14.751391 0
M  V30 48 H 6.637201 5.729614 -14.785415 0
M  V30 49 H 7.157421 1.584766 -12.776974 0
M  V30 50 H 8.828538 -2.840681 -18.080908 0
M  V30 51 H 7.107993 -2.528536 -18.029559 0
M  V30 52 H 5.257077 4.556667 -13.070027 0
M  V30 53 H 5.930717 3.358785 -12.009619 0
M  V30 54 H 8.943817 7.229642 -7.100236 0
M  V30 55 H 9.034790 7.616908 -9.554122 0
M  V30 56 H 5.266210 5.231634 -10.652513 0
M  V30 57 H 6.157482 6.369569 -11.622812 0
M  V30 58 H 9.472523 2.279976 -16.749402 0
M  V30 59 H 8.696258 1.853578 -18.104364 0
M  V30 60 H 9.229920 5.628862 -6.481868 0
M  V30 END ATOM
M  V30 BEGIN BOND
M  V30 1 1 9 1
M  V30 2 1 9 6
M  V30 3 2 10 3
M  V30 4 1 14 1
M  V30 5 2 14 2
M  V30 6 1 14 11
M  V30 7 1 17 8
M  V30 8 1 17 12
M  V30 9 1 18 5
M  V30 10 1 18 12
M  V30 11 1 17 19 CFG=3
M  V30 12 1 21 7
M  V30 13 2 21 12
M  V30 14 1 23 17
M  V30 15 2 24 16
M  V30 16 2 25 20
M  V30 17 1 25 22
M  V30 18 1 26 9
M  V30 19 1 26 24
M  V30 20 1 27 5
M  V30 21 2 27 7
M  V30 22 1 28 10
M  V30 23 1 28 11
M  V30 24 1 28 24
M  V30 25 1 29 8
M  V30 26 1 29 10
M  V30 27 1 29 13
M  V30 28 1 30 13
M  V30 29 1 30 23
M  V30 30 1 31 5
M  V30 31 1 32 4
M  V30 32 1 32 15
M  V30 33 1 32 25
M  V30 34 1 32 27
M  V30 35 1 33 1
M  V30 36 1 34 1
M  V30 37 1 5 35 CFG=3
M  V30 38 1 36 6
M  V30 39 1 37 6
M  V30 40 1 38 6
M  V30 41 1 39 7
M  V30 42 1 40 8
M  V30 43 1 41 8
M  V30 44 1 9 42 CFG=1
M  V30 45 1 43 11
M  V30 46 1 44 13
M  V30 47 1 45 13
M  V30 48 1 46 19
M  V30 49 1 47 19
M  V30 50 1 48 19
M  V30 51 1 49 21
M  V30 52 1 50 22
M  V30 53 1 51 22
M  V30 54 1 52 23
M  V30 55 1 53 23
M  V30 56 1 54 26
M  V30 57 1 28 55 CFG=1
M  V30 58 1 56 30
M  V30 59 1 57 30
M  V30 60 1 58 31
M  V30 61 1 59 31
M  V30 62 1 60 26
M  V30 END BOND
M  V30 END CTAB
M  END
>  <i_epik_Tot_Q>  (1) 
0

>  <i_epik_Tot_abs_Q>  (1) 
0

>  <i_i_glide_confnum>  (1) 
29

>  <i_i_glide_lignum>  (1) 
94

>  <i_i_glide_posenum>  (1) 
200

>  <i_i_glide_rotatable_bonds>  (1) 
5

>  <i_lp_mmshare_version>  (1) 
72125

>  <i_m_source_file_index>  (1) 
39

>  <i_f3d_flags>  (1) 
0

>  <num_sample>  (1) 
50

>  <b_lp_Chiralities_Consistent>  (1) 
1

>  <r_epik_Charging_Adjusted_Penalty>  (1) 
0.0043173356697657605

>  <r_epik_Ionization_Penalty>  (1) 
2.5101429145755949

>  <r_epik_Ionization_Penalty_Charging>  (1) 
0

>  <r_epik_Ionization_Penalty_Neutral>  (1) 
2.5101429145755949

>  <r_epik_State_Penalty>  (1) 
0.0043173356697657605

>  <r_glide_ring_energy>  (1) 
0.024453031346126263

>  <r_i_docking_score>  (1) 
-5.9034518528065831

>  <r_i_glide_ecoul>  (1) 
-2.6456954511824273

>  <r_i_glide_eff_state_penalty>  (1) 
0.0043173356697657605

>  <r_i_glide_einternal>  (1) 
13.776013200938088

>  <r_i_glide_emodel>  (1) 
-51.479189536820769

>  <r_i_glide_emodel_strain>  (1) 
1.3759212044178497

>  <r_i_glide_energy>  (1) 
-46.033316981278318

>  <r_i_glide_erotb>  (1) 
0.36503894659470715

>  <r_i_glide_esite>  (1) 
-0.11459537678286805

>  <r_i_glide_evdw>  (1) 
-43.387621530095892

>  <r_i_glide_gscore>  (1) 
-5.9077691884763492

>  <r_i_glide_gscore_strain>  (1) 
0

>  <r_i_glide_hbond>  (1) 
0

>  <r_i_glide_ligand_efficiency>  (1) 
-0.18448287040020572

>  <r_i_glide_ligand_efficiency_ln>  (1) 
-1.3219437918631733

>  <r_i_glide_ligand_efficiency_sa>  (1) 
-0.58569660508679922

>  <r_i_glide_lipo>  (1) 
-1.9549961817026065

>  <r_i_glide_metal>  (1) 
-0

>  <r_i_glide_rewards>  (1) 
-1.6369811824034224

>  <r_lp_Energy>  (1) 
67.478093000000001

>  <r_lp_tautomer_probability>  (1) 
0.99999998000000001

>  <s_epik_Chemistry_Notes>  (1) 
This compound contains an acetal/aminal-like group ( X-CH(R)-Y where X, Y are N, S, or O) that may be acid/base labile, releasing an aldehyde.

>  <s_epik_cmdline>  (1) 
J2VwaWtfcHl0aG9uJywgJy1waHQnLCAnMS4wJywgJy1waCcsICc3LjQnLCAnLXRuJywgJzgnLCAnLW1hJywgJzUwMCcsICctaW1hZScsICc8aW5maWxlLm1hZT4nLCAnLW9tYWUnLCAnPG91dGZpbGUubWFlPic=

>  <s_epik_input>  (1) 
W0NIM11bQ0BASF0xW0NIMl1DKD1PKVtOSF1bQ0BIXShDKD1PKVtDSDJdMSlDKD1TKU4oW0NIMl1bQ0gyXVtDSDJdMilbQ0gyXVtDQEBdMihbQ0gzXSlDKE9bQ0BASF0zW05IMl0pPVtDSF1bQ0hdPUMzQyhGKShGKUMoPU8pW05IMl0=

>  <s_glide_docking_method>  (1) 
confgen

>  <s_i_glide_gridfile>  (1) 
gpcr_drd2_6luq_protein_autoprepared_prepared

>  <s_lp_Force_Field>  (1) 
S-OPLS

>  <s_lp_Variant>  (1) 
DiffSBDD_38_num_sample_50-2

>  <s_m_source_file>  (1) 
generated__ligand_DiffSBDD_2026-05-06_prepared.sdf

>  <GenAI_Model>  (1) 
DiffSBDD

>  <Protein>  (1) 
generic_title2

$$$$
DiffSBDD_3_num_sample_50
     RDKit          3D

  0  0  0  0  0  0  0  0  0  0999 V3000
M  V30 BEGIN CTAB
M  V30 COUNTS 57 60 0 0 1
M  V30 BEGIN ATOM
M  V30 1 C 6.219707 7.369300 -19.860061 0
M  V30 2 C 11.039973 8.827441 -6.243926 0
M  V30 3 C 8.470394 6.670381 -20.573995 0
M  V30 4 F 9.759592 5.362583 -19.124169 0
M  V30 5 C 7.444706 6.710831 -12.261578 0
M  V30 6 C 6.827252 5.887198 -13.415209 0 CFG=1
M  V30 7 C 12.085424 8.932391 -7.179013 0
M  V30 8 C 9.627225 7.781535 -7.934067 0
M  V30 9 C 5.588438 6.495294 -16.397760 0 CFG=1
M  V30 10 C 7.576418 6.086160 -14.750509 0
M  V30 11 C 10.492275 7.377138 -10.296664 0
M  V30 12 C 6.826596 5.626156 -16.031978 0 CFG=2
M  V30 13 C 8.522023 5.502327 -19.600703 0 CFG=1
M  V30 14 C 7.802890 5.455099 -17.191945 0
M  V30 15 O 5.912999 4.133838 -11.885187 0
M  V30 16 C 5.762406 8.002199 -16.169509 0
M  V30 17 C 5.434832 3.641648 -13.141120 0
M  V30 18 C 7.500412 5.679580 -18.489397 0
M  V30 19 C 10.675097 7.886096 -8.882579 0
M  V30 20 C 9.813941 8.251544 -6.621240 0
M  V30 21 N 9.256434 6.944452 -10.603410 0
M  V30 22 C 7.433033 7.527562 -20.691719 0
M  V30 23 C 11.906976 8.462322 -8.495606 0
M  V30 24 O 5.289504 8.173506 -19.891671 0
M  V30 25 O 11.432316 7.369301 -11.091667 0
M  V30 26 C 8.910819 6.383707 -11.907242 0
M  V30 27 C 5.070562 6.205501 -17.816994 0
M  V30 28 C 6.123905 6.132535 -18.944239 0 CFG=1
M  V30 29 C 6.718323 4.418310 -13.038974 0 CFG=1
M  V30 30 H 11.179469 9.186603 -5.235001 0
M  V30 31 H 9.341899 6.810046 -21.197075 0
M  V30 32 H 7.366598 7.774061 -12.491278 0
M  V30 33 H 6.821152 6.562533 -11.379331 0
M  V30 34 H 5.811487 6.263974 -13.539825 0
M  V30 35 H 13.027792 9.369311 -6.886558 0
M  V30 36 H 8.681852 7.338130 -8.208505 0
M  V30 37 H 4.788732 6.194361 -15.721180 0
M  V30 38 H 8.531069 5.563407 -14.680348 0
M  V30 39 H 7.834840 7.137495 -14.844416 0
M  V30 40 H 6.478060 4.611427 -15.843870 0
M  V30 41 H 8.302730 4.584838 -20.147736 0
M  V30 42 H 8.799960 5.132027 -16.930839 0
M  V30 43 H 6.634839 8.374622 -16.691665 0
M  V30 44 H 4.896650 8.563013 -16.517274 0
M  V30 45 H 5.875876 8.227886 -15.110494 0
M  V30 46 H 4.531723 4.135121 -13.491670 0
M  V30 47 H 5.484623 2.560707 -13.254897 0
M  V30 48 H 9.012948 8.168909 -5.901817 0
M  V30 49 H 8.515957 7.012599 -9.906213 0
M  V30 50 H 7.470073 8.346664 -21.394985 0
M  V30 51 H 12.715083 8.544539 -9.209230 0
M  V30 52 H 9.063904 5.306445 -11.844814 0
M  V30 53 H 9.571404 6.753142 -12.691661 0
M  V30 54 H 4.634840 5.225606 -17.792238 0
M  V30 55 H 4.235713 6.862665 -18.063416 0
M  V30 56 H 5.778793 5.349194 -19.620020 0
M  V30 57 H 7.646562 3.850767 -13.069048 0
M  V30 END ATOM
M  V30 BEGIN BOND
M  V30 1 1 6 5
M  V30 2 2 7 2
M  V30 3 1 10 6
M  V30 4 1 12 9
M  V30 5 1 12 10
M  V30 6 1 13 3
M  V30 7 1 13 4
M  V30 8 1 14 12
M  V30 9 1 16 9
M  V30 10 1 17 15
M  V30 11 1 18 13
M  V30 12 2 18 14
M  V30 13 1 19 8
M  V30 14 1 19 11
M  V30 15 1 20 2
M  V30 16 2 20 8
M  V30 17 1 21 11
M  V30 18 1 22 1
M  V30 19 2 22 3
M  V30 20 1 23 7
M  V30 21 2 23 19
M  V30 22 2 24 1
M  V30 23 2 25 11
M  V30 24 1 26 5
M  V30 25 1 26 21
M  V30 26 1 27 9
M  V30 27 1 28 1
M  V30 28 1 28 18
M  V30 29 1 28 27
M  V30 30 1 29 6
M  V30 31 1 29 15
M  V30 32 1 29 17
M  V30 33 1 30 2
M  V30 34 1 31 3
M  V30 35 1 32 5
M  V30 36 1 33 5
M  V30 37 1 6 34 CFG=3
M  V30 38 1 35 7
M  V30 39 1 36 8
M  V30 40 1 9 37 CFG=1
M  V30 41 1 38 10
M  V30 42 1 39 10
M  V30 43 1 12 40 CFG=1
M  V30 44 1 13 41 CFG=3
M  V30 45 1 42 14
M  V30 46 1 43 16
M  V30 47 1 44 16
M  V30 48 1 45 16
M  V30 49 1 46 17
M  V30 50 1 47 17
M  V30 51 1 48 20
M  V30 52 1 49 21
M  V30 53 1 50 22
M  V30 54 1 51 23
M  V30 55 1 52 26
M  V30 56 1 53 26
M  V30 57 1 54 27
M  V30 58 1 55 27
M  V30 59 1 28 56 CFG=3
M  V30 60 1 29 57 CFG=1
M  V30 END BOND
M  V30 END CTAB
M  END
>  <i_epik_Tot_Q>  (1) 
0

>  <i_epik_Tot_abs_Q>  (1) 
0

>  <i_i_glide_confnum>  (1) 
472

>  <i_i_glide_lignum>  (1) 
10

>  <i_i_glide_posenum>  (1) 
72

>  <i_i_glide_rotatable_bonds>  (1) 
8

>  <i_lp_mmshare_version>  (1) 
72125

>  <i_m_source_file_index>  (1) 
4

>  <i_f3d_flags>  (1) 
0

>  <num_sample>  (1) 
50

>  <b_lp_Chiralities_Consistent>  (1) 
1

>  <r_epik_Charging_Adjusted_Penalty>  (1) 
0

>  <r_epik_Ionization_Penalty>  (1) 
1.5409479738535797e-07

>  <r_epik_Ionization_Penalty_Charging>  (1) 
0

>  <r_epik_Ionization_Penalty_Neutral>  (1) 
1.5409479738535797e-07

>  <r_epik_State_Penalty>  (1) 
-0

>  <r_glide_ring_energy>  (1) 
0

>  <r_i_docking_score>  (1) 
-5.8991182644363969

>  <r_i_glide_ecoul>  (1) 
-4.37206217041971

>  <r_i_glide_eff_state_penalty>  (1) 
-0

>  <r_i_glide_einternal>  (1) 
2.0551769574117813

>  <r_i_glide_emodel>  (1) 
-47.625196358597918

>  <r_i_glide_emodel_strain>  (1) 
0

>  <r_i_glide_energy>  (1) 
-35.434465796541694

>  <r_i_glide_erotb>  (1) 
0.86725254217801073

>  <r_i_glide_esite>  (1) 
-0.13202288220716565

>  <r_i_glide_evdw>  (1) 
-31.062403626121984

>  <r_i_glide_gscore>  (1) 
-5.8991182644363969

>  <r_i_glide_gscore_strain>  (1) 
0

>  <r_i_glide_hbond>  (1) 
0

>  <r_i_glide_ligand_efficiency>  (1) 
-0.20341787118746196

>  <r_i_glide_ligand_efficiency_ln>  (1) 
-1.3507484938236176

>  <r_i_glide_ligand_efficiency_sa>  (1) 
-0.62496414829443581

>  <r_i_glide_lipo>  (1) 
-2.6609334776319606

>  <r_i_glide_metal>  (1) 
-0

>  <r_i_glide_rewards>  (1) 
-1.764484939906225

>  <r_lp_Energy>  (1) 
34.697915000000002

>  <r_lp_tautomer_probability>  (1) 
1

>  <s_epik_cmdline>  (1) 
J2VwaWtfcHl0aG9uJywgJy1waHQnLCAnMS4wJywgJy1waCcsICc3LjQnLCAnLXRuJywgJzgnLCAnLW1hJywgJzUwMCcsICctaW1hZScsICc8aW5maWxlLm1hZT4nLCAnLW9tYWUnLCAnPG91dGZpbGUubWFlPic=

>  <s_epik_input>  (1) 
RltDQEBIXTFbQ0hdPVtDSF1DKD1PKVtDQEBIXShDMTIpW0NIMl1bQ0BIXShbQ0gzXSlbQ0BASF0oW0NIXT0yKVtDSDJdW0NAQEhdKFtDQEhdM09bQ0gyXTMpW0NIMl1bQ0gyXVtOSF1DKD1PKWM0W2NIXVtjSF1bY0hdW2NIXVtjSF00

>  <s_glide_docking_method>  (1) 
confgen

>  <s_i_glide_gridfile>  (1) 
gpcr_drd2_6luq_protein_autoprepared_prepared

>  <s_lp_Force_Field>  (1) 
S-OPLS

>  <s_lp_Variant>  (1) 
DiffSBDD_3_num_sample_50-1

>  <s_m_source_file>  (1) 
generated__ligand_DiffSBDD_2026-05-06_prepared.sdf

>  <GenAI_Model>  (1) 
DiffSBDD

>  <Protein>  (1) 
generic_title2

$$$$
DiffSBDD_20_num_sample_50
     RDKit          3D

  0  0  0  0  0  0  0  0  0  0999 V3000
M  V30 BEGIN CTAB
M  V30 COUNTS 66 71 0 0 1
M  V30 BEGIN ATOM
M  V30 1 F 10.427232 9.353655 -5.491681 0
M  V30 2 F 11.858123 8.631552 -4.021653 0
M  V30 3 F 10.234889 6.679032 -4.691920 0
M  V30 4 C 6.810097 6.188838 -13.441043 0 CFG=1
M  V30 5 C 5.796738 4.362017 -18.946912 0
M  V30 6 C 9.736740 7.103159 -11.581367 0
M  V30 7 C 8.361593 5.275543 -20.922948 0
M  V30 8 C 6.390889 5.664536 -14.779019 0 CFG=1
M  V30 9 N 10.873713 7.323640 -8.072531 0
M  V30 10 C 11.694619 8.148956 -9.937977 0
M  V30 11 C 8.495919 2.935704 -19.997024 0
M  V30 12 C 7.265110 5.584239 -16.026588 0
M  V30 13 C 9.454315 5.656584 -21.601604 0
M  V30 14 N 8.256219 7.012917 -11.498562 0 CHG=1
M  V30 15 C 10.444328 7.369354 -10.255537 0
M  V30 16 C 6.014208 7.083595 -12.557636 0
M  V30 17 F 12.130408 6.243121 -5.574606 0
M  V30 18 C 9.321775 6.169337 -7.162964 0
M  V30 19 C 7.426827 6.065389 -20.054484 0 CFG=2
M  V30 20 C 6.796745 4.727561 -13.572409 0
M  V30 21 C 7.685208 3.934178 -20.826935 0 CFG=1
M  V30 22 C 10.164309 6.982972 -8.980881 0
M  V30 23 C 7.979927 6.355394 -18.666282 0
M  V30 24 C 11.092093 7.076780 -5.633339 0
M  V30 25 C 9.034835 6.169112 -8.649372 0
M  V30 26 C 7.534591 7.318589 -12.762091 0 CFG=2
M  V30 27 N 10.466439 6.893866 -6.938839 0
M  V30 28 C 6.546637 4.800255 -20.203513 0 CFG=1
M  V30 29 C 11.913631 8.072476 -8.509648 0
M  V30 30 S 6.634839 6.569300 -17.439767 0 CHG=1
M  V30 31 C 5.296263 5.592658 -18.164054 0
M  V30 32 C 11.461987 8.538214 -5.291150 0
M  V30 33 C 7.808695 1.570699 -19.873317 0
M  V30 34 H 4.962064 3.723375 -19.228963 0
M  V30 35 H 6.426060 3.751245 -18.301740 0
M  V30 36 H 10.128908 6.188543 -12.027507 0
M  V30 37 H 10.002413 7.918581 -12.253728 0
M  V30 38 H 5.324934 5.705215 -14.993361 0
M  V30 39 H 12.329091 8.674893 -10.636489 0
M  V30 40 H 9.474983 2.788024 -20.454621 0
M  V30 41 H 8.692863 3.325498 -18.998575 0
M  V30 42 H 7.363272 4.541771 -16.328331 0
M  V30 43 H 8.266486 5.931126 -15.769418 0
M  V30 44 H 9.801359 6.679152 -21.570000 0
M  V30 45 H 10.013824 4.950188 -22.197418 0
M  V30 46 H 7.906403 7.640816 -10.769937 0
M  V30 47 H 5.320524 7.769203 -13.039382 0
M  V30 48 H 5.672440 6.674146 -11.608096 0
M  V30 49 H 8.799928 5.723659 -6.331884 0
M  V30 50 H 6.950544 6.932824 -20.513636 0
M  V30 51 H 6.004443 4.181332 -13.063990 0
M  V30 52 H 7.757987 4.219933 -13.623092 0
M  V30 53 H 7.368595 3.511912 -21.781855 0
M  V30 54 H 8.621487 7.235932 -18.691649 0
M  V30 55 H 8.608310 5.531301 -18.330908 0
M  V30 56 H 8.243826 5.725958 -9.238657 0
M  V30 57 H 7.834899 8.221766 -13.289302 0
M  V30 58 H 5.819728 5.008973 -20.993533 0
M  V30 59 H 12.664457 8.462578 -7.844919 0
M  V30 60 H 4.736971 6.237878 -18.842842 0
M  V30 61 H 4.625236 5.369303 -17.346048 0
M  V30 62 H 12.279441 8.941693 -5.878115 0
M  V30 63 H 8.411319 0.885394 -19.277327 0
M  V30 64 H 6.832282 1.652359 -19.397072 0
M  V30 65 H 7.661674 1.116532 -20.853421 0
M  V30 66 H 8.005608 6.083388 -11.197264 0
M  V30 END ATOM
M  V30 BEGIN BOND
M  V30 1 1 8 4
M  V30 2 1 12 8
M  V30 3 2 13 7
M  V30 4 1 14 6
M  V30 5 1 15 6
M  V30 6 1 15 10
M  V30 7 1 4 16 CFG=1
M  V30 8 1 19 7
M  V30 9 1 20 4
M  V30 10 1 20 8
M  V30 11 1 21 7
M  V30 12 1 21 11
M  V30 13 1 22 9
M  V30 14 2 22 15
M  V30 15 1 23 19
M  V30 16 1 24 3
M  V30 17 1 24 17
M  V30 18 2 25 18
M  V30 19 1 25 22
M  V30 20 1 26 4
M  V30 21 1 26 14
M  V30 22 1 26 16
M  V30 23 1 27 9
M  V30 24 1 27 18
M  V30 25 1 27 24
M  V30 26 1 28 5
M  V30 27 1 28 19
M  V30 28 1 28 21
M  V30 29 1 29 9
M  V30 30 2 29 10
M  V30 31 1 30 12 CFG=1
M  V30 32 1 30 23
M  V30 33 1 31 5
M  V30 34 1 31 30
M  V30 35 1 32 1
M  V30 36 1 32 2
M  V30 37 1 32 24
M  V30 38 1 33 11
M  V30 39 1 34 5
M  V30 40 1 35 5
M  V30 41 1 36 6
M  V30 42 1 37 6
M  V30 43 1 8 38 CFG=3
M  V30 44 1 39 10
M  V30 45 1 40 11
M  V30 46 1 41 11
M  V30 47 1 42 12
M  V30 48 1 43 12
M  V30 49 1 44 13
M  V30 50 1 45 13
M  V30 51 1 46 14
M  V30 52 1 47 16
M  V30 53 1 48 16
M  V30 54 1 49 18
M  V30 55 1 19 50 CFG=3
M  V30 56 1 51 20
M  V30 57 1 52 20
M  V30 58 1 21 53 CFG=3
M  V30 59 1 54 23
M  V30 60 1 55 23
M  V30 61 1 56 25
M  V30 62 1 26 57 CFG=3
M  V30 63 1 28 58 CFG=3
M  V30 64 1 59 29
M  V30 65 1 60 31
M  V30 66 1 61 31
M  V30 67 1 62 32
M  V30 68 1 63 33
M  V30 69 1 64 33
M  V30 70 1 65 33
M  V30 71 1 66 14
M  V30 END BOND
M  V30 END CTAB
M  END
>  <i_epik_Tot_Q>  (1) 
2

>  <i_epik_Tot_abs_Q>  (1) 
2

>  <i_i_glide_confnum>  (1) 
111

>  <i_i_glide_lignum>  (1) 
57

>  <i_i_glide_posenum>  (1) 
209

>  <i_i_glide_rotatable_bonds>  (1) 
8

>  <i_lp_mmshare_version>  (1) 
72125

>  <i_m_source_file_index>  (1) 
21

>  <i_f3d_flags>  (1) 
0

>  <num_sample>  (1) 
50

>  <b_lp_Chiralities_Consistent>  (1) 
1

>  <r_epik_Charging_Adjusted_Penalty>  (1) 
0.37096612377333449

>  <r_epik_Ionization_Penalty>  (1) 
0.1854830618866673

>  <r_epik_Ionization_Penalty_Charging>  (1) 
0.1854830618866673

>  <r_epik_Ionization_Penalty_Neutral>  (1) 
0

>  <r_epik_State_Penalty>  (1) 
0.18548306188666719

>  <r_glide_ring_energy>  (1) 
0

>  <r_i_docking_score>  (1) 
-5.8967875083345414

>  <r_i_glide_ecoul>  (1) 
-6.4342830629495076

>  <r_i_glide_eff_state_penalty>  (1) 
0.18548306188666719

>  <r_i_glide_einternal>  (1) 
10.359043871939178

>  <r_i_glide_emodel>  (1) 
-42.177085491236951

>  <r_i_glide_emodel_strain>  (1) 
2.6802283873084889

>  <r_i_glide_energy>  (1) 
-34.912831381125216

>  <r_i_glide_erotb>  (1) 
0.52081538215961176

>  <r_i_glide_esite>  (1) 
-0.10000000000000001

>  <r_i_glide_evdw>  (1) 
-28.478548318175704

>  <r_i_glide_gscore>  (1) 
-6.0822705702212083

>  <r_i_glide_gscore_strain>  (1) 
0

>  <r_i_glide_hbond>  (1) 
-0.19482034532678585

>  <r_i_glide_ligand_efficiency>  (1) 
-0.17869053055559217

>  <r_i_glide_ligand_efficiency_ln>  (1) 
-1.3114150099219177

>  <r_i_glide_ligand_efficiency_sa>  (1) 
-0.57315601120223014

>  <r_i_glide_lipo>  (1) 
-1.9483900024395993

>  <r_i_glide_metal>  (1) 
-0

>  <r_i_glide_rewards>  (1) 
-1.9708057292632237

>  <r_lp_Energy>  (1) 
12.133251999999999

>  <s_epik_cmdline>  (1) 
J2VwaWtfcHl0aG9uJywgJy1waHQnLCAnMS4wJywgJy1waCcsICc3LjQnLCAnLXRuJywgJzgnLCAnLW1hJywgJzUwMCcsICctaW1hZScsICc8aW5maWxlLm1hZT4nLCAnLW9tYWUnLCAnPG91dGZpbGUubWFlPic=

>  <s_epik_input>  (1) 
RltDSF0oRilDKEYpKEYpbjFbY0hdW2NIXWMobjEyKWMoW2NIXVtjSF0yKVtDSDJdW05IXVtDQEBIXTNbQ0gyXVtDQF0zNFtDQEhdKFtDSDJdNClbQ0gyXVtTK10oW0NIMl01KVtDSDJdW0NIMl1bQ0BASF0oW0NAQEhdNTYpW0NAQEhdKEM2PVtDSDJdKVtDSDJdW0NIM10=

>  <s_glide_docking_method>  (1) 
confgen

>  <s_i_glide_gridfile>  (1) 
gpcr_drd2_6luq_protein_autoprepared_prepared

>  <s_lp_Force_Field>  (1) 
S-OPLS

>  <s_lp_Variant>  (1) 
DiffSBDD_20_num_sample_50-1

>  <s_m_source_file>  (1) 
generated__ligand_DiffSBDD_2026-05-06_prepared.sdf

>  <GenAI_Model>  (1) 
DiffSBDD

>  <Protein>  (1) 
generic_title2

$$$$
DiffSBDD_3_num_sample_50
     RDKit          3D

  0  0  0  0  0  0  0  0  0  0999 V3000
M  V30 BEGIN CTAB
M  V30 COUNTS 57 60 0 0 1
M  V30 BEGIN ATOM
M  V30 1 C 7.356870 5.325847 -19.402058 0
M  V30 2 C 11.375097 8.062816 -7.162716 0
M  V30 3 C 5.182539 6.473500 -19.272981 0
M  V30 4 F 4.312372 6.969327 -17.160583 0
M  V30 5 C 8.602308 3.840282 -12.399659 0
M  V30 6 C 7.765451 3.037865 -13.422538 0 CFG=2
M  V30 7 C 10.448302 7.013643 -7.016266 0
M  V30 8 C 11.047329 8.022987 -9.580221 0
M  V30 9 C 8.502863 4.263742 -16.293246 0 CFG=1
M  V30 10 C 6.847920 3.901603 -14.316120 0
M  V30 11 C 9.434839 6.402181 -10.669107 0
M  V30 12 C 7.530318 4.911992 -15.267366 0 CFG=2
M  V30 13 C 5.439858 7.013654 -17.872735 0 CFG=1
M  V30 14 C 6.457002 5.745573 -15.956615 0
M  V30 15 O 6.399561 0.963396 -13.638743 0
M  V30 16 C 7.960884 2.992934 -16.982359 0
M  V30 17 C 7.377394 0.509420 -12.691668 0
M  V30 18 C 6.557726 6.223526 -17.212892 0
M  V30 19 C 10.113596 6.971698 -9.442221 0
M  V30 20 C 11.675521 8.565243 -8.443105 0
M  V30 21 N 8.566757 5.401602 -10.435151 0
M  V30 22 C 6.041238 5.694564 -19.968088 0
M  V30 23 C 9.817090 6.465744 -8.149570 0
M  V30 24 O 8.117602 4.536916 -19.959719 0
M  V30 25 O 9.676688 6.846813 -11.793287 0
M  V30 26 C 7.778300 4.776176 -11.489987 0
M  V30 27 C 8.957140 5.308425 -17.325591 0
M  V30 28 C 7.784307 5.987827 -18.078407 0 CFG=1
M  V30 29 C 6.945867 1.949376 -12.753274 0 CFG=1
M  V30 30 H 11.854922 8.483258 -6.291970 0
M  V30 31 H 4.234841 6.731748 -19.714372 0
M  V30 32 H 9.169596 3.140740 -11.783738 0
M  V30 33 H 9.349928 4.423263 -12.938395 0
M  V30 34 H 8.470014 2.516183 -14.065727 0
M  V30 35 H 10.218266 6.629413 -6.032803 0
M  V30 36 H 11.279047 8.415355 -10.559486 0
M  V30 37 H 9.399584 3.965506 -15.753474 0
M  V30 38 H 6.131011 4.425883 -13.683652 0
M  V30 39 H 6.234840 3.234403 -14.917824 0
M  V30 40 H 8.096727 5.617268 -14.657299 0
M  V30 41 H 5.705003 8.066173 -17.939036 0
M  V30 42 H 5.560860 5.938949 -15.385127 0
M  V30 43 H 7.002900 3.173276 -17.468195 0
M  V30 44 H 8.654158 2.637194 -17.744802 0
M  V30 45 H 7.821511 2.172536 -16.279496 0
M  V30 46 H 8.333426 0.221849 -13.124985 0
M  V30 47 H 6.977253 -0.130155 -11.907728 0
M  V30 48 H 12.386266 9.369301 -8.554049 0
M  V30 49 H 8.413644 5.095977 -9.487153 0
M  V30 50 H 5.784088 5.327554 -20.950628 0
M  V30 51 H 9.104696 5.665021 -8.024755 0
M  V30 52 H 7.293549 5.559181 -12.074913 0
M  V30 53 H 6.978786 4.222667 -10.998825 0
M  V30 54 H 9.523064 6.077902 -16.800289 0
M  V30 55 H 9.677235 4.868501 -18.016414 0
M  V30 56 H 8.142523 6.970530 -18.379813 0
M  V30 57 H 6.233089 2.291726 -12.008273 0
M  V30 END ATOM
M  V30 BEGIN BOND
M  V30 1 1 6 5
M  V30 2 2 7 2
M  V30 3 1 10 6
M  V30 4 1 12 9
M  V30 5 1 12 10
M  V30 6 1 13 3
M  V30 7 1 13 4
M  V30 8 1 14 12
M  V30 9 1 16 9
M  V30 10 1 17 15
M  V30 11 1 18 13
M  V30 12 2 18 14
M  V30 13 1 19 8
M  V30 14 1 19 11
M  V30 15 1 20 2
M  V30 16 2 20 8
M  V30 17 1 21 11
M  V30 18 1 22 1
M  V30 19 2 22 3
M  V30 20 1 23 7
M  V30 21 2 23 19
M  V30 22 2 24 1
M  V30 23 2 25 11
M  V30 24 1 26 5
M  V30 25 1 26 21
M  V30 26 1 27 9
M  V30 27 1 28 1
M  V30 28 1 28 18
M  V30 29 1 28 27
M  V30 30 1 29 6
M  V30 31 1 29 15
M  V30 32 1 29 17
M  V30 33 1 30 2
M  V30 34 1 31 3
M  V30 35 1 32 5
M  V30 36 1 33 5
M  V30 37 1 6 34 CFG=3
M  V30 38 1 35 7
M  V30 39 1 36 8
M  V30 40 1 9 37 CFG=1
M  V30 41 1 38 10
M  V30 42 1 39 10
M  V30 43 1 12 40 CFG=1
M  V30 44 1 13 41 CFG=3
M  V30 45 1 42 14
M  V30 46 1 43 16
M  V30 47 1 44 16
M  V30 48 1 45 16
M  V30 49 1 46 17
M  V30 50 1 47 17
M  V30 51 1 48 20
M  V30 52 1 49 21
M  V30 53 1 50 22
M  V30 54 1 51 23
M  V30 55 1 52 26
M  V30 56 1 53 26
M  V30 57 1 54 27
M  V30 58 1 55 27
M  V30 59 1 28 56 CFG=3
M  V30 60 1 29 57 CFG=1
M  V30 END BOND
M  V30 END CTAB
M  END
>  <i_epik_Tot_Q>  (1) 
0

>  <i_epik_Tot_abs_Q>  (1) 
0

>  <i_i_glide_confnum>  (1) 
1

>  <i_i_glide_lignum>  (1) 
11

>  <i_i_glide_posenum>  (1) 
203

>  <i_i_glide_rotatable_bonds>  (1) 
8

>  <i_lp_mmshare_version>  (1) 
72125

>  <i_m_source_file_index>  (1) 
4

>  <i_f3d_flags>  (1) 
0

>  <num_sample>  (1) 
50

>  <b_lp_Chiralities_Consistent>  (1) 
1

>  <r_epik_Charging_Adjusted_Penalty>  (1) 
0

>  <r_epik_Ionization_Penalty>  (1) 
1.5409479738535797e-07

>  <r_epik_Ionization_Penalty_Charging>  (1) 
0

>  <r_epik_Ionization_Penalty_Neutral>  (1) 
1.5409479738535797e-07

>  <r_epik_State_Penalty>  (1) 
-0

>  <r_glide_ring_energy>  (1) 
0

>  <r_i_docking_score>  (1) 
-5.8933564738941886

>  <r_i_glide_ecoul>  (1) 
-0.41264223379600506

>  <r_i_glide_eff_state_penalty>  (1) 
-0

>  <r_i_glide_einternal>  (1) 
2.1663127575912284

>  <r_i_glide_emodel>  (1) 
-50.781112510712269

>  <r_i_glide_emodel_strain>  (1) 
0

>  <r_i_glide_energy>  (1) 
-36.657829896066758

>  <r_i_glide_erotb>  (1) 
0.86725254217801073

>  <r_i_glide_esite>  (1) 
-0.12685714431849313

>  <r_i_glide_evdw>  (1) 
-36.245187662270752

>  <r_i_glide_gscore>  (1) 
-5.8933564738941886

>  <r_i_glide_gscore_strain>  (1) 
0

>  <r_i_glide_hbond>  (1) 
0

>  <r_i_glide_ligand_efficiency>  (1) 
-0.20321918875497202

>  <r_i_glide_ligand_efficiency_ln>  (1) 
-1.3494291898958537

>  <r_i_glide_ligand_efficiency_sa>  (1) 
-0.62435373291412877

>  <r_i_glide_lipo>  (1) 
-2.7257835569695148

>  <r_i_glide_metal>  (1) 
-0

>  <r_i_glide_rewards>  (1) 
-2.0338125966012526

>  <r_lp_Energy>  (1) 
36.521651999999996

>  <r_lp_tautomer_probability>  (1) 
1

>  <s_epik_cmdline>  (1) 
J2VwaWtfcHl0aG9uJywgJy1waHQnLCAnMS4wJywgJy1waCcsICc3LjQnLCAnLXRuJywgJzgnLCAnLW1hJywgJzUwMCcsICctaW1hZScsICc8aW5maWxlLm1hZT4nLCAnLW9tYWUnLCAnPG91dGZpbGUubWFlPic=

>  <s_epik_input>  (1) 
RltDQEBIXTFbQ0hdPVtDSF1DKD1PKVtDQEBIXShDMTIpW0NIMl1bQ0BIXShbQ0gzXSlbQ0BASF0oW0NIXT0yKVtDSDJdW0NAQEhdKFtDQEhdM09bQ0gyXTMpW0NIMl1bQ0gyXVtOSF1DKD1PKWM0W2NIXVtjSF1bY0hdW2NIXVtjSF00

>  <s_glide_docking_method>  (1) 
confgen

>  <s_i_glide_gridfile>  (1) 
gpcr_drd2_6luq_protein_autoprepared_prepared

>  <s_lp_Force_Field>  (1) 
S-OPLS

>  <s_lp_Variant>  (1) 
DiffSBDD_3_num_sample_50-2

>  <s_m_source_file>  (1) 
generated__ligand_DiffSBDD_2026-05-06_prepared.sdf

>  <GenAI_Model>  (1) 
DiffSBDD

>  <Protein>  (1) 
generic_title2

$$$$
DiffSBDD_17_num_sample_50
     RDKit          3D

  0  0  0  0  0  0  0  0  0  0999 V3000
M  V30 BEGIN CTAB
M  V30 COUNTS 58 60 0 0 1
M  V30 BEGIN ATOM
M  V30 1 C 10.273097 8.216414 -8.289178 0 CFG=2
M  V30 2 C 6.656535 5.213070 -19.141178 0 CFG=2
M  V30 3 C 9.234901 4.685261 -9.497286 0
M  V30 4 C 5.522896 5.769126 -13.800810 0
M  V30 5 N 9.434839 7.012041 -8.514415 0 CHG=1
M  V30 6 C 12.418429 9.469399 -5.397487 0
M  V30 7 C 8.323345 4.969313 -10.678392 0
M  V30 8 C 11.009845 8.650031 -9.573291 0
M  V30 9 C 6.197868 6.690260 -17.463293 0 CFG=2
M  V30 10 C 11.501903 8.480463 -4.685763 0
M  V30 11 C 10.482932 8.024218 -5.733793 0
M  V30 12 C 7.932537 5.366462 -13.032045 0
M  V30 13 C 5.808861 6.857041 -15.991878 0
M  V30 14 C 5.036934 7.036990 -18.418608 0
M  V30 15 N 6.062896 5.333239 -11.474138 0
M  V30 16 C 11.225461 8.067824 -7.069877 0
M  V30 17 C 12.225080 9.228422 -6.896046 0
M  V30 18 N 5.956589 5.781502 -15.197904 0
M  V30 19 O 5.368837 7.931456 -15.589792 0
M  V30 20 C 6.945093 5.091326 -10.481282 0
M  V30 21 C 10.136741 5.850376 -9.090236 0
M  V30 22 C 8.835340 5.103879 -11.983867 0
M  V30 23 C 6.555864 5.475654 -12.723721 0
M  V30 24 S 5.262888 6.053021 -19.913452 0
M  V30 25 C 6.681069 3.725840 -19.498384 0
M  V30 26 O 6.563197 5.342156 -17.736415 0
M  V30 27 H 9.543561 8.989590 -8.058526 0
M  V30 28 H 7.576628 5.695592 -19.475500 0
M  V30 29 H 8.630458 4.402721 -8.633491 0
M  V30 30 H 9.834839 3.811315 -9.748236 0
M  V30 31 H 4.746750 5.006786 -13.725787 0
M  V30 32 H 5.036968 6.702466 -13.512512 0
M  V30 33 H 8.672538 7.280163 -9.135081 0
M  V30 34 H 13.459181 9.369235 -5.084957 0
M  V30 35 H 12.112175 10.486690 -5.154632 0
M  V30 36 H 11.344334 9.685745 -9.509189 0
M  V30 37 H 11.895849 8.040957 -9.757414 0
M  V30 38 H 10.361375 8.569463 -10.446650 0
M  V30 39 H 7.034854 7.344784 -17.683242 0
M  V30 40 H 12.075038 7.625583 -4.323195 0
M  V30 41 H 11.034843 8.965649 -3.830019 0
M  V30 42 H 9.650795 8.725665 -5.764740 0
M  V30 43 H 10.072762 7.037300 -5.515479 0
M  V30 44 H 8.286264 5.483370 -14.045466 0
M  V30 45 H 4.069199 6.780419 -17.985358 0
M  V30 46 H 5.017065 8.100613 -18.659578 0
M  V30 47 H 11.816577 7.155824 -7.159637 0
M  V30 48 H 13.169440 9.002275 -7.393239 0
M  V30 49 H 11.834412 10.149080 -7.324190 0
M  V30 50 H 6.331428 4.928482 -15.588577 0
M  V30 51 H 6.543188 4.998404 -9.493578 0
M  V30 52 H 10.871152 5.506427 -8.362656 0
M  V30 53 H 10.634694 6.170041 -9.993149 0
M  V30 54 H 9.894309 5.011477 -12.177410 0
M  V30 55 H 7.521016 3.223159 -19.018620 0
M  V30 56 H 5.765233 3.230548 -19.173443 0
M  V30 57 H 6.777443 3.583334 -20.575051 0
M  V30 58 H 8.992733 6.747283 -7.645040 0
M  V30 END ATOM
M  V30 BEGIN BOND
M  V30 1 1 5 1
M  V30 2 1 7 3
M  V30 3 1 8 1
M  V30 4 1 10 6
M  V30 5 1 11 10
M  V30 6 1 13 9
M  V30 7 1 14 9
M  V30 8 1 16 1
M  V30 9 1 16 11
M  V30 10 1 17 6
M  V30 11 1 17 16
M  V30 12 1 18 4
M  V30 13 1 18 13
M  V30 14 2 19 13
M  V30 15 2 20 7
M  V30 16 1 20 15
M  V30 17 1 21 3
M  V30 18 1 21 5
M  V30 19 1 22 7
M  V30 20 2 22 12
M  V30 21 1 23 4
M  V30 22 1 23 12
M  V30 23 2 23 15
M  V30 24 1 24 2
M  V30 25 1 24 14
M  V30 26 1 25 2
M  V30 27 1 26 2
M  V30 28 1 26 9
M  V30 29 1 1 27 CFG=1
M  V30 30 1 2 28 CFG=3
M  V30 31 1 29 3
M  V30 32 1 30 3
M  V30 33 1 31 4
M  V30 34 1 32 4
M  V30 35 1 33 5
M  V30 36 1 34 6
M  V30 37 1 35 6
M  V30 38 1 36 8
M  V30 39 1 37 8
M  V30 40 1 38 8
M  V30 41 1 9 39 CFG=3
M  V30 42 1 40 10
M  V30 43 1 41 10
M  V30 44 1 42 11
M  V30 45 1 43 11
M  V30 46 1 44 12
M  V30 47 1 45 14
M  V30 48 1 46 14
M  V30 49 1 47 16
M  V30 50 1 48 17
M  V30 51 1 49 17
M  V30 52 1 50 18
M  V30 53 1 51 20
M  V30 54 1 52 21
M  V30 55 1 53 21
M  V30 56 1 54 22
M  V30 57 1 55 25
M  V30 58 1 56 25
M  V30 59 1 57 25
M  V30 60 1 58 5
M  V30 END BOND
M  V30 END CTAB
M  END
>  <i_epik_Tot_Q>  (1) 
1

>  <i_epik_Tot_abs_Q>  (1) 
1

>  <i_i_glide_confnum>  (1) 
851

>  <i_i_glide_lignum>  (1) 
53

>  <i_i_glide_posenum>  (1) 
232

>  <i_i_glide_rotatable_bonds>  (1) 
9

>  <i_lp_mmshare_version>  (1) 
72125

>  <i_m_source_file_index>  (1) 
18

>  <i_f3d_flags>  (1) 
0

>  <num_sample>  (1) 
50

>  <b_lp_Chiralities_Consistent>  (1) 
1

>  <r_epik_Charging_Adjusted_Penalty>  (1) 
0.0010304682105854765

>  <r_epik_Ionization_Penalty>  (1) 
0.0013061012703679969

>  <r_epik_Ionization_Penalty_Charging>  (1) 
0.0010304682105854765

>  <r_epik_Ionization_Penalty_Neutral>  (1) 
0.00027563305978252047

>  <r_epik_State_Penalty>  (1) 
-0

>  <r_glide_ring_energy>  (1) 
0

>  <r_i_docking_score>  (1) 
-5.890876579834722

>  <r_i_glide_ecoul>  (1) 
-4.1123286185579877

>  <r_i_glide_eff_state_penalty>  (1) 
-0

>  <r_i_glide_einternal>  (1) 
8.6435174016686318

>  <r_i_glide_emodel>  (1) 
-45.601034468876641

>  <r_i_glide_emodel_strain>  (1) 
0.062809824777019685

>  <r_i_glide_energy>  (1) 
-35.629262262566463

>  <r_i_glide_erotb>  (1) 
1.0818897874691362

>  <r_i_glide_esite>  (1) 
-0.10000000000000001

>  <r_i_glide_evdw>  (1) 
-31.516933644008475

>  <r_i_glide_gscore>  (1) 
-5.890876579834722

>  <r_i_glide_gscore_strain>  (1) 
0

>  <r_i_glide_hbond>  (1) 
-0.19959189875873906

>  <r_i_glide_ligand_efficiency>  (1) 
-0.22657217614748931

>  <r_i_glide_ligand_efficiency_ln>  (1) 
-1.3834530352315377

>  <r_i_glide_ligand_efficiency_sa>  (1) 
-0.67121918104743938

>  <r_i_glide_lipo>  (1) 
-2.3914524337176997

>  <r_i_glide_metal>  (1) 
-0

>  <r_i_glide_rewards>  (1) 
-2.0890260598432979

>  <r_lp_Energy>  (1) 
26.862019999999998

>  <r_lp_tautomer_probability>  (1) 
1

>  <s_epik_Chemistry_Notes>  (1) 
This compound contains an acetal/aminal-like group ( X-CH(R)-Y where X, Y are N, S, or O) that may be acid/base labile, releasing an aldehyde.

>  <s_epik_cmdline>  (1) 
J2VwaWtfcHl0aG9uJywgJy1waHQnLCAnMS4wJywgJy1waCcsICc3LjQnLCAnLXRuJywgJzgnLCAnLW1hJywgJzUwMCcsICctaW1hZScsICc8aW5maWxlLm1hZT4nLCAnLW9tYWUnLCAnPG91dGZpbGUubWFlPic=

>  <s_epik_input>  (1) 
W0NIMl0xW0NIMl1bQ0gyXVtDSDJdW0NIXTFbQ0BASF0oW0NIM10pW05IXVtDSDJdW0NIMl1jMltjSF1uYyhbY0hdW2NIXTIpW0NIMl1bTkhdQyg9TylbQ0BASF0oTzMpW0NIMl1TW0NAQEhdM1tDSDNd

>  <s_glide_docking_method>  (1) 
confgen

>  <s_i_glide_gridfile>  (1) 
gpcr_drd2_6luq_protein_autoprepared_prepared

>  <s_lp_Force_Field>  (1) 
S-OPLS

>  <s_lp_Variant>  (1) 
DiffSBDD_17_num_sample_50-1

>  <s_m_source_file>  (1) 
generated__ligand_DiffSBDD_2026-05-06_prepared.sdf

>  <GenAI_Model>  (1) 
DiffSBDD

>  <Protein>  (1) 
generic_title2

$$$$
DiffSBDD_3_num_sample_50
     RDKit          3D

  0  0  0  0  0  0  0  0  0  0999 V3000
M  V30 BEGIN CTAB
M  V30 COUNTS 57 60 0 0 1
M  V30 BEGIN ATOM
M  V30 1 C 7.442707 3.710044 -18.773441 0
M  V30 2 C 11.030172 9.018261 -5.890813 0
M  V30 3 C 5.434878 4.896163 -19.568925 0
M  V30 4 F 4.577398 6.648129 -18.268853 0
M  V30 5 C 8.150002 7.050085 -12.336724 0
M  V30 6 C 7.516176 5.656828 -12.570985 0 CFG=2
M  V30 7 C 12.210920 9.064445 -6.652486 0
M  V30 8 C 9.818106 8.145406 -7.815740 0
M  V30 9 C 8.291919 4.556970 -15.503170 0 CFG=1
M  V30 10 C 6.606077 5.650924 -13.828715 0
M  V30 11 C 10.995532 7.769320 -10.029079 0
M  V30 12 C 7.374862 5.763242 -15.167745 0 CFG=2
M  V30 13 C 5.718502 6.132638 -18.727870 0 CFG=1
M  V30 14 C 6.446532 6.115588 -16.320864 0
M  V30 15 O 5.434838 5.552472 -11.175425 0
M  V30 16 C 7.606607 3.182466 -15.367594 0
M  V30 17 C 5.740480 4.147056 -11.225595 0
M  V30 18 C 6.676017 5.773948 -17.605598 0
M  V30 19 C 11.002341 8.192222 -8.585940 0
M  V30 20 C 9.835056 8.556111 -6.473315 0
M  V30 21 N 9.799962 7.411582 -10.524365 0
M  V30 22 C 6.205940 3.785659 -19.585409 0
M  V30 23 C 12.200464 8.646447 -7.995164 0
M  V30 24 O 8.116259 2.684461 -18.691674 0
M  V30 25 O 12.031866 7.769298 -10.691419 0
M  V30 26 C 9.627629 6.996515 -11.908214 0
M  V30 27 C 8.928113 4.762375 -16.890556 0
M  V30 28 C 7.901096 4.983430 -18.031245 0 CFG=1
M  V30 29 C 6.815453 5.192693 -11.298934 0 CFG=1
M  V30 30 H 11.040055 9.336976 -4.859265 0
M  V30 31 H 4.540165 4.925711 -20.173920 0
M  V30 32 H 8.098035 7.656418 -13.238116 0
M  V30 33 H 7.552990 7.619325 -11.622401 0
M  V30 34 H 8.303025 4.925147 -12.745443 0
M  V30 35 H 13.128526 9.418711 -6.205174 0
M  V30 36 H 8.896273 7.796845 -8.251319 0
M  V30 37 H 9.120158 4.557758 -14.793744 0
M  V30 38 H 5.901442 6.479489 -13.738957 0
M  V30 39 H 5.985705 4.759437 -13.873248 0
M  V30 40 H 8.026674 6.627356 -15.091647 0
M  V30 41 H 6.168325 6.897378 -19.362185 0
M  V30 42 H 5.558021 6.675412 -16.068466 0
M  V30 43 H 6.678389 3.133386 -15.933677 0
M  V30 44 H 8.252228 2.380872 -15.726119 0
M  V30 45 H 7.370732 2.957066 -14.327887 0
M  V30 46 H 5.434817 3.632545 -12.130979 0
M  V30 47 H 5.579392 3.619004 -10.290333 0
M  V30 48 H 8.927036 8.519662 -5.891637 0
M  V30 49 H 8.976854 7.443016 -9.928710 0
M  V30 50 H 5.935099 2.932627 -20.190208 0
M  V30 51 H 13.111156 8.684371 -8.576362 0
M  V30 52 H 10.062318 6.005125 -12.042876 0
M  V30 53 H 10.198928 7.665935 -12.553287 0
M  V30 54 H 9.562974 5.648247 -16.840731 0
M  V30 55 H 9.615219 3.945557 -17.115958 0
M  V30 56 H 8.404776 5.581659 -18.790864 0
M  V30 57 H 7.391712 5.336198 -10.385678 0
M  V30 END ATOM
M  V30 BEGIN BOND
M  V30 1 1 6 5
M  V30 2 2 7 2
M  V30 3 1 10 6
M  V30 4 1 12 9
M  V30 5 1 12 10
M  V30 6 1 13 3
M  V30 7 1 13 4
M  V30 8 1 14 12
M  V30 9 1 16 9
M  V30 10 1 17 15
M  V30 11 1 18 13
M  V30 12 2 18 14
M  V30 13 1 19 8
M  V30 14 1 19 11
M  V30 15 1 20 2
M  V30 16 2 20 8
M  V30 17 1 21 11
M  V30 18 1 22 1
M  V30 19 2 22 3
M  V30 20 1 23 7
M  V30 21 2 23 19
M  V30 22 2 24 1
M  V30 23 2 25 11
M  V30 24 1 26 5
M  V30 25 1 26 21
M  V30 26 1 27 9
M  V30 27 1 28 1
M  V30 28 1 28 18
M  V30 29 1 28 27
M  V30 30 1 29 6
M  V30 31 1 29 15
M  V30 32 1 29 17
M  V30 33 1 30 2
M  V30 34 1 31 3
M  V30 35 1 32 5
M  V30 36 1 33 5
M  V30 37 1 6 34 CFG=3
M  V30 38 1 35 7
M  V30 39 1 36 8
M  V30 40 1 9 37 CFG=1
M  V30 41 1 38 10
M  V30 42 1 39 10
M  V30 43 1 12 40 CFG=1
M  V30 44 1 13 41 CFG=3
M  V30 45 1 42 14
M  V30 46 1 43 16
M  V30 47 1 44 16
M  V30 48 1 45 16
M  V30 49 1 46 17
M  V30 50 1 47 17
M  V30 51 1 48 20
M  V30 52 1 49 21
M  V30 53 1 50 22
M  V30 54 1 51 23
M  V30 55 1 52 26
M  V30 56 1 53 26
M  V30 57 1 54 27
M  V30 58 1 55 27
M  V30 59 1 28 56 CFG=3
M  V30 60 1 29 57 CFG=1
M  V30 END BOND
M  V30 END CTAB
M  END
>  <i_epik_Tot_Q>  (1) 
0

>  <i_epik_Tot_abs_Q>  (1) 
0

>  <i_i_glide_confnum>  (1) 
201

>  <i_i_glide_lignum>  (1) 
11

>  <i_i_glide_posenum>  (1) 
270

>  <i_i_glide_rotatable_bonds>  (1) 
8

>  <i_lp_mmshare_version>  (1) 
72125

>  <i_m_source_file_index>  (1) 
4

>  <i_f3d_flags>  (1) 
0

>  <num_sample>  (1) 
50

>  <b_lp_Chiralities_Consistent>  (1) 
1

>  <r_epik_Charging_Adjusted_Penalty>  (1) 
0

>  <r_epik_Ionization_Penalty>  (1) 
1.5409479738535797e-07

>  <r_epik_Ionization_Penalty_Charging>  (1) 
0

>  <r_epik_Ionization_Penalty_Neutral>  (1) 
1.5409479738535797e-07

>  <r_epik_State_Penalty>  (1) 
-0

>  <r_glide_ring_energy>  (1) 
0

>  <r_i_docking_score>  (1) 
-5.8837490626722078

>  <r_i_glide_ecoul>  (1) 
-3.441076589226792

>  <r_i_glide_eff_state_penalty>  (1) 
-0

>  <r_i_glide_einternal>  (1) 
12.733248579394726

>  <r_i_glide_emodel>  (1) 
-47.664934190739743

>  <r_i_glide_emodel_strain>  (1) 
1.1291521258321495

>  <r_i_glide_energy>  (1) 
-39.979061308357174

>  <r_i_glide_erotb>  (1) 
0.86725254217801073

>  <r_i_glide_esite>  (1) 
-0.088096606467575431

>  <r_i_glide_evdw>  (1) 
-36.537984719130385

>  <r_i_glide_gscore>  (1) 
-5.8837490626722078

>  <r_i_glide_gscore_strain>  (1) 
0

>  <r_i_glide_hbond>  (1) 
0

>  <r_i_glide_ligand_efficiency>  (1) 
-0.20288789871283475

>  <r_i_glide_ligand_efficiency_ln>  (1) 
-1.3472293363489483

>  <r_i_glide_ligand_efficiency_sa>  (1) 
-0.62333590494348823

>  <r_i_glide_lipo>  (1) 
-2.3373603221991517

>  <r_i_glide_metal>  (1) 
-0

>  <r_i_glide_rewards>  (1) 
-1.9824839518429527

>  <r_lp_Energy>  (1) 
36.521651999999996

>  <r_lp_tautomer_probability>  (1) 
1

>  <s_epik_cmdline>  (1) 
J2VwaWtfcHl0aG9uJywgJy1waHQnLCAnMS4wJywgJy1waCcsICc3LjQnLCAnLXRuJywgJzgnLCAnLW1hJywgJzUwMCcsICctaW1hZScsICc8aW5maWxlLm1hZT4nLCAnLW9tYWUnLCAnPG91dGZpbGUubWFlPic=

>  <s_epik_input>  (1) 
RltDQEBIXTFbQ0hdPVtDSF1DKD1PKVtDQEBIXShDMTIpW0NIMl1bQ0BIXShbQ0gzXSlbQ0BASF0oW0NIXT0yKVtDSDJdW0NAQEhdKFtDQEhdM09bQ0gyXTMpW0NIMl1bQ0gyXVtOSF1DKD1PKWM0W2NIXVtjSF1bY0hdW2NIXVtjSF00

>  <s_glide_docking_method>  (1) 
confgen

>  <s_i_glide_gridfile>  (1) 
gpcr_drd2_6luq_protein_autoprepared_prepared

>  <s_lp_Force_Field>  (1) 
S-OPLS

>  <s_lp_Variant>  (1) 
DiffSBDD_3_num_sample_50-2

>  <s_m_source_file>  (1) 
generated__ligand_DiffSBDD_2026-05-06_prepared.sdf

>  <GenAI_Model>  (1) 
DiffSBDD

>  <Protein>  (1) 
generic_title2

$$$$
DiffSBDD_23_num_sample_50
     RDKit          3D

  0  0  0  0  0  0  0  0  0  0999 V3000
M  V30 BEGIN CTAB
M  V30 COUNTS 68 70 0 0 1
M  V30 BEGIN ATOM
M  V30 1 C 9.483896 5.489171 -8.758644 0
M  V30 2 C 10.160440 8.323519 -9.088902 0
M  V30 3 C 12.230823 9.343092 -2.635769 0
M  V30 4 C 11.834829 7.472985 -4.146787 0
M  V30 5 C 9.339229 6.469932 -7.593050 0
M  V30 6 C 12.229653 6.578287 -3.138029 0
M  V30 7 C 8.658903 5.920706 -12.468379 0 CFG=1
M  V30 8 O 9.883118 5.369417 -16.605091 0 CHG=-1
M  V30 9 C 10.324866 7.639984 -7.723240 0 CFG=2
M  V30 10 O 11.443301 9.775878 -4.861300 0
M  V30 11 C 9.109897 4.387446 -16.649428 0
M  V30 12 C 10.295130 7.315911 -10.230608 0
M  V30 13 C 7.676188 4.583609 -16.073775 0
M  V30 14 N 9.332959 6.190786 -10.058444 0 CFG=1 CHG=1
M  V30 15 O 9.388275 3.262510 -17.122708 0
M  V30 16 C 7.343129 6.597973 -12.081682 0
M  V30 17 C 9.262712 5.259564 -11.217979 0
M  V30 18 C 6.321252 6.038875 -14.316195 0
M  V30 19 C 7.093729 3.196862 -15.698695 0
M  V30 20 C 12.634989 8.445315 -1.642487 0
M  V30 21 C 10.137297 8.649621 -6.585682 0
M  V30 22 C 11.439521 9.380164 -6.222786 0
M  V30 23 C 6.865879 5.230541 -17.223922 0
M  V30 24 C 8.463010 4.907577 -13.607167 0
M  V30 25 C 5.238048 7.707387 -12.652619 0
M  V30 26 C 7.701509 5.520941 -14.811392 0 CFG=1
M  V30 27 C 6.525617 7.122037 -13.243747 0 CFG=1
M  V30 28 C 11.834860 8.871075 -3.895147 0
M  V30 29 C 12.634662 7.063304 -1.891752 0
M  V30 30 H 10.447380 4.988902 -8.691655 0
M  V30 31 H 8.720984 4.714829 -8.665024 0
M  V30 32 H 9.183327 8.807218 -9.149510 0
M  V30 33 H 10.905231 9.111791 -9.208587 0
M  V30 34 H 12.226682 10.398129 -2.426471 0
M  V30 35 H 11.532973 7.086127 -5.105092 0
M  V30 36 H 9.503315 5.940728 -6.653610 0
M  V30 37 H 8.319163 6.842119 -7.553846 0
M  V30 38 H 12.229618 5.516514 -3.328351 0
M  V30 39 H 9.340217 6.681656 -12.845959 0
M  V30 40 H 11.326938 7.210479 -7.663182 0
M  V30 41 H 11.325399 6.969298 -10.279263 0
M  V30 42 H 10.105876 7.843653 -11.164059 0
M  V30 43 H 6.736575 5.926916 -11.469542 0
M  V30 44 H 7.574476 7.478432 -11.491681 0
M  V30 45 H 10.234832 4.843077 -11.460359 0
M  V30 46 H 8.635776 4.409453 -10.943355 0
M  V30 47 H 5.751792 6.486464 -15.128434 0
M  V30 48 H 5.714610 5.223072 -13.921710 0
M  V30 49 H 6.234942 3.292230 -15.044438 0
M  V30 50 H 6.794130 2.624389 -16.577922 0
M  V30 51 H 7.817367 2.587062 -15.155589 0
M  V30 52 H 12.948815 8.818352 -0.691654 0
M  V30 53 H 9.739184 8.137997 -5.711729 0
M  V30 54 H 9.370473 9.369276 -6.856427 0
M  V30 55 H 11.540663 10.280008 -6.824688 0
M  V30 56 H 12.326004 8.790715 -6.446535 0
M  V30 57 H 5.813927 5.369279 -16.983231 0
M  V30 58 H 7.265655 6.211590 -17.482613 0
M  V30 59 H 6.903354 4.619898 -18.127230 0
M  V30 60 H 9.442902 4.544161 -13.916779 0
M  V30 61 H 7.921066 4.040247 -13.230085 0
M  V30 62 H 4.646951 6.943035 -12.152083 0
M  V30 63 H 5.449118 8.463473 -11.891688 0
M  V30 64 H 4.634866 8.169311 -13.428311 0
M  V30 65 H 8.234873 6.423661 -15.102694 0
M  V30 66 H 7.089770 7.929731 -13.710127 0
M  V30 67 H 12.950423 6.373067 -1.121700 0
M  V30 68 H 8.419398 6.636813 -9.996722 0
M  V30 END ATOM
M  V30 BEGIN BOND
M  V30 1 1 5 1
M  V30 2 1 6 4
M  V30 3 1 9 2
M  V30 4 1 9 5
M  V30 5 1 11 8
M  V30 6 1 12 2
M  V30 7 1 13 11
M  V30 8 1 14 1
M  V30 9 1 14 12
M  V30 10 2 15 11
M  V30 11 1 16 7
M  V30 12 1 17 7
M  V30 13 1 17 14
M  V30 14 1 19 13
M  V30 15 2 20 3
M  V30 16 1 21 9
M  V30 17 1 22 10
M  V30 18 1 22 21
M  V30 19 1 23 13
M  V30 20 1 24 7
M  V30 21 1 26 13
M  V30 22 1 26 18
M  V30 23 1 26 24
M  V30 24 1 27 16
M  V30 25 1 27 18
M  V30 26 1 27 25
M  V30 27 1 28 3
M  V30 28 2 28 4
M  V30 29 1 28 10
M  V30 30 2 29 6
M  V30 31 1 29 20
M  V30 32 1 30 1
M  V30 33 1 31 1
M  V30 34 1 32 2
M  V30 35 1 33 2
M  V30 36 1 34 3
M  V30 37 1 35 4
M  V30 38 1 36 5
M  V30 39 1 37 5
M  V30 40 1 38 6
M  V30 41 1 7 39 CFG=3
M  V30 42 1 9 40 CFG=3
M  V30 43 1 41 12
M  V30 44 1 42 12
M  V30 45 1 43 16
M  V30 46 1 44 16
M  V30 47 1 45 17
M  V30 48 1 46 17
M  V30 49 1 47 18
M  V30 50 1 48 18
M  V30 51 1 49 19
M  V30 52 1 50 19
M  V30 53 1 51 19
M  V30 54 1 52 20
M  V30 55 1 53 21
M  V30 56 1 54 21
M  V30 57 1 55 22
M  V30 58 1 56 22
M  V30 59 1 57 23
M  V30 60 1 58 23
M  V30 61 1 59 23
M  V30 62 1 60 24
M  V30 63 1 61 24
M  V30 64 1 62 25
M  V30 65 1 63 25
M  V30 66 1 64 25
M  V30 67 1 26 65 CFG=3
M  V30 68 1 27 66 CFG=3
M  V30 69 1 67 29
M  V30 70 1 14 68 CFG=1
M  V30 END BOND
M  V30 END CTAB
M  END
>  <i_epik_Tot_Q>  (1) 
0

>  <i_epik_Tot_abs_Q>  (1) 
2

>  <i_i_glide_confnum>  (1) 
16

>  <i_i_glide_lignum>  (1) 
62

>  <i_i_glide_posenum>  (1) 
146

>  <i_i_glide_rotatable_bonds>  (1) 
8

>  <i_lp_mmshare_version>  (1) 
72125

>  <i_m_source_file_index>  (1) 
24

>  <i_f3d_flags>  (1) 
0

>  <num_sample>  (1) 
50

>  <b_lp_Chiralities_Consistent>  (1) 
1

>  <r_epik_Charging_Adjusted_Penalty>  (1) 
0.003094722008017318

>  <r_epik_Ionization_Penalty>  (1) 
0.003094722008017318

>  <r_epik_Ionization_Penalty_Charging>  (1) 
0.003094722008017318

>  <r_epik_Ionization_Penalty_Neutral>  (1) 
0

>  <r_epik_State_Penalty>  (1) 
-0

>  <r_glide_ring_energy>  (1) 
0

>  <r_i_docking_score>  (1) 
-5.8818043357133192

>  <r_i_glide_ecoul>  (1) 
-3.5184840337298384

>  <r_i_glide_eff_state_penalty>  (1) 
-0

>  <r_i_glide_einternal>  (1) 
11.342371131542926

>  <r_i_glide_emodel>  (1) 
-36.101612231854439

>  <r_i_glide_emodel_strain>  (1) 
0.81916780703715375

>  <r_i_glide_energy>  (1) 
-30.417188655587641

>  <r_i_glide_erotb>  (1) 
0.72975461734148295

>  <r_i_glide_esite>  (1) 
-0.08312086113732442

>  <r_i_glide_evdw>  (1) 
-26.898704621857803

>  <r_i_glide_gscore>  (1) 
-5.8818043357133192

>  <r_i_glide_gscore_strain>  (1) 
0

>  <r_i_glide_hbond>  (1) 
-0.20000000000000001

>  <r_i_glide_ligand_efficiency>  (1) 
-0.20282083916252824

>  <r_i_glide_ligand_efficiency_ln>  (1) 
-1.3467840431893836

>  <r_i_glide_ligand_efficiency_sa>  (1) 
-0.62312987675875864

>  <r_i_glide_lipo>  (1) 
-2.8093464717715237

>  <r_i_glide_metal>  (1) 
-0

>  <r_i_glide_rewards>  (1) 
-1.6463837839935871

>  <r_lp_Energy>  (1) 
52.616563999999997

>  <r_lp_tautomer_probability>  (1) 
1

>  <s_epik_cmdline>  (1) 
J2VwaWtfcHl0aG9uJywgJy1waHQnLCAnMS4wJywgJy1waCcsICc3LjQnLCAnLXRuJywgJzgnLCAnLW1hJywgJzUwMCcsICctaW1hZScsICc8aW5maWxlLm1hZT4nLCAnLW9tYWUnLCAnPG91dGZpbGUubWFlPic=

>  <s_epik_input>  (1) 
W09IXUMoPU8pQyhbQ0gzXSkoW0NIM10pW0NASF0oW0NIMl0xKVtDSDJdW0NAQEhdKFtDSDNdKVtDSDJdW0NASF0xW0NIMl1OKFtDSDJdW0NIMl0yKVtDSDJdW0NIMl1bQ0hdMltDSDJdW0NIMl1PYzNbY0hdW2NIXVtjSF1bY0hdW2NIXTM=

>  <s_glide_docking_method>  (1) 
confgen

>  <s_i_glide_gridfile>  (1) 
gpcr_drd2_6luq_protein_autoprepared_prepared

>  <s_lp_Force_Field>  (1) 
S-OPLS

>  <s_lp_Variant>  (1) 
DiffSBDD_23_num_sample_50-1

>  <s_m_source_file>  (1) 
generated__ligand_DiffSBDD_2026-05-06_prepared.sdf

>  <GenAI_Model>  (1) 
DiffSBDD

>  <Protein>  (1) 
generic_title2

$$$$
DiffSBDD_13_num_sample_50
     RDKit          3D

  0  0  0  0  0  0  0  0  0  0999 V3000
M  V30 BEGIN CTAB
M  V30 COUNTS 46 50 0 0 1
M  V30 BEGIN ATOM
M  V30 1 C 7.143270 4.341127 -14.195363 0
M  V30 2 N 7.854764 5.769300 -10.978523 0 CFG=1 CHG=1
M  V30 3 C 4.835468 7.941592 -21.622138 0
M  V30 4 C 5.360431 7.321716 -19.287545 0
M  V30 5 C 6.164273 6.476834 -13.522153 0
M  V30 6 C 5.997363 6.140454 -19.819075 0
M  V30 7 C 6.962167 4.689231 -15.545535 0
M  V30 8 C 9.937016 7.939790 -10.066094 0
M  V30 9 C 4.784584 8.208941 -20.238430 0
M  V30 10 C 10.234843 6.927873 -8.947367 0
M  V30 11 O 5.765250 5.075684 -11.084880 0 CHG=-1
M  V30 12 C 8.966272 5.155050 -10.238126 0 CFG=1
M  V30 13 O 5.502708 6.534366 -23.440508 0
M  V30 14 C 5.967773 6.813042 -14.873927 0
M  V30 15 S 6.638125 5.185816 -18.540737 0
M  V30 16 C 9.207644 5.915193 -11.510534 0 CFG=2
M  V30 17 C 6.903970 4.866622 -11.686768 0 CFG=1
M  V30 18 C 5.434841 7.369279 -17.812540 0
M  V30 19 C 6.739640 5.237376 -13.171103 0
M  V30 20 C 5.461181 6.782748 -22.099794 0
M  V30 21 C 6.098167 6.261022 -17.313756 0
M  V30 22 C 9.795937 7.319778 -11.475494 0
M  V30 23 C 6.353542 5.920694 -15.901379 0
M  V30 24 C 9.190997 5.796905 -8.881559 0
M  V30 25 Cl 7.834839 2.803953 -13.806424 0
M  V30 26 C 6.042513 5.882495 -21.199635 0
M  V30 27 H 4.387756 8.635281 -22.319215 0
M  V30 28 H 5.853294 7.163818 -12.747792 0
M  V30 29 H 7.262883 3.992275 -16.311176 0
M  V30 30 H 10.725548 8.692087 -10.084202 0
M  V30 31 H 9.034839 8.488067 -9.813321 0
M  V30 32 H 4.295559 9.106859 -19.892023 0
M  V30 33 H 11.232824 6.520516 -9.091666 0
M  V30 34 H 10.264359 7.444878 -7.987662 0
M  V30 35 H 8.989813 4.071289 -10.291638 0
M  V30 36 H 5.971271 5.748540 -23.676395 0
M  V30 37 H 5.507108 7.756212 -15.123341 0
M  V30 38 H 9.343031 5.351421 -12.431553 0
M  V30 39 H 7.325701 3.872350 -11.619397 0
M  V30 40 H 5.015406 8.164570 -17.215643 0
M  V30 41 H 9.213570 7.973998 -12.125560 0
M  V30 42 H 10.788770 7.255683 -11.921347 0
M  V30 43 H 8.242125 6.169303 -8.490748 0
M  V30 44 H 9.526292 5.029908 -8.182942 0
M  V30 45 H 6.526417 4.988258 -21.563421 0
M  V30 46 H 7.458439 6.591838 -10.517486 0
M  V30 END ATOM
M  V30 BEGIN BOND
M  V30 1 2 6 4
M  V30 2 1 7 1
M  V30 3 2 9 3
M  V30 4 1 9 4
M  V30 5 1 10 8
M  V30 6 1 12 2
M  V30 7 2 14 5
M  V30 8 1 15 6
M  V30 9 1 16 2
M  V30 10 1 16 12
M  V30 11 1 17 2
M  V30 12 1 17 11
M  V30 13 1 18 4
M  V30 14 2 19 1
M  V30 15 1 19 5
M  V30 16 1 19 17
M  V30 17 1 20 3
M  V30 18 1 20 13
M  V30 19 1 21 15
M  V30 20 2 21 18
M  V30 21 1 22 8
M  V30 22 1 22 16
M  V30 23 2 23 7
M  V30 24 1 23 14
M  V30 25 1 23 21
M  V30 26 1 24 10
M  V30 27 1 24 12
M  V30 28 1 25 1
M  V30 29 1 26 6
M  V30 30 2 26 20
M  V30 31 1 27 3
M  V30 32 1 28 5
M  V30 33 1 29 7
M  V30 34 1 30 8
M  V30 35 1 31 8
M  V30 36 1 32 9
M  V30 37 1 33 10
M  V30 38 1 34 10
M  V30 39 1 12 35 CFG=3
M  V30 40 1 36 13
M  V30 41 1 37 14
M  V30 42 1 16 38 CFG=3
M  V30 43 1 17 39 CFG=3
M  V30 44 1 40 18
M  V30 45 1 41 22
M  V30 46 1 42 22
M  V30 47 1 43 24
M  V30 48 1 44 24
M  V30 49 1 45 26
M  V30 50 1 2 46 CFG=1
M  V30 END BOND
M  V30 END CTAB
M  END
>  <i_epik_Tot_Q>  (1) 
0

>  <i_epik_Tot_abs_Q>  (1) 
2

>  <i_i_glide_confnum>  (1) 
11

>  <i_i_glide_lignum>  (1) 
48

>  <i_i_glide_posenum>  (1) 
258

>  <i_i_glide_rotatable_bonds>  (1) 
4

>  <i_lp_mmshare_version>  (1) 
72125

>  <i_m_source_file_index>  (1) 
14

>  <i_f3d_flags>  (1) 
0

>  <num_sample>  (1) 
50

>  <b_lp_Chiralities_Consistent>  (1) 
1

>  <r_epik_Charging_Adjusted_Penalty>  (1) 
0.011735890959206876

>  <r_epik_Ionization_Penalty>  (1) 
0.011735890959206876

>  <r_epik_Ionization_Penalty_Charging>  (1) 
0.0019353161310539371

>  <r_epik_Ionization_Penalty_Neutral>  (1) 
0.009800574828152938

>  <r_epik_State_Penalty>  (1) 
0.0098005748281529397

>  <r_glide_ring_energy>  (1) 
0

>  <r_i_docking_score>  (1) 
-5.8674856770146882

>  <r_i_glide_ecoul>  (1) 
-4.0002309134819267

>  <r_i_glide_eff_state_penalty>  (1) 
0.0098005748281529397

>  <r_i_glide_einternal>  (1) 
7.896813772210721

>  <r_i_glide_emodel>  (1) 
-47.29329661573437

>  <r_i_glide_emodel_strain>  (1) 
0.48274604493803253

>  <r_i_glide_energy>  (1) 
-37.817646966262053

>  <r_i_glide_erotb>  (1) 
0.39195233306171845

>  <r_i_glide_esite>  (1) 
-0.11468504414749077

>  <r_i_glide_evdw>  (1) 
-33.817416052780125

>  <r_i_glide_gscore>  (1) 
-5.8772862518428415

>  <r_i_glide_gscore_strain>  (1) 
0

>  <r_i_glide_hbond>  (1) 
-0.20000000000000001

>  <r_i_glide_ligand_efficiency>  (1) 
-0.22567252603902646

>  <r_i_glide_ligand_efficiency_ln>  (1) 
-1.3779597584560652

>  <r_i_glide_ligand_efficiency_sa>  (1) 
-0.66855397113817594

>  <r_i_glide_lipo>  (1) 
-2.1063845275995208

>  <r_i_glide_metal>  (1) 
-0

>  <r_i_glide_rewards>  (1) 
-1.557263573496253

>  <r_lp_Energy>  (1) 
53.532539999999997

>  <s_epik_Chemistry_Notes>  (1) 
This compound contains an acetal/aminal-like group ( X-CH(R)-Y where X, Y are N, S, or O) that may be acid/base labile, releasing an aldehyde.

>  <s_epik_cmdline>  (1) 
J2VwaWtfcHl0aG9uJywgJy1waHQnLCAnMS4wJywgJy1waCcsICc3LjQnLCAnLXRuJywgJzgnLCAnLW1hJywgJzUwMCcsICctaW1hZScsICc8aW5maWxlLm1hZT4nLCAnLW9tYWUnLCAnPG91dGZpbGUubWFlPic=

>  <s_epik_input>  (1) 
W2NIXTFbY0hdYyhbT0hdKVtjSF1jKGMxMilzYyhbY0hdMiktYyhbY0hdYzNDbClbY0hdW2NIXWMzW0NASF0oW09IXSlONFtDQEhdKFtDQEhdNDUpW0NIMl1bQ0gyXVtDSDJdW0NIMl01

>  <s_glide_docking_method>  (1) 
confgen

>  <s_i_glide_gridfile>  (1) 
gpcr_drd2_6luq_protein_autoprepared_prepared

>  <s_lp_Force_Field>  (1) 
S-OPLS

>  <s_lp_Variant>  (1) 
DiffSBDD_13_num_sample_50-1

>  <s_m_source_file>  (1) 
generated__ligand_DiffSBDD_2026-05-06_prepared.sdf

>  <GenAI_Model>  (1) 
DiffSBDD

>  <Protein>  (1) 
generic_title2

$$$$
DiffSBDD_38_num_sample_50
     RDKit          3D

  0  0  0  0  0  0  0  0  0  0999 V3000
M  V30 BEGIN CTAB
M  V30 COUNTS 60 62 0 0 1
M  V30 BEGIN ATOM
M  V30 1 C 5.547573 0.512461 -18.479839 0
M  V30 2 O 5.096476 -1.332996 -17.008537 0
M  V30 3 S 7.434908 0.969206 -13.498061 0
M  V30 4 F 11.034939 5.971453 -7.432000 0
M  V30 5 C 9.171014 5.312602 -9.294760 0 CFG=1
M  V30 6 C 6.576600 1.039280 -20.730156 0
M  V30 7 C 9.835386 7.385212 -10.504967 0
M  V30 8 C 8.332385 3.948119 -13.338635 0
M  V30 9 C 6.874764 0.762921 -19.246936 0 CFG=1
M  V30 10 C 7.434694 2.081586 -14.762796 0
M  V30 11 N 6.596802 0.181851 -16.280678 0
M  V30 12 C 8.418571 5.748579 -11.597455 0
M  V30 13 C 7.504531 4.410488 -15.666419 0
M  V30 14 C 5.724177 -0.293959 -17.181179 0
M  V30 15 F 12.000609 7.407011 -8.686628 0
M  V30 16 O 9.411804 1.712369 -16.969750 0
M  V30 17 C 7.561313 5.157204 -12.737172 0 CFG=2
M  V30 18 O 8.512574 4.920740 -10.489671 0
M  V30 19 C 6.217202 4.678890 -12.138978 0
M  V30 20 O 11.167195 8.843535 -6.660080 0
M  V30 21 C 9.045712 6.945500 -11.617674 0
M  V30 22 N 9.035132 8.344921 -7.148994 0
M  V30 23 C 7.291472 6.184425 -13.873890 0
M  V30 24 C 8.210938 1.722778 -17.224399 0
M  V30 25 C 10.345649 8.160117 -7.269426 0
M  V30 26 C 7.748426 1.911575 -18.674007 0
M  V30 27 C 9.922530 6.641999 -9.399849 0
M  V30 28 C 7.074069 1.568225 -16.194650 0 CFG=2
M  V30 29 N 7.718643 3.429886 -14.590556 0
M  V30 30 C 6.652581 5.571118 -15.130341 0
M  V30 31 N 8.234925 5.357865 -8.216747 0
M  V30 32 C 10.811831 7.033536 -8.208426 0
M  V30 33 H 5.034879 1.454127 -18.291889 0
M  V30 34 H 4.869206 -0.064067 -19.111627 0
M  V30 35 H 9.905106 4.533453 -9.091249 0
M  V30 36 H 5.968896 1.936629 -20.853617 0
M  V30 37 H 7.496140 1.180698 -21.298814 0
M  V30 38 H 6.036021 0.209473 -21.188182 0
M  V30 39 H 10.379328 8.315864 -10.569553 0
M  V30 40 H 9.334634 4.282886 -13.610548 0
M  V30 41 H 8.503898 3.215247 -12.552798 0
M  V30 42 H 7.466204 -0.154475 -19.211170 0
M  V30 43 H 6.768285 -0.393856 -15.465720 0
M  V30 44 H 8.480830 4.788230 -15.973195 0
M  V30 45 H 7.034775 4.042229 -16.571521 0
M  V30 46 H 5.567778 4.221886 -12.884584 0
M  V30 47 H 6.367814 3.930383 -11.360335 0
M  V30 48 H 5.670682 5.508390 -11.688442 0
M  V30 49 H 8.968421 7.578566 -12.485336 0
M  V30 50 H 8.684435 9.065357 -6.539393 0
M  V30 51 H 8.387308 7.769161 -7.678612 0
M  V30 52 H 6.683727 7.012738 -13.507319 0
M  V30 53 H 8.233102 6.612091 -14.210402 0
M  V30 54 H 7.200235 2.852227 -18.732090 0
M  V30 55 H 6.235701 2.169488 -16.515259 0
M  V30 56 H 6.556043 6.338627 -15.899104 0
M  V30 57 H 5.639989 5.231611 -14.916374 0
M  V30 58 H 8.668836 5.600364 -7.338263 0
M  V30 59 H 7.505501 6.046009 -8.395555 0
M  V30 60 H 8.636079 2.036406 -19.295092 0
M  V30 END ATOM
M  V30 BEGIN BOND
M  V30 1 1 9 1
M  V30 2 1 9 6
M  V30 3 2 10 3
M  V30 4 1 14 1
M  V30 5 2 14 2
M  V30 6 1 14 11
M  V30 7 1 17 8
M  V30 8 1 17 12
M  V30 9 1 18 5
M  V30 10 1 18 12
M  V30 11 1 17 19 CFG=1
M  V30 12 1 21 7
M  V30 13 2 21 12
M  V30 14 1 23 17
M  V30 15 2 24 16
M  V30 16 2 25 20
M  V30 17 1 25 22
M  V30 18 1 26 9
M  V30 19 1 26 24
M  V30 20 1 27 5
M  V30 21 2 27 7
M  V30 22 1 28 10
M  V30 23 1 28 11
M  V30 24 1 28 24
M  V30 25 1 29 8
M  V30 26 1 29 10
M  V30 27 1 29 13
M  V30 28 1 30 13
M  V30 29 1 30 23
M  V30 30 1 31 5
M  V30 31 1 32 4
M  V30 32 1 32 15
M  V30 33 1 32 25
M  V30 34 1 32 27
M  V30 35 1 33 1
M  V30 36 1 34 1
M  V30 37 1 5 35 CFG=1
M  V30 38 1 36 6
M  V30 39 1 37 6
M  V30 40 1 38 6
M  V30 41 1 39 7
M  V30 42 1 40 8
M  V30 43 1 41 8
M  V30 44 1 9 42 CFG=3
M  V30 45 1 43 11
M  V30 46 1 44 13
M  V30 47 1 45 13
M  V30 48 1 46 19
M  V30 49 1 47 19
M  V30 50 1 48 19
M  V30 51 1 49 21
M  V30 52 1 50 22
M  V30 53 1 51 22
M  V30 54 1 52 23
M  V30 55 1 53 23
M  V30 56 1 54 26
M  V30 57 1 28 55 CFG=3
M  V30 58 1 56 30
M  V30 59 1 57 30
M  V30 60 1 58 31
M  V30 61 1 59 31
M  V30 62 1 60 26
M  V30 END BOND
M  V30 END CTAB
M  END
>  <i_epik_Tot_Q>  (1) 
0

>  <i_epik_Tot_abs_Q>  (1) 
0

>  <i_i_glide_confnum>  (1) 
50

>  <i_i_glide_lignum>  (1) 
93

>  <i_i_glide_posenum>  (1) 
112

>  <i_i_glide_rotatable_bonds>  (1) 
5

>  <i_lp_mmshare_version>  (1) 
72125

>  <i_m_source_file_index>  (1) 
39

>  <i_f3d_flags>  (1) 
0

>  <num_sample>  (1) 
50

>  <b_lp_Chiralities_Consistent>  (1) 
1

>  <r_epik_Charging_Adjusted_Penalty>  (1) 
0.0043173356697657605

>  <r_epik_Ionization_Penalty>  (1) 
2.5101429145755949

>  <r_epik_Ionization_Penalty_Charging>  (1) 
0

>  <r_epik_Ionization_Penalty_Neutral>  (1) 
2.5101429145755949

>  <r_epik_State_Penalty>  (1) 
0.0043173356697657605

>  <r_glide_ring_energy>  (1) 
0.024453031346160229

>  <r_i_docking_score>  (1) 
-5.8655698098015359

>  <r_i_glide_ecoul>  (1) 
-2.4896723324114474

>  <r_i_glide_eff_state_penalty>  (1) 
0.0043173356697657605

>  <r_i_glide_einternal>  (1) 
1.8992516305484877

>  <r_i_glide_emodel>  (1) 
-65.707356533129868

>  <r_i_glide_emodel_strain>  (1) 
0.061715643947479748

>  <r_i_glide_energy>  (1) 
-49.979726286177879

>  <r_i_glide_erotb>  (1) 
0.36503894659470715

>  <r_i_glide_esite>  (1) 
-0.092521875341643578

>  <r_i_glide_evdw>  (1) 
-47.490053953766434

>  <r_i_glide_gscore>  (1) 
-5.869887145471302

>  <r_i_glide_gscore_strain>  (1) 
0

>  <r_i_glide_hbond>  (1) 
-0.35657130769830192

>  <r_i_glide_ligand_efficiency>  (1) 
-0.183299056556298

>  <r_i_glide_ligand_efficiency_ln>  (1) 
-1.3134609698088513

>  <r_i_glide_ligand_efficiency_sa>  (1) 
-0.581938230404492

>  <r_i_glide_lipo>  (1) 
-0.84481721375501218

>  <r_i_glide_metal>  (1) 
-0

>  <r_i_glide_rewards>  (1) 
-2.1930621477210117

>  <r_lp_Energy>  (1) 
65.752579999999995

>  <r_lp_tautomer_probability>  (1) 
0.99999998000000001

>  <s_epik_Chemistry_Notes>  (1) 
This compound contains an acetal/aminal-like group ( X-CH(R)-Y where X, Y are N, S, or O) that may be acid/base labile, releasing an aldehyde.

>  <s_epik_cmdline>  (1) 
J2VwaWtfcHl0aG9uJywgJy1waHQnLCAnMS4wJywgJy1waCcsICc3LjQnLCAnLXRuJywgJzgnLCAnLW1hJywgJzUwMCcsICctaW1hZScsICc8aW5maWxlLm1hZT4nLCAnLW9tYWUnLCAnPG91dGZpbGUubWFlPic=

>  <s_epik_input>  (1) 
W0NIM11bQ0BASF0xW0NIMl1DKD1PKVtOSF1bQ0BIXShDKD1PKVtDSDJdMSlDKD1TKU4oW0NIMl1bQ0gyXVtDSDJdMilbQ0gyXVtDQEBdMihbQ0gzXSlDKE9bQ0BASF0zW05IMl0pPVtDSF1bQ0hdPUMzQyhGKShGKUMoPU8pW05IMl0=

>  <s_glide_docking_method>  (1) 
confgen

>  <s_i_glide_gridfile>  (1) 
gpcr_drd2_6luq_protein_autoprepared_prepared

>  <s_lp_Force_Field>  (1) 
S-OPLS

>  <s_lp_Variant>  (1) 
DiffSBDD_38_num_sample_50-1

>  <s_m_source_file>  (1) 
generated__ligand_DiffSBDD_2026-05-06_prepared.sdf

>  <GenAI_Model>  (1) 
DiffSBDD

>  <Protein>  (1) 
generic_title2

$$$$
DiffSBDD_38_num_sample_50
     RDKit          3D

  0  0  0  0  0  0  0  0  0  0999 V3000
M  V30 BEGIN CTAB
M  V30 COUNTS 60 62 0 0 1
M  V30 BEGIN ATOM
M  V30 1 C 6.071770 0.541479 -16.658410 0
M  V30 2 O 6.399206 0.264710 -14.290232 0
M  V30 3 S 9.754453 4.969280 -16.542010 0
M  V30 4 F 11.467146 6.551387 -6.878340 0
M  V30 5 C 9.699283 5.587142 -8.730104 0 CFG=1
M  V30 6 C 7.965184 -1.030807 -17.450865 0
M  V30 7 C 10.407040 7.508399 -10.146535 0
M  V30 8 C 8.652387 5.481888 -13.661056 0
M  V30 9 C 7.042066 0.148124 -17.813977 0 CFG=2
M  V30 10 C 8.484011 4.169323 -15.782297 0
M  V30 11 N 7.667792 1.829720 -15.295176 0
M  V30 12 C 9.196302 5.655677 -11.132496 0
M  V30 13 C 6.464336 4.501045 -14.369091 0
M  V30 14 C 6.728683 0.872553 -15.303280 0
M  V30 15 F 12.258699 8.091991 -8.130370 0
M  V30 16 O 9.929103 1.926231 -17.491533 0
M  V30 17 C 8.516918 4.852477 -12.247639 0 CFG=2
M  V30 18 O 9.202748 4.999377 -9.913414 0
M  V30 19 C 9.187843 3.461753 -12.281654 0
M  V30 20 O 10.979180 9.359919 -6.176817 0
M  V30 21 C 9.769799 6.870054 -11.264788 0
M  V30 22 N 9.035132 8.569234 -6.981518 0
M  V30 23 C 7.014471 4.713916 -11.892490 0
M  V30 24 C 8.708722 2.078801 -17.443746 0
M  V30 25 C 10.364031 8.569353 -6.891702 0
M  V30 26 C 7.828347 1.328045 -18.441393 0
M  V30 27 C 10.399515 6.927585 -8.941665 0
M  V30 28 C 7.907820 2.825041 -16.340601 0 CFG=2
M  V30 29 N 7.898068 4.661824 -14.629657 0
M  V30 30 C 6.211937 3.948191 -12.957986 0
M  V30 31 N 8.634837 5.731130 -7.797001 0
M  V30 32 C 11.120052 7.523867 -7.724984 0
M  V30 33 H 5.434839 1.368777 -16.968412 0
M  V30 34 H 5.388043 -0.290945 -16.486090 0
M  V30 35 H 10.434816 4.892368 -8.323535 0
M  V30 36 H 8.682489 -0.772110 -16.670896 0
M  V30 37 H 7.384636 -1.880513 -17.092434 0
M  V30 38 H 8.531796 -1.368040 -18.318829 0
M  V30 39 H 10.913483 8.451607 -10.285462 0
M  V30 40 H 8.235185 6.490037 -13.673924 0
M  V30 41 H 9.715264 5.571267 -13.886401 0
M  V30 42 H 6.398119 -0.219893 -18.613590 0
M  V30 43 H 8.133000 1.987387 -14.413438 0
M  V30 44 H 6.007072 5.487754 -14.450509 0
M  V30 45 H 5.954025 3.881576 -15.091666 0
M  V30 46 H 8.726799 2.770500 -12.980958 0
M  V30 47 H 10.234820 3.551867 -12.566996 0
M  V30 48 H 9.167621 2.969386 -11.311946 0
M  V30 49 H 9.767077 7.363476 -12.224353 0
M  V30 50 H 8.493481 9.230199 -6.449287 0
M  V30 51 H 8.567522 7.890692 -7.574889 0
M  V30 52 H 6.892497 4.222962 -10.925702 0
M  V30 53 H 6.583695 5.709737 -11.775090 0
M  V30 54 H 7.133233 2.041941 -18.882991 0
M  V30 55 H 6.958871 3.103175 -16.793810 0
M  V30 56 H 5.147721 4.006153 -12.726811 0
M  V30 57 H 6.462721 2.888805 -12.920389 0
M  V30 58 H 7.874569 6.281638 -8.194769 0
M  V30 59 H 8.216891 4.835761 -7.593174 0
M  V30 60 H 8.453359 0.966090 -19.258134 0
M  V30 END ATOM
M  V30 BEGIN BOND
M  V30 1 1 9 1
M  V30 2 1 9 6
M  V30 3 2 10 3
M  V30 4 1 14 1
M  V30 5 2 14 2
M  V30 6 1 14 11
M  V30 7 1 17 8
M  V30 8 1 17 12
M  V30 9 1 18 5
M  V30 10 1 18 12
M  V30 11 1 17 19 CFG=3
M  V30 12 1 21 7
M  V30 13 2 21 12
M  V30 14 1 23 17
M  V30 15 2 24 16
M  V30 16 2 25 20
M  V30 17 1 25 22
M  V30 18 1 26 9
M  V30 19 1 26 24
M  V30 20 1 27 5
M  V30 21 2 27 7
M  V30 22 1 28 10
M  V30 23 1 28 11
M  V30 24 1 28 24
M  V30 25 1 29 8
M  V30 26 1 29 10
M  V30 27 1 29 13
M  V30 28 1 30 13
M  V30 29 1 30 23
M  V30 30 1 31 5
M  V30 31 1 32 4
M  V30 32 1 32 15
M  V30 33 1 32 25
M  V30 34 1 32 27
M  V30 35 1 33 1
M  V30 36 1 34 1
M  V30 37 1 5 35 CFG=1
M  V30 38 1 36 6
M  V30 39 1 37 6
M  V30 40 1 38 6
M  V30 41 1 39 7
M  V30 42 1 40 8
M  V30 43 1 41 8
M  V30 44 1 9 42 CFG=3
M  V30 45 1 43 11
M  V30 46 1 44 13
M  V30 47 1 45 13
M  V30 48 1 46 19
M  V30 49 1 47 19
M  V30 50 1 48 19
M  V30 51 1 49 21
M  V30 52 1 50 22
M  V30 53 1 51 22
M  V30 54 1 52 23
M  V30 55 1 53 23
M  V30 56 1 54 26
M  V30 57 1 28 55 CFG=3
M  V30 58 1 56 30
M  V30 59 1 57 30
M  V30 60 1 58 31
M  V30 61 1 59 31
M  V30 62 1 60 26
M  V30 END BOND
M  V30 END CTAB
M  END
>  <i_epik_Tot_Q>  (1) 
0

>  <i_epik_Tot_abs_Q>  (1) 
0

>  <i_i_glide_confnum>  (1) 
24

>  <i_i_glide_lignum>  (1) 
95

>  <i_i_glide_posenum>  (1) 
356

>  <i_i_glide_rotatable_bonds>  (1) 
5

>  <i_lp_mmshare_version>  (1) 
72125

>  <i_m_source_file_index>  (1) 
39

>  <i_f3d_flags>  (1) 
0

>  <num_sample>  (1) 
50

>  <b_lp_Chiralities_Consistent>  (1) 
1

>  <r_epik_Charging_Adjusted_Penalty>  (1) 
0.0043173356697657605

>  <r_epik_Ionization_Penalty>  (1) 
2.5101429145755949

>  <r_epik_Ionization_Penalty_Charging>  (1) 
0

>  <r_epik_Ionization_Penalty_Neutral>  (1) 
2.5101429145755949

>  <r_epik_State_Penalty>  (1) 
0.0043173356697657605

>  <r_glide_ring_energy>  (1) 
0.02445303134611947

>  <r_i_docking_score>  (1) 
-5.8515753909010595

>  <r_i_glide_ecoul>  (1) 
-2.0129425131428214

>  <r_i_glide_eff_state_penalty>  (1) 
0.0043173356697657605

>  <r_i_glide_einternal>  (1) 
22.511674517918316

>  <r_i_glide_emodel>  (1) 
-49.077748338889243

>  <r_i_glide_emodel_strain>  (1) 
0.20996445948527054

>  <r_i_glide_energy>  (1) 
-45.003153661579915

>  <r_i_glide_erotb>  (1) 
0.36503894659470715

>  <r_i_glide_esite>  (1) 
-0.082633277141557493

>  <r_i_glide_evdw>  (1) 
-42.990211148437098

>  <r_i_glide_gscore>  (1) 
-5.8558927265708256

>  <r_i_glide_gscore_strain>  (1) 
0

>  <r_i_glide_hbond>  (1) 
-0.21808998759296658

>  <r_i_glide_ligand_efficiency>  (1) 
-0.18286173096565811

>  <r_i_glide_ligand_efficiency_ln>  (1) 
-1.3103272379435831

>  <r_i_glide_ligand_efficiency_sa>  (1) 
-0.58054980819922319

>  <r_i_glide_lipo>  (1) 
-1.0731931710652858

>  <r_i_glide_metal>  (1) 
-0

>  <r_i_glide_rewards>  (1) 
-2.3955633029724455

>  <r_lp_Energy>  (1) 
66.989650999999995

>  <r_lp_tautomer_probability>  (1) 
0.99999998000000001

>  <s_epik_Chemistry_Notes>  (1) 
This compound contains an acetal/aminal-like group ( X-CH(R)-Y where X, Y are N, S, or O) that may be acid/base labile, releasing an aldehyde.

>  <s_epik_cmdline>  (1) 
J2VwaWtfcHl0aG9uJywgJy1waHQnLCAnMS4wJywgJy1waCcsICc3LjQnLCAnLXRuJywgJzgnLCAnLW1hJywgJzUwMCcsICctaW1hZScsICc8aW5maWxlLm1hZT4nLCAnLW9tYWUnLCAnPG91dGZpbGUubWFlPic=

>  <s_epik_input>  (1) 
W0NIM11bQ0BASF0xW0NIMl1DKD1PKVtOSF1bQ0BIXShDKD1PKVtDSDJdMSlDKD1TKU4oW0NIMl1bQ0gyXVtDSDJdMilbQ0gyXVtDQEBdMihbQ0gzXSlDKE9bQ0BASF0zW05IMl0pPVtDSF1bQ0hdPUMzQyhGKShGKUMoPU8pW05IMl0=

>  <s_glide_docking_method>  (1) 
confgen

>  <s_i_glide_gridfile>  (1) 
gpcr_drd2_6luq_protein_autoprepared_prepared

>  <s_lp_Force_Field>  (1) 
S-OPLS

>  <s_lp_Variant>  (1) 
DiffSBDD_38_num_sample_50-3

>  <s_m_source_file>  (1) 
generated__ligand_DiffSBDD_2026-05-06_prepared.sdf

>  <GenAI_Model>  (1) 
DiffSBDD

>  <Protein>  (1) 
generic_title2

$$$$
DiffSBDD_28_num_sample_50
     RDKit          3D

  0  0  0  0  0  0  0  0  0  0999 V3000
M  V30 BEGIN CTAB
M  V30 COUNTS 71 73 0 0 1
M  V30 BEGIN ATOM
M  V30 1 N 8.768843 4.048881 -16.229097 0 CFG=1 CHG=1
M  V30 2 C 6.907005 7.320906 -12.146126 0
M  V30 3 C 4.925187 8.869623 -20.374987 0 CFG=2
M  V30 4 C 10.005367 4.709413 -16.739223 0
M  V30 5 N 10.208664 7.199697 -8.295696 0
M  V30 6 O 7.872675 3.267926 -19.531649 0 CHG=-1
M  V30 7 C 8.477402 4.164001 -14.737031 0 CFG=1
M  V30 8 N 6.634935 4.813273 -15.891904 0
M  V30 9 F 9.514646 4.983492 -8.223861 0
M  V30 10 C 6.912596 7.446154 -20.387285 0
M  V30 11 O 6.304419 4.644929 -13.653064 0
M  V30 12 C 6.247231 8.626307 -21.110962 0
M  V30 13 C 5.996904 7.090510 -19.205213 0 CFG=1
M  V30 14 C 4.624954 7.538705 -19.686193 0
M  V30 15 O 8.634824 8.909325 -12.291661 0
M  V30 16 N 9.640845 6.569546 -10.408606 0
M  V30 17 N 11.834621 8.909400 -7.620801 0
M  V30 18 C 10.416743 7.369388 -9.650222 0
M  V30 19 C 8.376059 7.723007 -12.135751 0
M  V30 20 C 9.288645 5.245402 -13.992776 0
M  V30 21 C 10.510519 7.710639 -5.809576 0 CFG=2
M  V30 22 C 9.172461 5.285361 -12.449096 0
M  V30 23 F 11.591452 9.137152 -4.131886 0
M  V30 24 C 7.492935 5.227626 -18.222457 0 CFG=1
M  V30 25 F 10.924816 6.531958 -5.345230 0
M  V30 26 O 11.222169 8.166323 -10.135379 0
M  V30 27 O 9.006160 5.108457 -20.061837 0
M  V30 28 C 9.490857 6.682371 -11.854082 0 CFG=2
M  V30 29 C 3.790983 9.389763 -21.263170 0
M  V30 30 C 7.483567 4.344233 -16.938080 0 CFG=1
M  V30 31 C 12.094293 9.369754 -6.363958 0
M  V30 32 C 8.181383 4.469430 -19.375565 0
M  V30 33 C 7.002993 4.573789 -14.659480 0
M  V30 34 C 9.204623 6.212123 -7.801020 0
M  V30 35 C 10.923329 7.996788 -7.325214 0
M  V30 36 C 11.434803 8.781863 -5.417294 0
M  V30 37 C 6.068425 5.636595 -18.707730 0
M  V30 38 H 6.718626 6.473380 -11.488681 0
M  V30 39 H 6.310087 8.167850 -11.796838 0
M  V30 40 H 6.586228 7.078198 -13.156964 0
M  V30 41 H 5.122379 9.603726 -19.595621 0
M  V30 42 H 9.978960 5.791066 -16.605288 0
M  V30 43 H 10.902270 4.312358 -16.274353 0
M  V30 44 H 10.184110 4.503277 -17.788188 0
M  V30 45 H 8.612774 3.191717 -14.264281 0
M  V30 46 H 5.718844 5.177561 -16.107910 0
M  V30 47 H 7.925195 7.683627 -20.060929 0
M  V30 48 H 6.982631 6.603156 -21.076483 0
M  V30 49 H 6.877465 9.516702 -21.101427 0
M  V30 50 H 6.068688 8.361889 -22.154164 0
M  V30 51 H 6.234804 7.730006 -18.359936 0
M  V30 52 H 4.235124 6.818971 -20.406983 0
M  V30 53 H 3.907338 7.645816 -18.871642 0
M  V30 54 H 9.012829 5.941496 -9.928202 0
M  V30 55 H 8.913495 6.169275 -14.397012 0
M  V30 56 H 10.342217 5.221229 -14.247954 0
M  V30 57 H 9.469949 7.933534 -5.575449 0
M  V30 58 H 9.881824 4.558614 -12.049156 0
M  V30 59 H 8.205601 4.934608 -12.095164 0
M  V30 60 H 8.055259 6.136744 -18.005973 0
M  V30 61 H 10.426969 7.035863 -12.291054 0
M  V30 62 H 3.527022 8.672080 -22.041259 0
M  V30 63 H 2.899190 9.584017 -20.668709 0
M  V30 64 H 4.074199 10.323469 -21.748058 0
M  V30 65 H 7.055695 3.373053 -17.194505 0
M  V30 66 H 12.808081 10.169237 -6.229598 0
M  V30 67 H 9.010735 6.107030 -6.738645 0
M  V30 68 H 8.234860 6.445625 -8.230667 0
M  V30 69 H 5.711958 4.966518 -19.493312 0
M  V30 70 H 5.331438 5.525812 -17.914776 0
M  V30 71 H 8.919164 3.065601 -16.407189 0
M  V30 END ATOM
M  V30 BEGIN BOND
M  V30 1 1 4 1
M  V30 2 1 7 1
M  V30 3 1 12 3
M  V30 4 1 12 10
M  V30 5 1 13 10
M  V30 6 1 14 3
M  V30 7 1 14 13
M  V30 8 1 18 5
M  V30 9 1 18 16
M  V30 10 1 19 2
M  V30 11 2 19 15
M  V30 12 1 20 7
M  V30 13 1 22 20
M  V30 14 1 25 21
M  V30 15 2 26 18
M  V30 16 1 28 16
M  V30 17 1 28 19
M  V30 18 1 28 22
M  V30 19 1 29 3
M  V30 20 1 30 1
M  V30 21 1 30 8
M  V30 22 1 30 24
M  V30 23 1 31 17
M  V30 24 1 32 6
M  V30 25 1 32 24
M  V30 26 2 32 27
M  V30 27 1 33 7
M  V30 28 1 33 8
M  V30 29 2 33 11
M  V30 30 1 34 5
M  V30 31 1 34 9
M  V30 32 1 35 5
M  V30 33 2 35 17
M  V30 34 1 35 21
M  V30 35 1 36 21
M  V30 36 1 36 23
M  V30 37 2 36 31
M  V30 38 1 37 13
M  V30 39 1 37 24
M  V30 40 1 38 2
M  V30 41 1 39 2
M  V30 42 1 40 2
M  V30 43 1 3 41 CFG=1
M  V30 44 1 42 4
M  V30 45 1 43 4
M  V30 46 1 44 4
M  V30 47 1 7 45 CFG=1
M  V30 48 1 46 8
M  V30 49 1 47 10
M  V30 50 1 48 10
M  V30 51 1 49 12
M  V30 52 1 50 12
M  V30 53 1 13 51 CFG=1
M  V30 54 1 52 14
M  V30 55 1 53 14
M  V30 56 1 54 16
M  V30 57 1 55 20
M  V30 58 1 56 20
M  V30 59 1 21 57 CFG=3
M  V30 60 1 58 22
M  V30 61 1 59 22
M  V30 62 1 24 60 CFG=1
M  V30 63 1 28 61 CFG=3
M  V30 64 1 62 29
M  V30 65 1 63 29
M  V30 66 1 64 29
M  V30 67 1 30 65 CFG=3
M  V30 68 1 66 31
M  V30 69 1 67 34
M  V30 70 1 68 34
M  V30 71 1 69 37
M  V30 72 1 70 37
M  V30 73 1 1 71 CFG=1
M  V30 END BOND
M  V30 END CTAB
M  END
>  <i_epik_Tot_Q>  (1) 
0

>  <i_epik_Tot_abs_Q>  (1) 
2

>  <i_i_glide_confnum>  (1) 
2078

>  <i_i_glide_lignum>  (1) 
70

>  <i_i_glide_posenum>  (1) 
65

>  <i_i_glide_rotatable_bonds>  (1) 
13

>  <i_lp_mmshare_version>  (1) 
72125

>  <i_m_source_file_index>  (1) 
29

>  <i_f3d_flags>  (1) 
0

>  <num_sample>  (1) 
50

>  <b_lp_Chiralities_Consistent>  (1) 
1

>  <r_epik_Charging_Adjusted_Penalty>  (1) 
0.054083419880676768

>  <r_epik_Ionization_Penalty>  (1) 
0.12983459298085004

>  <r_epik_Ionization_Penalty_Charging>  (1) 
0.054083419880676768

>  <r_epik_Ionization_Penalty_Neutral>  (1) 
0.075751173100173264

>  <r_epik_State_Penalty>  (1) 
-0

>  <r_glide_ring_energy>  (1) 
0

>  <r_i_docking_score>  (1) 
-5.8303595534319106

>  <r_i_glide_ecoul>  (1) 
-4.3121737343028697

>  <r_i_glide_eff_state_penalty>  (1) 
-0

>  <r_i_glide_einternal>  (1) 
17.472038526008454

>  <r_i_glide_emodel>  (1) 
-44.451961273841761

>  <r_i_glide_emodel_strain>  (1) 
4.1288211724123443

>  <r_i_glide_energy>  (1) 
-42.777866394121467

>  <r_i_glide_erotb>  (1) 
0.66137813184917615

>  <r_i_glide_esite>  (1) 
-0.25300729645726777

>  <r_i_glide_evdw>  (1) 
-38.4656926598186

>  <r_i_glide_gscore>  (1) 
-5.8303595534319106

>  <r_i_glide_gscore_strain>  (1) 
0.032205293103086063

>  <r_i_glide_hbond>  (1) 
0

>  <r_i_glide_ligand_efficiency>  (1) 
-0.15757728522788947

>  <r_i_glide_ligand_efficiency_ln>  (1) 
-1.2644683041187288

>  <r_i_glide_ligand_efficiency_sa>  (1) 
-0.52508247315942047

>  <r_i_glide_lipo>  (1) 
-2.360952657213307

>  <r_i_glide_metal>  (1) 
-0

>  <r_i_glide_rewards>  (1) 
-1.3398723315772378

>  <r_lp_Energy>  (1) 
39.617291999999999

>  <r_lp_tautomer_probability>  (1) 
1

>  <s_epik_Chemistry_Notes>  (1) 
This compound has an imine and may undergo hydrolysis. This compound contains an acetal/aminal-like group ( X-CH(R)-Y where X, Y are N, S, or O) that may be acid/base labile, releasing an aldehyde.

>  <s_epik_cmdline>  (1) 
J2VwaWtfcHl0aG9uJywgJy1waHQnLCAnMS4wJywgJy1waCcsICc3LjQnLCAnLXRuJywgJzgnLCAnLW1hJywgJzUwMCcsICctaW1hZScsICc8aW5maWxlLm1hZT4nLCAnLW9tYWUnLCAnPG91dGZpbGUubWFlPic=

>  <s_epik_input>  (1) 
W0NIM11bQ0BASF0xW0NIMl1bQ0gyXVtDQEBIXShbQ0gyXTEpW0NIMl1bQ0BIXShDKD1PKVtPSF0pW0NAQEhdMltOSF1DKD1PKVtDQEBIXShOMltDSDNdKVtDSDJdW0NIMl1bQ0BIXShDKD1PKVtDSDNdKVtOSF1DKD1PKU4oW0NIMl1GKUMoW0NASF0zRik9TltDSF09QzNG

>  <s_glide_docking_method>  (1) 
confgen

>  <s_i_glide_gridfile>  (1) 
gpcr_drd2_6luq_protein_autoprepared_prepared

>  <s_lp_Force_Field>  (1) 
S-OPLS

>  <s_lp_Variant>  (1) 
DiffSBDD_28_num_sample_50-2

>  <s_m_source_file>  (1) 
generated__ligand_DiffSBDD_2026-05-06_prepared.sdf

>  <GenAI_Model>  (1) 
DiffSBDD

>  <Protein>  (1) 
generic_title2

$$$$
DiffSBDD_17_num_sample_50
     RDKit          3D

  0  0  0  0  0  0  0  0  0  0999 V3000
M  V30 BEGIN CTAB
M  V30 COUNTS 58 60 0 0 1
M  V30 BEGIN ATOM
M  V30 1 C 11.339708 8.570152 -5.387760 0 CFG=2
M  V30 2 C 5.381669 6.721151 -16.054988 0 CFG=2
M  V30 3 C 9.218137 6.961185 -7.444652 0
M  V30 4 C 9.819996 5.327912 -12.954357 0
M  V30 5 N 11.434833 7.560704 -6.476215 0 CHG=1
M  V30 6 C 12.272608 8.177194 -1.672898 0
M  V30 7 C 9.434832 6.576787 -8.897476 0
M  V30 8 C 11.893256 9.902615 -5.907814 0
M  V30 9 C 7.139701 5.333412 -15.682050 0 CFG=2
M  V30 10 C 12.391791 6.729125 -2.174527 0
M  V30 11 C 11.760575 6.735513 -3.555452 0
M  V30 12 C 10.234843 7.042670 -11.124503 0
M  V30 13 C 8.514370 5.191530 -15.022786 0
M  V30 14 C 7.175676 5.376721 -17.227073 0
M  V30 15 N 9.034844 4.969312 -10.680671 0
M  V30 16 C 12.103250 8.129709 -4.106361 0
M  V30 17 C 12.005939 9.060773 -2.897716 0
M  V30 18 N 8.576225 5.427279 -13.704168 0
M  V30 19 O 9.497186 4.875856 -15.692722 0
M  V30 20 C 8.917541 5.362004 -9.392472 0
M  V30 21 C 10.354672 6.554696 -6.507924 0
M  V30 22 C 10.104761 7.436444 -9.782950 0
M  V30 23 C 9.685829 5.804447 -11.523596 0
M  V30 24 S 5.758353 6.350381 -17.773665 0
M  V30 25 C 4.846668 8.141571 -15.891674 0
M  V30 26 O 6.544390 6.557681 -15.269926 0
M  V30 27 H 10.285100 8.720022 -5.156805 0
M  V30 28 H 4.634845 6.005219 -15.713052 0
M  V30 29 H 9.000090 8.027398 -7.367734 0
M  V30 30 H 8.307812 6.457862 -7.114525 0
M  V30 31 H 10.617329 5.879336 -13.455634 0
M  V30 32 H 10.121194 4.280608 -12.928017 0
M  V30 33 H 12.314792 7.075699 -6.391299 0
M  V30 34 H 13.168396 8.489660 -1.134395 0
M  V30 35 H 11.434831 8.273998 -0.989089 0
M  V30 36 H 11.691098 10.714518 -5.209637 0
M  V30 37 H 12.971352 9.856242 -6.069180 0
M  V30 38 H 11.434844 10.169317 -6.856758 0
M  V30 39 H 6.512877 4.504958 -15.348667 0
M  V30 40 H 13.434824 6.442874 -2.291604 0
M  V30 41 H 11.925904 6.005324 -1.504035 0
M  V30 42 H 10.689071 6.569297 -3.452075 0
M  V30 43 H 12.143146 5.928951 -4.178575 0
M  V30 44 H 10.741929 7.674086 -11.835989 0
M  V30 45 H 8.074557 5.869329 -17.598919 0
M  V30 46 H 7.142713 4.376034 -17.658421 0
M  V30 47 H 13.169958 8.169297 -4.291664 0
M  V30 48 H 12.743590 9.858073 -2.963577 0
M  V30 49 H 11.034834 9.540293 -2.828384 0
M  V30 50 H 7.737285 5.684541 -13.203608 0
M  V30 51 H 8.384205 4.689657 -8.736591 0
M  V30 52 H 9.949318 6.393241 -5.511419 0
M  V30 53 H 10.770114 5.600463 -6.829514 0
M  V30 54 H 10.502755 8.381287 -9.443788 0
M  V30 55 H 4.658881 8.368187 -14.843990 0
M  V30 56 H 5.549940 8.879729 -16.279510 0
M  V30 57 H 3.900791 8.246018 -16.421531 0
M  V30 58 H 11.418228 8.034146 -7.368139 0
M  V30 END ATOM
M  V30 BEGIN BOND
M  V30 1 1 5 1
M  V30 2 1 7 3
M  V30 3 1 8 1
M  V30 4 1 10 6
M  V30 5 1 11 10
M  V30 6 1 13 9
M  V30 7 1 14 9
M  V30 8 1 16 1
M  V30 9 1 16 11
M  V30 10 1 17 6
M  V30 11 1 17 16
M  V30 12 1 18 4
M  V30 13 1 18 13
M  V30 14 2 19 13
M  V30 15 2 20 7
M  V30 16 1 20 15
M  V30 17 1 21 3
M  V30 18 1 21 5
M  V30 19 1 22 7
M  V30 20 2 22 12
M  V30 21 1 23 4
M  V30 22 1 23 12
M  V30 23 2 23 15
M  V30 24 1 24 2
M  V30 25 1 24 14
M  V30 26 1 25 2
M  V30 27 1 26 2
M  V30 28 1 26 9
M  V30 29 1 1 27 CFG=1
M  V30 30 1 2 28 CFG=1
M  V30 31 1 29 3
M  V30 32 1 30 3
M  V30 33 1 31 4
M  V30 34 1 32 4
M  V30 35 1 33 5
M  V30 36 1 34 6
M  V30 37 1 35 6
M  V30 38 1 36 8
M  V30 39 1 37 8
M  V30 40 1 38 8
M  V30 41 1 9 39 CFG=3
M  V30 42 1 40 10
M  V30 43 1 41 10
M  V30 44 1 42 11
M  V30 45 1 43 11
M  V30 46 1 44 12
M  V30 47 1 45 14
M  V30 48 1 46 14
M  V30 49 1 47 16
M  V30 50 1 48 17
M  V30 51 1 49 17
M  V30 52 1 50 18
M  V30 53 1 51 20
M  V30 54 1 52 21
M  V30 55 1 53 21
M  V30 56 1 54 22
M  V30 57 1 55 25
M  V30 58 1 56 25
M  V30 59 1 57 25
M  V30 60 1 58 5
M  V30 END BOND
M  V30 END CTAB
M  END
>  <i_epik_Tot_Q>  (1) 
1

>  <i_epik_Tot_abs_Q>  (1) 
1

>  <i_i_glide_confnum>  (1) 
669

>  <i_i_glide_lignum>  (1) 
53

>  <i_i_glide_posenum>  (1) 
84

>  <i_i_glide_rotatable_bonds>  (1) 
9

>  <i_lp_mmshare_version>  (1) 
72125

>  <i_m_source_file_index>  (1) 
18

>  <i_f3d_flags>  (1) 
0

>  <num_sample>  (1) 
50

>  <b_lp_Chiralities_Consistent>  (1) 
1

>  <r_epik_Charging_Adjusted_Penalty>  (1) 
0.0010304682105854765

>  <r_epik_Ionization_Penalty>  (1) 
0.0013061012703679969

>  <r_epik_Ionization_Penalty_Charging>  (1) 
0.0010304682105854765

>  <r_epik_Ionization_Penalty_Neutral>  (1) 
0.00027563305978252047

>  <r_epik_State_Penalty>  (1) 
-0

>  <r_glide_ring_energy>  (1) 
0

>  <r_i_docking_score>  (1) 
-5.817474220901806

>  <r_i_glide_ecoul>  (1) 
-0.073046176583354772

>  <r_i_glide_eff_state_penalty>  (1) 
-0

>  <r_i_glide_einternal>  (1) 
9.2940566487317575

>  <r_i_glide_emodel>  (1) 
-46.094199238287885

>  <r_i_glide_emodel_strain>  (1) 
1.0017293275567312

>  <r_i_glide_energy>  (1) 
-37.56550112745893

>  <r_i_glide_erotb>  (1) 
1.0818897874691362

>  <r_i_glide_esite>  (1) 
0

>  <r_i_glide_evdw>  (1) 
-37.492454950875576

>  <r_i_glide_gscore>  (1) 
-5.817474220901806

>  <r_i_glide_gscore_strain>  (1) 
0

>  <r_i_glide_hbond>  (1) 
0

>  <r_i_glide_ligand_efficiency>  (1) 
-0.22374900849622331

>  <r_i_glide_ligand_efficiency_ln>  (1) 
-1.3662147320889269

>  <r_i_glide_ligand_efficiency_sa>  (1) 
-0.66285555798010898

>  <r_i_glide_lipo>  (1) 
-3.1532297225615826

>  <r_i_glide_metal>  (1) 
-0

>  <r_i_glide_rewards>  (1) 
-1.8605546117780773

>  <r_lp_Energy>  (1) 
26.862019999999998

>  <r_lp_tautomer_probability>  (1) 
1

>  <s_epik_Chemistry_Notes>  (1) 
This compound contains an acetal/aminal-like group ( X-CH(R)-Y where X, Y are N, S, or O) that may be acid/base labile, releasing an aldehyde.

>  <s_epik_cmdline>  (1) 
J2VwaWtfcHl0aG9uJywgJy1waHQnLCAnMS4wJywgJy1waCcsICc3LjQnLCAnLXRuJywgJzgnLCAnLW1hJywgJzUwMCcsICctaW1hZScsICc8aW5maWxlLm1hZT4nLCAnLW9tYWUnLCAnPG91dGZpbGUubWFlPic=

>  <s_epik_input>  (1) 
W0NIMl0xW0NIMl1bQ0gyXVtDSDJdW0NIXTFbQ0BASF0oW0NIM10pW05IXVtDSDJdW0NIMl1jMltjSF1uYyhbY0hdW2NIXTIpW0NIMl1bTkhdQyg9TylbQ0BASF0oTzMpW0NIMl1TW0NAQEhdM1tDSDNd

>  <s_glide_docking_method>  (1) 
confgen

>  <s_i_glide_gridfile>  (1) 
gpcr_drd2_6luq_protein_autoprepared_prepared

>  <s_lp_Force_Field>  (1) 
S-OPLS

>  <s_lp_Variant>  (1) 
DiffSBDD_17_num_sample_50-1

>  <s_m_source_file>  (1) 
generated__ligand_DiffSBDD_2026-05-06_prepared.sdf

>  <GenAI_Model>  (1) 
DiffSBDD

>  <Protein>  (1) 
generic_title2

$$$$
DiffSBDD_38_num_sample_50
     RDKit          3D

  0  0  0  0  0  0  0  0  0  0999 V3000
M  V30 BEGIN CTAB
M  V30 COUNTS 60 62 0 0 1
M  V30 BEGIN ATOM
M  V30 1 C 11.468912 8.240397 -7.297869 0
M  V30 2 O 13.129400 8.169456 -9.022655 0
M  V30 3 S 10.634831 6.569306 -12.291670 0
M  V30 4 F 8.166991 0.252219 -18.049273 0
M  V30 5 C 7.142988 0.990271 -14.641057 0 CFG=2
M  V30 6 C 11.034846 7.128362 -5.073077 0
M  V30 7 C 7.428897 2.527932 -16.586247 0
M  V30 8 C 8.573828 4.308042 -12.388683 0
M  V30 9 C 11.033219 6.949388 -6.590888 0 CFG=1
M  V30 10 C 9.571572 6.175061 -11.052361 0
M  V30 11 N 11.006175 7.786514 -9.667529 0
M  V30 12 C 7.326617 3.429134 -14.345217 0
M  V30 13 C 7.429162 5.102128 -10.320458 0
M  V30 14 C 11.940647 8.051787 -8.741630 0
M  V30 15 F 7.606959 -1.030690 -16.434569 0
M  V30 16 O 9.834832 4.715997 -8.602950 0
M  V30 17 C 7.325713 4.528834 -13.275187 0 CFG=2
M  V30 18 O 7.189465 2.151101 -13.826726 0
M  V30 19 C 7.334581 5.944693 -13.909306 0
M  V30 20 O 4.953363 -0.630742 -17.085790 0
M  V30 21 C 7.447241 3.625837 -15.673391 0
M  V30 22 N 5.772856 0.117545 -19.042345 0
M  V30 23 C 6.069083 4.389885 -12.370108 0
M  V30 24 C 9.759028 5.936559 -8.487375 0
M  V30 25 C 5.886674 -0.178355 -17.744463 0
M  V30 26 C 9.648169 6.523984 -7.091596 0
M  V30 27 C 7.277739 1.278633 -16.143274 0
M  V30 28 C 9.796890 6.921734 -9.684178 0 CFG=2
M  V30 29 N 8.566673 5.232705 -11.238648 0
M  V30 30 C 6.118115 5.282412 -11.108572 0
M  V30 31 N 5.954403 0.249668 -14.343685 0
M  V30 32 C 7.257959 0.076194 -17.084801 0
M  V30 33 H 10.658396 8.969482 -7.280079 0
M  V30 34 H 12.290015 8.699203 -6.746631 0
M  V30 35 H 8.006900 0.387880 -14.355803 0
M  V30 36 H 10.520807 8.044887 -4.796231 0
M  V30 37 H 10.550971 6.292419 -4.565813 0
M  V30 38 H 12.047404 7.199136 -4.679275 0
M  V30 39 H 7.531104 2.713518 -17.645124 0
M  V30 40 H 8.533618 3.304291 -11.964563 0
M  V30 41 H 9.474587 4.289199 -12.998925 0
M  V30 42 H 11.751278 6.155295 -6.809717 0
M  V30 43 H 11.368604 7.886295 -10.606640 0
M  V30 44 H 7.447214 4.103651 -9.892239 0
M  V30 45 H 7.426168 5.769304 -9.470114 0
M  V30 46 H 7.329894 6.736808 -13.162372 0
M  V30 47 H 8.223624 6.107583 -14.518494 0
M  V30 48 H 6.459808 6.104974 -14.540531 0
M  V30 49 H 7.556165 4.625843 -16.060950 0
M  V30 50 H 4.893817 -0.032353 -19.515871 0
M  V30 51 H 6.565656 0.485314 -19.546527 0
M  V30 52 H 5.165856 4.603719 -12.942321 0
M  V30 53 H 5.968707 3.356642 -12.036128 0
M  V30 54 H 8.950819 7.362451 -7.097746 0
M  V30 55 H 9.034838 7.668522 -9.568360 0
M  V30 56 H 5.271201 5.048980 -10.462846 0
M  V30 57 H 5.998984 6.331455 -11.379810 0
M  V30 58 H 5.127449 0.697562 -14.708049 0
M  V30 59 H 5.966933 -0.686927 -14.729547 0
M  V30 60 H 9.217900 5.769305 -6.435442 0
M  V30 END ATOM
M  V30 BEGIN BOND
M  V30 1 1 9 1
M  V30 2 1 9 6
M  V30 3 2 10 3
M  V30 4 1 14 1
M  V30 5 2 14 2
M  V30 6 1 14 11
M  V30 7 1 17 8
M  V30 8 1 17 12
M  V30 9 1 18 5
M  V30 10 1 18 12
M  V30 11 1 17 19 CFG=3
M  V30 12 1 21 7
M  V30 13 2 21 12
M  V30 14 1 23 17
M  V30 15 2 24 16
M  V30 16 2 25 20
M  V30 17 1 25 22
M  V30 18 1 26 9
M  V30 19 1 26 24
M  V30 20 1 27 5
M  V30 21 2 27 7
M  V30 22 1 28 10
M  V30 23 1 28 11
M  V30 24 1 28 24
M  V30 25 1 29 8
M  V30 26 1 29 10
M  V30 27 1 29 13
M  V30 28 1 30 13
M  V30 29 1 30 23
M  V30 30 1 31 5
M  V30 31 1 32 4
M  V30 32 1 32 15
M  V30 33 1 32 25
M  V30 34 1 32 27
M  V30 35 1 33 1
M  V30 36 1 34 1
M  V30 37 1 5 35 CFG=1
M  V30 38 1 36 6
M  V30 39 1 37 6
M  V30 40 1 38 6
M  V30 41 1 39 7
M  V30 42 1 40 8
M  V30 43 1 41 8
M  V30 44 1 9 42 CFG=1
M  V30 45 1 43 11
M  V30 46 1 44 13
M  V30 47 1 45 13
M  V30 48 1 46 19
M  V30 49 1 47 19
M  V30 50 1 48 19
M  V30 51 1 49 21
M  V30 52 1 50 22
M  V30 53 1 51 22
M  V30 54 1 52 23
M  V30 55 1 53 23
M  V30 56 1 54 26
M  V30 57 1 28 55 CFG=1
M  V30 58 1 56 30
M  V30 59 1 57 30
M  V30 60 1 58 31
M  V30 61 1 59 31
M  V30 62 1 60 26
M  V30 END BOND
M  V30 END CTAB
M  END
>  <i_epik_Tot_Q>  (1) 
0

>  <i_epik_Tot_abs_Q>  (1) 
0

>  <i_i_glide_confnum>  (1) 
27

>  <i_i_glide_lignum>  (1) 
94

>  <i_i_glide_posenum>  (1) 
228

>  <i_i_glide_rotatable_bonds>  (1) 
5

>  <i_lp_mmshare_version>  (1) 
72125

>  <i_m_source_file_index>  (1) 
39

>  <i_f3d_flags>  (1) 
0

>  <num_sample>  (1) 
50

>  <b_lp_Chiralities_Consistent>  (1) 
1

>  <r_epik_Charging_Adjusted_Penalty>  (1) 
0.0043173356697657605

>  <r_epik_Ionization_Penalty>  (1) 
2.5101429145755949

>  <r_epik_Ionization_Penalty_Charging>  (1) 
0

>  <r_epik_Ionization_Penalty_Neutral>  (1) 
2.5101429145755949

>  <r_epik_State_Penalty>  (1) 
0.0043173356697657605

>  <r_glide_ring_energy>  (1) 
0.024453031346126263

>  <r_i_docking_score>  (1) 
-5.8172975856186149

>  <r_i_glide_ecoul>  (1) 
-1.8366701619312642

>  <r_i_glide_eff_state_penalty>  (1) 
0.0043173356697657605

>  <r_i_glide_einternal>  (1) 
13.156371598540424

>  <r_i_glide_emodel>  (1) 
-51.915108288727197

>  <r_i_glide_emodel_strain>  (1) 
1.8660188065118319

>  <r_i_glide_energy>  (1) 
-46.849445497887984

>  <r_i_glide_erotb>  (1) 
0.36503894659470715

>  <r_i_glide_esite>  (1) 
-0.11210160355393205

>  <r_i_glide_evdw>  (1) 
-45.012775335956718

>  <r_i_glide_gscore>  (1) 
-5.821614921288381

>  <r_i_glide_gscore_strain>  (1) 
0

>  <r_i_glide_hbond>  (1) 
0

>  <r_i_glide_ligand_efficiency>  (1) 
-0.18179054955058171

>  <r_i_glide_ligand_efficiency_ln>  (1) 
-1.3026515029631613

>  <r_i_glide_ligand_efficiency_sa>  (1) 
-0.57714901918894113

>  <r_i_glide_lipo>  (1) 
-1.6926318941248364

>  <r_i_glide_metal>  (1) 
-0

>  <r_i_glide_rewards>  (1) 
-1.8557810791167928

>  <r_lp_Energy>  (1) 
67.478093000000001

>  <r_lp_tautomer_probability>  (1) 
0.99999998000000001

>  <s_epik_Chemistry_Notes>  (1) 
This compound contains an acetal/aminal-like group ( X-CH(R)-Y where X, Y are N, S, or O) that may be acid/base labile, releasing an aldehyde.

>  <s_epik_cmdline>  (1) 
J2VwaWtfcHl0aG9uJywgJy1waHQnLCAnMS4wJywgJy1waCcsICc3LjQnLCAnLXRuJywgJzgnLCAnLW1hJywgJzUwMCcsICctaW1hZScsICc8aW5maWxlLm1hZT4nLCAnLW9tYWUnLCAnPG91dGZpbGUubWFlPic=

>  <s_epik_input>  (1) 
W0NIM11bQ0BASF0xW0NIMl1DKD1PKVtOSF1bQ0BIXShDKD1PKVtDSDJdMSlDKD1TKU4oW0NIMl1bQ0gyXVtDSDJdMilbQ0gyXVtDQEBdMihbQ0gzXSlDKE9bQ0BASF0zW05IMl0pPVtDSF1bQ0hdPUMzQyhGKShGKUMoPU8pW05IMl0=

>  <s_glide_docking_method>  (1) 
confgen

>  <s_i_glide_gridfile>  (1) 
gpcr_drd2_6luq_protein_autoprepared_prepared

>  <s_lp_Force_Field>  (1) 
S-OPLS

>  <s_lp_Variant>  (1) 
DiffSBDD_38_num_sample_50-2

>  <s_m_source_file>  (1) 
generated__ligand_DiffSBDD_2026-05-06_prepared.sdf

>  <GenAI_Model>  (1) 
DiffSBDD

>  <Protein>  (1) 
generic_title2

$$$$
DiffSBDD_29_num_sample_50
     RDKit          3D

  0  0  0  0  0  0  0  0  0  0999 V3000
M  V30 BEGIN CTAB
M  V30 COUNTS 64 67 0 0 1
M  V30 BEGIN ATOM
M  V30 1 C 11.434826 7.498104 -5.529383 0
M  V30 2 O 7.732541 5.223543 -11.679402 0
M  V30 3 C 7.261869 5.684081 -15.361131 0
M  V30 4 C 11.160084 6.057561 -5.756001 0
M  V30 5 O 7.938729 2.647816 -13.151490 0
M  V30 6 N 9.034837 6.441050 -9.044039 0 CFG=1 CHG=1
M  V30 7 C 8.012296 4.655237 -14.484783 0
M  V30 8 C 5.820763 6.590962 -13.408887 0
M  V30 9 C 5.085692 5.969181 -11.074367 0
M  V30 10 C 11.910672 9.450872 -4.254843 0
M  V30 11 C 9.332442 5.999289 -7.658150 0
M  V30 12 C 9.434841 7.860001 -9.282117 0
M  V30 13 C 7.584315 1.391192 -13.716316 0
M  V30 14 C 6.683664 4.461016 -12.266913 0 CFG=1
M  V30 15 C 11.435686 8.243407 -6.636480 0
M  V30 16 C 10.906393 8.114999 -9.015658 0
M  V30 17 C 10.837955 6.149870 -7.346764 0 CFG=1
M  V30 18 C 5.503763 5.424801 -12.449596 0 CFG=2
M  V30 19 C 11.721900 8.066070 -4.291654 0
M  V30 20 C 8.391507 4.569438 -10.619136 0
M  V30 21 N 11.612272 9.577857 -6.685750 0
M  V30 22 C 7.152127 3.762896 -13.564483 0 CFG=2
M  V30 23 C 5.882493 6.159739 -14.879460 0
M  V30 24 N 11.302399 7.494450 -7.762221 0
M  V30 25 C 11.821641 10.169271 -5.478565 0
M  V30 26 N 11.927596 6.597629 -2.140477 0
M  V30 27 C 9.490801 5.486748 -10.087657 0
M  V30 28 C 11.834846 7.250373 -3.087823 0
M  V30 29 C 6.319455 0.815515 -13.060559 0
M  V30 30 H 7.137952 5.266242 -16.360403 0
M  V30 31 H 7.895104 6.562052 -15.490412 0
M  V30 32 H 12.039398 5.450511 -5.540202 0
M  V30 33 H 10.303441 5.769332 -5.148668 0
M  V30 34 H 8.580592 4.010132 -15.154954 0
M  V30 35 H 8.773952 5.164715 -13.894441 0
M  V30 36 H 5.036119 7.339661 -13.312940 0
M  V30 37 H 6.735867 7.107033 -13.115715 0
M  V30 38 H 5.894945 6.569217 -10.691677 0
M  V30 39 H 4.234846 6.639969 -11.091673 0
M  V30 40 H 4.886002 5.180287 -10.350375 0
M  V30 41 H 12.112041 9.959520 -3.323463 0
M  V30 42 H 9.001605 4.971863 -7.506489 0
M  V30 43 H 8.742557 6.613143 -6.974795 0
M  V30 44 H 8.891519 8.506312 -8.589972 0
M  V30 45 H 9.154302 8.172670 -10.289902 0
M  V30 46 H 7.471127 1.470741 -14.798530 0
M  V30 47 H 8.415311 0.707098 -13.539341 0
M  V30 48 H 6.336340 3.687476 -11.578021 0
M  V30 49 H 11.118024 9.183438 -9.053971 0
M  V30 50 H 11.506591 7.664205 -9.806750 0
M  V30 51 H 11.398204 5.384532 -7.869965 0
M  V30 52 H 4.679218 4.838509 -12.855991 0
M  V30 53 H 8.855248 3.662792 -11.008753 0
M  V30 54 H 7.696270 4.282437 -9.828797 0
M  V30 55 H 6.277034 3.415490 -14.115398 0
M  V30 56 H 5.135602 5.390260 -15.071007 0
M  V30 57 H 5.586296 7.007627 -15.499616 0
M  V30 58 H 11.930969 11.239474 -5.491818 0
M  V30 59 H 9.969132 6.004607 -10.921296 0
M  V30 60 H 10.234786 4.836589 -9.641439 0
M  V30 61 H 6.107379 -0.184818 -13.438929 0
M  V30 62 H 6.438715 0.737957 -11.980166 0
M  V30 63 H 5.443067 1.431711 -13.256882 0
M  V30 64 H 8.020298 6.513798 -9.125824 0
M  V30 END ATOM
M  V30 BEGIN BOND
M  V30 1 1 4 1
M  V30 2 1 7 3
M  V30 3 1 11 6
M  V30 4 1 12 6
M  V30 5 1 13 5
M  V30 6 1 14 2
M  V30 7 1 15 1
M  V30 8 1 16 12
M  V30 9 1 17 4
M  V30 10 1 17 11
M  V30 11 1 18 8
M  V30 12 1 18 9
M  V30 13 1 18 14
M  V30 14 2 19 1
M  V30 15 1 19 10
M  V30 16 1 20 2
M  V30 17 2 21 15
M  V30 18 1 22 5
M  V30 19 1 22 7
M  V30 20 1 22 14
M  V30 21 1 23 3
M  V30 22 1 23 8
M  V30 23 1 24 15
M  V30 24 1 24 16
M  V30 25 1 24 17
M  V30 26 2 25 10
M  V30 27 1 25 21
M  V30 28 1 27 6
M  V30 29 1 27 20
M  V30 30 1 28 19
M  V30 31 3 28 26
M  V30 32 1 29 13
M  V30 33 1 30 3
M  V30 34 1 31 3
M  V30 35 1 32 4
M  V30 36 1 33 4
M  V30 37 1 34 7
M  V30 38 1 35 7
M  V30 39 1 36 8
M  V30 40 1 37 8
M  V30 41 1 38 9
M  V30 42 1 39 9
M  V30 43 1 40 9
M  V30 44 1 41 10
M  V30 45 1 42 11
M  V30 46 1 43 11
M  V30 47 1 44 12
M  V30 48 1 45 12
M  V30 49 1 46 13
M  V30 50 1 47 13
M  V30 51 1 14 48 CFG=1
M  V30 52 1 49 16
M  V30 53 1 50 16
M  V30 54 1 17 51 CFG=3
M  V30 55 1 18 52 CFG=3
M  V30 56 1 53 20
M  V30 57 1 54 20
M  V30 58 1 22 55 CFG=3
M  V30 59 1 56 23
M  V30 60 1 57 23
M  V30 61 1 58 25
M  V30 62 1 59 27
M  V30 63 1 60 27
M  V30 64 1 61 29
M  V30 65 1 62 29
M  V30 66 1 63 29
M  V30 67 1 6 64 CFG=1
M  V30 END BOND
M  V30 END CTAB
M  END
>  <i_epik_Tot_Q>  (1) 
1

>  <i_epik_Tot_abs_Q>  (1) 
1

>  <i_i_glide_confnum>  (1) 
213

>  <i_i_glide_lignum>  (1) 
76

>  <i_i_glide_posenum>  (1) 
193

>  <i_i_glide_rotatable_bonds>  (1) 
6

>  <i_lp_mmshare_version>  (1) 
72125

>  <i_m_source_file_index>  (1) 
30

>  <i_f3d_flags>  (1) 
0

>  <num_sample>  (1) 
50

>  <b_lp_Chiralities_Consistent>  (1) 
1

>  <r_epik_Charging_Adjusted_Penalty>  (1) 
1.0026227849201053

>  <r_epik_Ionization_Penalty>  (1) 
0.50131159217577048

>  <r_epik_Ionization_Penalty_Charging>  (1) 
0.50131139246005263

>  <r_epik_Ionization_Penalty_Neutral>  (1) 
1.9971571790720627e-07

>  <r_epik_State_Penalty>  (1) 
0.50131139246005263

>  <r_glide_ring_energy>  (1) 
0.98146617588620499

>  <r_i_docking_score>  (1) 
-5.8157392816456577

>  <r_i_glide_ecoul>  (1) 
-5.394924401693908

>  <r_i_glide_eff_state_penalty>  (1) 
0.50131139246005263

>  <r_i_glide_einternal>  (1) 
10.506022402133144

>  <r_i_glide_emodel>  (1) 
-39.290407746194937

>  <r_i_glide_emodel_strain>  (1) 
0.4749221314596781

>  <r_i_glide_energy>  (1) 
-34.833075411326703

>  <r_i_glide_erotb>  (1) 
0.6137117962777916

>  <r_i_glide_esite>  (1) 
-0.10000000000000001

>  <r_i_glide_evdw>  (1) 
-29.438151009632797

>  <r_i_glide_gscore>  (1) 
-6.31705067410571

>  <r_i_glide_gscore_strain>  (1) 
0

>  <r_i_glide_hbond>  (1) 
-0.13588124020273348

>  <r_i_glide_ligand_efficiency>  (1) 
-0.20054273384985027

>  <r_i_glide_ligand_efficiency_ln>  (1) 
-1.3316568210731146

>  <r_i_glide_ligand_efficiency_sa>  (1) 
-0.61613081547593374

>  <r_i_glide_lipo>  (1) 
-2.6854614580645046

>  <r_i_glide_metal>  (1) 
-0

>  <r_i_glide_rewards>  (1) 
-1.7282735613805378

>  <r_lp_Energy>  (1) 
44.423873

>  <s_epik_cmdline>  (1) 
J2VwaWtfcHl0aG9uJywgJy1waHQnLCAnMS4wJywgJy1waCcsICc3LjQnLCAnLXRuJywgJzgnLCAnLW1hJywgJzUwMCcsICctaW1hZScsICc8aW5maWxlLm1hZT4nLCAnLW9tYWUnLCAnPG91dGZpbGUubWFlPic=

>  <s_epik_input>  (1) 
TiNDYzFbY0hdW2NIXW5jKGMxMilOM1tDQEhdKFtDSDJdMilbQ0gyXU4oW0NIMl1bQ0gyXTMpW0NIMl1bQ0gyXU9bQ0BIXTRbQ0BASF0oW0NIM10pW0NIMl1bQ0gyXVtDSDJdW0NIMl1bQ0BIXTRPW0NIMl1bQ0gzXQ==

>  <s_glide_docking_method>  (1) 
confgen

>  <s_i_glide_gridfile>  (1) 
gpcr_drd2_6luq_protein_autoprepared_prepared

>  <s_lp_Force_Field>  (1) 
S-OPLS

>  <s_lp_Variant>  (1) 
DiffSBDD_29_num_sample_50-6

>  <s_m_source_file>  (1) 
generated__ligand_DiffSBDD_2026-05-06_prepared.sdf

>  <GenAI_Model>  (1) 
DiffSBDD

>  <Protein>  (1) 
generic_title2

$$$$
DiffSBDD_38_num_sample_50
     RDKit          3D

  0  0  0  0  0  0  0  0  0  0999 V3000
M  V30 BEGIN CTAB
M  V30 COUNTS 60 62 0 0 1
M  V30 BEGIN ATOM
M  V30 1 C 6.648359 2.842595 -19.787716 0
M  V30 2 O 8.956181 2.197353 -19.651784 0
M  V30 3 S 10.081113 4.969292 -16.377875 0
M  V30 4 F 11.454440 6.151703 -7.078599 0
M  V30 5 C 10.199791 7.369274 -10.291320 0 CFG=2
M  V30 6 C 5.126891 4.209043 -21.282046 0
M  V30 7 C 9.403257 5.516906 -8.843267 0
M  V30 8 C 8.634650 5.810627 -13.725017 0
M  V30 9 C 6.261236 4.259014 -20.250793 0 CFG=1
M  V30 10 C 8.421795 4.973328 -16.078871 0
M  V30 11 N 8.086774 3.175573 -17.816279 0
M  V30 12 C 8.831814 5.548669 -11.194325 0
M  V30 13 C 6.391777 5.711292 -14.825630 0
M  V30 14 C 8.005987 2.722459 -19.079294 0
M  V30 15 F 12.092380 7.769615 -8.320235 0
M  V30 16 O 7.534178 6.562333 -18.291683 0
M  V30 17 C 8.151202 5.040284 -12.479068 0 CFG=2
M  V30 18 O 9.676356 6.632278 -11.389781 0
M  V30 19 C 8.554069 3.571462 -12.691447 0
M  V30 20 O 11.031006 8.979834 -6.240629 0
M  V30 21 C 8.680297 5.008559 -9.970116 0
M  V30 22 N 9.034834 8.060714 -6.691672 0
M  V30 23 C 6.609623 5.185339 -12.345387 0
M  V30 24 C 7.012517 5.457216 -18.157458 0
M  V30 25 C 10.351465 8.152558 -6.844717 0
M  V30 26 C 5.835985 5.133378 -19.064118 0
M  V30 27 C 10.150118 6.614398 -8.965415 0
M  V30 28 C 7.488356 4.354565 -17.154420 0 CFG=2
M  V30 29 N 7.836501 5.470262 -14.923676 0
M  V30 30 C 5.842034 4.888099 -13.650909 0
M  V30 31 N 9.434842 8.564116 -10.111466 0
M  V30 32 C 11.010168 7.166877 -7.820472 0
M  V30 33 H 5.871260 2.424769 -19.146491 0
M  V30 34 H 6.691807 2.185916 -20.658052 0
M  V30 35 H 11.233237 7.615832 -10.535267 0
M  V30 36 H 4.234082 3.769353 -20.843695 0
M  V30 37 H 4.869115 5.208046 -21.634979 0
M  V30 38 H 5.401882 3.613988 -22.153850 0
M  V30 39 H 9.365314 4.991771 -7.900678 0
M  V30 40 H 8.478488 6.872561 -13.534575 0
M  V30 41 H 9.710969 5.682595 -13.819145 0
M  V30 42 H 7.122688 4.716622 -20.742526 0
M  V30 43 H 8.955797 2.905822 -17.377354 0
M  V30 44 H 6.258468 6.771727 -14.604729 0
M  V30 45 H 5.803134 5.540206 -15.722265 0
M  V30 46 H 8.175095 3.149935 -13.621994 0
M  V30 47 H 9.637793 3.454268 -12.691671 0
M  V30 48 H 8.167081 2.963116 -11.891671 0
M  V30 49 H 8.027214 4.169301 -9.841710 0
M  V30 50 H 8.557223 8.683346 -6.059942 0
M  V30 51 H 8.506463 7.369451 -7.213357 0
M  V30 52 H 6.233437 4.541462 -11.549451 0
M  V30 53 H 6.378057 6.205772 -12.033925 0
M  V30 54 H 5.052110 4.645384 -18.486643 0
M  V30 55 H 6.634842 3.917170 -16.651745 0
M  V30 56 H 4.784204 5.106633 -13.513540 0
M  V30 57 H 5.902926 3.824896 -13.886014 0
M  V30 58 H 8.456354 8.323507 -9.893303 0
M  V30 59 H 9.765693 9.108852 -9.330326 0
M  V30 60 H 5.418593 6.073193 -19.427218 0
M  V30 END ATOM
M  V30 BEGIN BOND
M  V30 1 1 9 1
M  V30 2 1 9 6
M  V30 3 2 10 3
M  V30 4 1 14 1
M  V30 5 2 14 2
M  V30 6 1 14 11
M  V30 7 1 17 8
M  V30 8 1 17 12
M  V30 9 1 18 5
M  V30 10 1 18 12
M  V30 11 1 17 19 CFG=3
M  V30 12 1 21 7
M  V30 13 2 21 12
M  V30 14 1 23 17
M  V30 15 2 24 16
M  V30 16 2 25 20
M  V30 17 1 25 22
M  V30 18 1 26 9
M  V30 19 1 26 24
M  V30 20 1 27 5
M  V30 21 2 27 7
M  V30 22 1 28 10
M  V30 23 1 28 11
M  V30 24 1 28 24
M  V30 25 1 29 8
M  V30 26 1 29 10
M  V30 27 1 29 13
M  V30 28 1 30 13
M  V30 29 1 30 23
M  V30 30 1 31 5
M  V30 31 1 32 4
M  V30 32 1 32 15
M  V30 33 1 32 25
M  V30 34 1 32 27
M  V30 35 1 33 1
M  V30 36 1 34 1
M  V30 37 1 5 35 CFG=3
M  V30 38 1 36 6
M  V30 39 1 37 6
M  V30 40 1 38 6
M  V30 41 1 39 7
M  V30 42 1 40 8
M  V30 43 1 41 8
M  V30 44 1 9 42 CFG=3
M  V30 45 1 43 11
M  V30 46 1 44 13
M  V30 47 1 45 13
M  V30 48 1 46 19
M  V30 49 1 47 19
M  V30 50 1 48 19
M  V30 51 1 49 21
M  V30 52 1 50 22
M  V30 53 1 51 22
M  V30 54 1 52 23
M  V30 55 1 53 23
M  V30 56 1 54 26
M  V30 57 1 28 55 CFG=1
M  V30 58 1 56 30
M  V30 59 1 57 30
M  V30 60 1 58 31
M  V30 61 1 59 31
M  V30 62 1 60 26
M  V30 END BOND
M  V30 END CTAB
M  END
>  <i_epik_Tot_Q>  (1) 
0

>  <i_epik_Tot_abs_Q>  (1) 
0

>  <i_i_glide_confnum>  (1) 
32

>  <i_i_glide_lignum>  (1) 
94

>  <i_i_glide_posenum>  (1) 
55

>  <i_i_glide_rotatable_bonds>  (1) 
5

>  <i_lp_mmshare_version>  (1) 
72125

>  <i_m_source_file_index>  (1) 
39

>  <i_f3d_flags>  (1) 
0

>  <num_sample>  (1) 
50

>  <b_lp_Chiralities_Consistent>  (1) 
1

>  <r_epik_Charging_Adjusted_Penalty>  (1) 
0.0043173356697657605

>  <r_epik_Ionization_Penalty>  (1) 
2.5101429145755949

>  <r_epik_Ionization_Penalty_Charging>  (1) 
0

>  <r_epik_Ionization_Penalty_Neutral>  (1) 
2.5101429145755949

>  <r_epik_State_Penalty>  (1) 
0.0043173356697657605

>  <r_glide_ring_energy>  (1) 
0.024453031346126263

>  <r_i_docking_score>  (1) 
-5.8153657867685178

>  <r_i_glide_ecoul>  (1) 
-5.2580925402343475

>  <r_i_glide_eff_state_penalty>  (1) 
0.0043173356697657605

>  <r_i_glide_einternal>  (1) 
3.9981452951705876

>  <r_i_glide_emodel>  (1) 
-53.745036234669044

>  <r_i_glide_emodel_strain>  (1) 
0.2017439111496202

>  <r_i_glide_energy>  (1) 
-42.440468404789002

>  <r_i_glide_erotb>  (1) 
0.36503894659470715

>  <r_i_glide_esite>  (1) 
-0.13317423174098408

>  <r_i_glide_evdw>  (1) 
-37.182375864554658

>  <r_i_glide_gscore>  (1) 
-5.8196831224382839

>  <r_i_glide_gscore_strain>  (1) 
0

>  <r_i_glide_hbond>  (1) 
-0.19200783473007815

>  <r_i_glide_ligand_efficiency>  (1) 
-0.18173018083651618

>  <r_i_glide_ligand_efficiency_ln>  (1) 
-1.3022189205417769

>  <r_i_glide_ligand_efficiency_sa>  (1) 
-0.57695736046851387

>  <r_i_glide_lipo>  (1) 
-1.0749806064445613

>  <r_i_glide_metal>  (1) 
-0

>  <r_i_glide_rewards>  (1) 
-2.1367267218544832

>  <r_lp_Energy>  (1) 
67.478093000000001

>  <r_lp_tautomer_probability>  (1) 
0.99999998000000001

>  <s_epik_Chemistry_Notes>  (1) 
This compound contains an acetal/aminal-like group ( X-CH(R)-Y where X, Y are N, S, or O) that may be acid/base labile, releasing an aldehyde.

>  <s_epik_cmdline>  (1) 
J2VwaWtfcHl0aG9uJywgJy1waHQnLCAnMS4wJywgJy1waCcsICc3LjQnLCAnLXRuJywgJzgnLCAnLW1hJywgJzUwMCcsICctaW1hZScsICc8aW5maWxlLm1hZT4nLCAnLW9tYWUnLCAnPG91dGZpbGUubWFlPic=

>  <s_epik_input>  (1) 
W0NIM11bQ0BASF0xW0NIMl1DKD1PKVtOSF1bQ0BIXShDKD1PKVtDSDJdMSlDKD1TKU4oW0NIMl1bQ0gyXVtDSDJdMilbQ0gyXVtDQEBdMihbQ0gzXSlDKE9bQ0BASF0zW05IMl0pPVtDSF1bQ0hdPUMzQyhGKShGKUMoPU8pW05IMl0=

>  <s_glide_docking_method>  (1) 
confgen

>  <s_i_glide_gridfile>  (1) 
gpcr_drd2_6luq_protein_autoprepared_prepared

>  <s_lp_Force_Field>  (1) 
S-OPLS

>  <s_lp_Variant>  (1) 
DiffSBDD_38_num_sample_50-2

>  <s_m_source_file>  (1) 
generated__ligand_DiffSBDD_2026-05-06_prepared.sdf

>  <GenAI_Model>  (1) 
DiffSBDD

>  <Protein>  (1) 
generic_title2

$$$$
DiffSBDD_15_num_sample_50
     RDKit          3D

  0  0  0  0  0  0  0  0  0  0999 V3000
M  V30 BEGIN CTAB
M  V30 COUNTS 104 108 0 0 1
M  V30 BEGIN ATOM
M  V30 1 N 11.499762 7.466972 -10.537386 0
M  V30 2 C 7.248976 4.130852 -16.276140 0
M  V30 3 C 10.892322 3.489875 -17.604104 0 CFG=1
M  V30 4 C 13.295937 4.145992 -18.132230 0
M  V30 5 O 10.023003 2.191246 -19.403310 0
M  V30 6 C 11.392241 7.594882 -6.080726 0 CFG=1
M  V30 7 C 16.701623 5.289194 -19.603067 0
M  V30 8 O 9.767830 8.753389 -7.362666 0
M  V30 9 C 11.792225 6.969777 -11.879974 0
M  V30 10 O 13.435391 8.569335 -10.397926 0
M  V30 11 C 5.560517 6.878072 -12.516973 0
M  V30 12 C 10.229888 1.064932 -20.233193 0
M  V30 13 C 10.183030 7.154015 -10.021090 0 CFG=1
M  V30 14 C 11.535803 4.796525 -19.698150 0
M  V30 15 O 9.730252 1.423399 -17.228311 0
M  V30 16 C 11.987778 8.737546 -8.451577 0 CFG=1
M  V30 17 C 12.496585 5.395689 -20.532251 0
M  V30 18 C 10.315860 6.754815 -8.501480 0 CFG=2
M  V30 19 F 5.034903 8.169450 -15.097290 0
M  V30 20 C 6.242790 7.680635 -15.283102 0
M  V30 21 C 5.749346 4.455920 -13.073117 0
M  V30 22 O 11.034841 9.251428 -4.291665 0
M  V30 23 C 13.395182 9.769237 -6.542191 0
M  V30 24 C 8.189356 5.867541 -11.388438 0
M  V30 25 C 11.802863 8.788464 -5.088012 0
M  V30 26 C 7.398003 5.584754 -15.824304 0
M  V30 27 O 16.116743 4.219750 -17.525828 0
M  V30 28 C 15.709448 4.699416 -18.586126 0
M  V30 29 O 9.072116 6.222177 -8.073628 0
M  V30 30 O 9.434816 8.338708 -10.141025 0
M  V30 31 C 13.323928 8.791423 -7.711890 0
M  V30 32 C 14.263239 4.742509 -18.973307 0
M  V30 33 C 12.364624 8.245874 -9.891981 0
M  V30 34 C 6.343490 5.849757 -13.368723 0
M  V30 35 C 10.392981 6.701879 -5.354190 0
M  V30 36 C 7.813064 5.901532 -12.896690 0
M  V30 37 C 13.181073 9.339608 -5.151175 0
M  V30 38 C 6.269077 6.175152 -14.934322 0 CFG=1
M  V30 39 C 10.577621 2.074230 -18.128902 0 CFG=2
M  V30 40 C 8.611110 3.468454 -16.506385 0 CFG=2
M  V30 41 C 10.902426 7.936807 -7.591102 0 CFG=1
M  V30 42 C 18.169361 4.932520 -19.320886 0
M  V30 43 C 10.432035 6.649115 -12.373454 0
M  V30 44 C 11.931725 4.168076 -18.496039 0
M  V30 45 C 9.560947 4.254941 -17.441605 0
M  V30 46 C 8.456391 2.036021 -17.047391 0
M  V30 47 C 13.857504 5.369730 -20.176106 0
M  V30 48 C 9.698594 6.131635 -11.122719 0 CFG=1
M  V30 49 H 6.704305 3.551608 -15.536315 0
M  V30 50 H 6.652383 4.096661 -17.187324 0
M  V30 51 H 11.340462 3.376806 -16.617440 0
M  V30 52 H 13.601673 3.663175 -17.214857 0
M  V30 53 H 12.233541 6.909924 -6.170154 0
M  V30 54 H 16.456757 4.904292 -20.593501 0
M  V30 55 H 16.577910 6.374467 -19.634424 0
M  V30 56 H 9.970963 9.380546 -6.687562 0
M  V30 57 H 12.351786 7.643086 -12.533230 0
M  V30 58 H 12.323637 6.035889 -11.891935 0
M  V30 59 H 4.635136 7.185511 -12.981798 0
M  V30 60 H 5.306484 6.489732 -11.529254 0
M  V30 61 H 6.139345 7.784542 -12.347736 0
M  V30 62 H 9.714308 1.221190 -21.180866 0
M  V30 63 H 11.291520 0.937383 -20.450677 0
M  V30 64 H 9.845632 0.152590 -19.776751 0
M  V30 65 H 10.497012 4.810084 -19.985360 0
M  V30 66 H 11.634121 9.754876 -8.610424 0
M  V30 67 H 12.189184 5.870154 -21.452281 0
M  V30 68 H 11.012010 5.921201 -8.446932 0
M  V30 69 H 6.947921 8.264524 -14.696754 0
M  V30 70 H 6.430160 7.890481 -16.336382 0
M  V30 71 H 4.764700 4.340451 -13.524997 0
M  V30 72 H 6.386855 3.649900 -13.429109 0
M  V30 73 H 5.628824 4.292889 -12.002104 0
M  V30 74 H 14.385880 10.169358 -6.534014 0
M  V30 75 H 12.658589 10.568788 -6.683872 0
M  V30 76 H 7.918140 4.910411 -10.953263 0
M  V30 77 H 7.593058 6.569010 -10.841594 0
M  V30 78 H 7.463105 6.136503 -16.761649 0
M  V30 79 H 8.372196 5.766341 -15.377115 0
M  V30 80 H 8.421912 6.917842 -8.100493 0
M  V30 81 H 8.520827 8.159981 -9.891666 0
M  V30 82 H 13.493919 7.755807 -7.492247 0
M  V30 83 H 14.188381 9.068301 -8.311672 0
M  V30 84 H 10.657949 6.471729 -4.324295 0
M  V30 85 H 9.433280 7.180062 -5.366220 0
M  V30 86 H 10.280435 5.769300 -5.885066 0
M  V30 87 H 8.166743 6.838409 -13.317280 0
M  V30 88 H 8.372483 5.096355 -13.367786 0
M  V30 89 H 13.912615 8.678074 -4.691669 0
M  V30 90 H 13.218515 10.169488 -4.467808 0
M  V30 91 H 5.330833 5.771549 -15.317927 0
M  V30 92 H 11.504601 1.498040 -18.172770 0
M  V30 93 H 9.034811 3.414955 -15.508736 0
M  V30 94 H 18.810754 5.285068 -20.129047 0
M  V30 95 H 18.520490 5.388352 -18.394876 0
M  V30 96 H 18.303349 3.853889 -19.249917 0
M  V30 97 H 9.994373 7.595818 -12.692112 0
M  V30 98 H 10.474006 5.945678 -13.201625 0
M  V30 99 H 9.066873 4.405518 -18.400313 0
M  V30 100 H 9.780566 5.247298 -17.051141 0
M  V30 101 H 7.883630 1.433656 -16.342097 0
M  V30 102 H 7.904502 2.030395 -17.988251 0
M  V30 103 H 14.583049 5.831352 -20.828145 0
M  V30 104 H 10.117635 5.154451 -10.898257 0
M  V30 END ATOM
M  V30 BEGIN BOND
M  V30 1 1 9 1
M  V30 2 1 12 5
M  V30 3 1 13 1
M  V30 4 1 17 14
M  V30 5 1 18 13
M  V30 6 1 20 19
M  V30 7 1 25 6
M  V30 8 2 25 22
M  V30 9 1 26 2
M  V30 10 1 28 7
M  V30 11 2 28 27
M  V30 12 1 29 18
M  V30 13 1 13 30 CFG=1
M  V30 14 1 31 16
M  V30 15 1 31 23
M  V30 16 2 32 4
M  V30 17 1 32 28
M  V30 18 1 33 1
M  V30 19 2 33 10
M  V30 20 1 33 16
M  V30 21 1 34 11
M  V30 22 1 34 21
M  V30 23 1 35 6
M  V30 24 1 36 24
M  V30 25 1 36 34
M  V30 26 1 37 23
M  V30 27 1 37 25
M  V30 28 1 38 20
M  V30 29 1 38 26
M  V30 30 1 38 34
M  V30 31 1 39 3
M  V30 32 1 39 5
M  V30 33 1 39 15
M  V30 34 1 40 2
M  V30 35 1 41 6
M  V30 36 1 41 8 CFG=1
M  V30 37 1 41 16
M  V30 38 1 41 18
M  V30 39 1 42 7
M  V30 40 1 43 9
M  V30 41 1 44 3
M  V30 42 1 44 4
M  V30 43 2 44 14
M  V30 44 1 45 3
M  V30 45 1 45 40
M  V30 46 1 46 15
M  V30 47 1 46 40
M  V30 48 2 47 17
M  V30 49 1 47 32
M  V30 50 1 48 13
M  V30 51 1 48 24
M  V30 52 1 48 43
M  V30 53 1 49 2
M  V30 54 1 50 2
M  V30 55 1 3 51 CFG=1
M  V30 56 1 52 4
M  V30 57 1 6 53 CFG=3
M  V30 58 1 54 7
M  V30 59 1 55 7
M  V30 60 1 56 8
M  V30 61 1 57 9
M  V30 62 1 58 9
M  V30 63 1 59 11
M  V30 64 1 60 11
M  V30 65 1 61 11
M  V30 66 1 62 12
M  V30 67 1 63 12
M  V30 68 1 64 12
M  V30 69 1 65 14
M  V30 70 1 16 66 CFG=3
M  V30 71 1 67 17
M  V30 72 1 18 68 CFG=3
M  V30 73 1 69 20
M  V30 74 1 70 20
M  V30 75 1 71 21
M  V30 76 1 72 21
M  V30 77 1 73 21
M  V30 78 1 74 23
M  V30 79 1 75 23
M  V30 80 1 76 24
M  V30 81 1 77 24
M  V30 82 1 78 26
M  V30 83 1 79 26
M  V30 84 1 80 29
M  V30 85 1 81 30
M  V30 86 1 82 31
M  V30 87 1 83 31
M  V30 88 1 84 35
M  V30 89 1 85 35
M  V30 90 1 86 35
M  V30 91 1 87 36
M  V30 92 1 88 36
M  V30 93 1 89 37
M  V30 94 1 90 37
M  V30 95 1 38 91 CFG=3
M  V30 96 1 39 92 CFG=3
M  V30 97 1 40 93 CFG=1
M  V30 98 1 94 42
M  V30 99 1 95 42
M  V30 100 1 96 42
M  V30 101 1 97 43
M  V30 102 1 98 43
M  V30 103 1 99 45
M  V30 104 1 100 45
M  V30 105 1 101 46
M  V30 106 1 102 46
M  V30 107 1 103 47
M  V30 108 1 48 104 CFG=1
M  V30 END BOND
M  V30 END CTAB
M  END
>  <i_epik_Tot_Q>  (1) 
0

>  <i_epik_Tot_abs_Q>  (1) 
0

>  <i_i_glide_confnum>  (1) 
3003

>  <i_i_glide_lignum>  (1) 
52

>  <i_i_glide_posenum>  (1) 
64

>  <i_i_glide_rotatable_bonds>  (1) 
15

>  <i_lp_mmshare_version>  (1) 
72125

>  <i_m_source_file_index>  (1) 
16

>  <i_f3d_flags>  (1) 
0

>  <num_sample>  (1) 
50

>  <b_lp_Chiralities_Consistent>  (1) 
1

>  <r_epik_Charging_Adjusted_Penalty>  (1) 
0

>  <r_epik_Ionization_Penalty>  (1) 
3.3580720903009909e-06

>  <r_epik_Ionization_Penalty_Charging>  (1) 
0

>  <r_epik_Ionization_Penalty_Neutral>  (1) 
3.3580720903009909e-06

>  <r_epik_State_Penalty>  (1) 
-0

>  <r_glide_ring_energy>  (1) 
0

>  <r_i_docking_score>  (1) 
-5.7987196240070178

>  <r_i_glide_ecoul>  (1) 
-9.0707991222283706

>  <r_i_glide_eff_state_penalty>  (1) 
-0

>  <r_i_glide_einternal>  (1) 
60.891283984716409

>  <r_i_glide_emodel>  (1) 
16.127343676242752

>  <r_i_glide_emodel_strain>  (1) 
7.5076842622271016

>  <r_i_glide_energy>  (1) 
-14.2303636793319

>  <r_i_glide_erotb>  (1) 
0.25945655678467749

>  <r_i_glide_esite>  (1) 
-0.067468535274031738

>  <r_i_glide_evdw>  (1) 
-5.1595645571035291

>  <r_i_glide_gscore>  (1) 
-5.7987196240070178

>  <r_i_glide_gscore_strain>  (1) 
0.8769210655567754

>  <r_i_glide_hbond>  (1) 
-0.54283863428505474

>  <r_i_glide_ligand_efficiency>  (1) 
-0.12080665883347953

>  <r_i_glide_ligand_efficiency_ln>  (1) 
-1.1904086099140994

>  <r_i_glide_ligand_efficiency_sa>  (1) 
-0.4390405350351248

>  <r_i_glide_lipo>  (1) 
-2.9300884586361731

>  <r_i_glide_metal>  (1) 
-0

>  <r_i_glide_rewards>  (1) 
-1.7761035219637793

>  <r_lp_Energy>  (1) 
45.559846

>  <r_lp_tautomer_probability>  (1) 
1

>  <s_epik_Chemistry_Notes>  (1) 
This compound contains an acetal/aminal-like group ( X-CH(R)-Y where X, Y are N, S, or O) that may be acid/base labile, releasing an aldehyde.

>  <s_epik_cmdline>  (1) 
J2VwaWtfcHl0aG9uJywgJy1waHQnLCAnMS4wJywgJy1waCcsICc3LjQnLCAnLXRuJywgJzgnLCAnLW1hJywgJzUwMCcsICctaW1hZScsICc8aW5maWxlLm1hZT4nLCAnLW9tYWUnLCAnPG91dGZpbGUubWFlPic=

>  <s_epik_input>  (1) 
W0NIMl0xW0NIMl1bQ0gyXUMoPU8pW0NAQEhdKFtDSDNdKVtDQF0oW09IXSkoW0NASF0yW09IXSlbQ0BASF0xQyg9TylOKFtDQF0yM1tPSF0pW0NIMl1bQ0gyXVtDQEBIXTNbQ0gyXVtDSDJdQyhbQ0gzXSkoW0NIM10pW0NAQEhdKFtDSDJdRilbQ0gyXVtDSDJdW0NASF0oW0NIMl00KVtDSDJdT1tDQEBIXShPW0NIM10pW0NASF00YyhbY0hdW2NIXVtjSF01KVtjSF1jNUMoPU8pW0NIMl1bQ0gzXQ==

>  <s_glide_docking_method>  (1) 
confgen

>  <s_i_glide_gridfile>  (1) 
gpcr_drd2_6luq_protein_autoprepared_prepared

>  <s_lp_Force_Field>  (1) 
S-OPLS

>  <s_lp_Variant>  (1) 
DiffSBDD_15_num_sample_50-1

>  <s_m_source_file>  (1) 
generated__ligand_DiffSBDD_2026-05-06_prepared.sdf

>  <GenAI_Model>  (1) 
DiffSBDD

>  <Protein>  (1) 
generic_title2

$$$$
DiffSBDD_5_num_sample_50
     RDKit          3D

  0  0  0  0  0  0  0  0  0  0999 V3000
M  V30 BEGIN CTAB
M  V30 COUNTS 55 58 0 0 1
M  V30 BEGIN ATOM
M  V30 1 C 7.829303 4.452723 -12.171696 0 CFG=1
M  V30 2 C 6.045387 6.772223 -20.096779 0
M  V30 3 C 9.042368 3.566494 -12.304211 0
M  V30 4 O 7.834992 6.728907 -12.963600 0
M  V30 5 C 5.504061 6.766035 -16.225277 0 CFG=1
M  V30 6 O 6.009123 5.110168 -10.691678 0
M  V30 7 C 7.375163 4.753631 -10.738034 0 CFG=2
M  V30 8 C 8.377357 5.962454 -20.722801 0
M  V30 9 C 6.899358 6.547690 -15.688957 0 CFG=1
M  V30 10 O 10.234218 7.606719 -6.455108 0
M  V30 11 C 9.641897 6.494523 -8.205701 0
M  V30 12 C 4.879250 8.134241 -16.113922 0
M  V30 13 N 9.434842 6.795876 -6.877201 0
M  V30 14 C 7.640973 5.537858 -13.208840 0
M  V30 15 N 8.234896 5.769298 -10.115366 0
M  V30 16 C 5.812221 5.465188 -19.343801 0
M  V30 17 C 6.458908 9.190851 -21.491693 0
M  V30 18 O 7.743965 3.107391 -12.689344 0
M  V30 19 C 7.272538 7.005136 -20.762901 0
M  V30 20 C 5.241552 8.962683 -20.822817 0
M  V30 21 C 8.663128 5.446536 -8.750108 0
M  V30 22 C 5.034676 7.756581 -20.126503 0
M  V30 23 C 8.944806 5.763601 -19.305779 0
M  V30 24 C 7.473704 8.215424 -21.461776 0
M  V30 25 C 6.682004 5.283138 -18.080783 0 CFG=1
M  V30 26 C 8.115182 4.819135 -18.416170 0
M  V30 27 S 7.105453 4.953681 -14.847779 0
M  V30 28 O 10.509781 6.978653 -8.938352 0
M  V30 29 C 6.647679 6.510111 -17.183919 0 CFG=1
M  V30 30 H 9.750169 3.769303 -13.099390 0
M  V30 31 H 9.434854 3.079353 -11.415395 0
M  V30 32 H 4.798877 5.951941 -16.072812 0
M  V30 33 H 5.690942 4.969534 -9.805701 0
M  V30 34 H 7.439477 3.825092 -10.178679 0
M  V30 35 H 8.019194 5.020976 -21.140179 0
M  V30 36 H 9.184326 6.286574 -21.381151 0
M  V30 37 H 7.434643 7.386190 -15.253302 0
M  V30 38 H 5.566515 8.903352 -16.466530 0
M  V30 39 H 3.965246 8.169299 -16.706056 0
M  V30 40 H 4.634837 8.347853 -15.075481 0
M  V30 41 H 7.704603 6.659309 -10.044595 0
M  V30 42 H 5.942625 4.623153 -20.024035 0
M  V30 43 H 4.763683 5.428938 -19.050816 0
M  V30 44 H 6.616180 10.116057 -22.026153 0
M  V30 45 H 4.465420 9.713794 -20.843004 0
M  V30 46 H 7.798059 5.372934 -8.089799 0
M  V30 47 H 9.172961 4.483728 -8.728054 0
M  V30 48 H 4.101492 7.587277 -19.612872 0
M  V30 49 H 9.936153 5.319470 -19.402538 0
M  V30 50 H 9.102554 6.727201 -18.819661 0
M  V30 51 H 8.408701 8.396458 -21.972582 0
M  V30 52 H 6.237643 4.467166 -17.523931 0
M  V30 53 H 8.658202 4.657072 -17.484133 0
M  V30 54 H 8.065792 3.840806 -18.895648 0
M  V30 55 H 7.034832 7.369298 -17.706451 0
M  V30 END ATOM
M  V30 BEGIN BOND
M  V30 1 1 3 1
M  V30 2 1 7 1
M  V30 3 1 7 6
M  V30 4 1 9 5
M  V30 5 1 12 5
M  V30 6 2 13 10
M  V30 7 1 13 11
M  V30 8 1 1 14 CFG=3
M  V30 9 2 14 4
M  V30 10 1 15 7
M  V30 11 1 16 2
M  V30 12 1 18 1
M  V30 13 1 18 3
M  V30 14 1 19 2
M  V30 15 1 19 8
M  V30 16 2 20 17
M  V30 17 1 21 11
M  V30 18 1 21 15
M  V30 19 2 22 2
M  V30 20 1 22 20
M  V30 21 1 23 8
M  V30 22 1 24 17
M  V30 23 2 24 19
M  V30 24 1 25 16
M  V30 25 1 26 23
M  V30 26 1 26 25
M  V30 27 1 27 9
M  V30 28 1 27 14
M  V30 29 2 28 11
M  V30 30 1 29 5
M  V30 31 1 29 9
M  V30 32 1 29 25
M  V30 33 1 30 3
M  V30 34 1 31 3
M  V30 35 1 5 32 CFG=1
M  V30 36 1 33 6
M  V30 37 1 7 34 CFG=1
M  V30 38 1 35 8
M  V30 39 1 36 8
M  V30 40 1 9 37 CFG=3
M  V30 41 1 38 12
M  V30 42 1 39 12
M  V30 43 1 40 12
M  V30 44 1 41 15
M  V30 45 1 42 16
M  V30 46 1 43 16
M  V30 47 1 44 17
M  V30 48 1 45 20
M  V30 49 1 46 21
M  V30 50 1 47 21
M  V30 51 1 48 22
M  V30 52 1 49 23
M  V30 53 1 50 23
M  V30 54 1 51 24
M  V30 55 1 25 52 CFG=1
M  V30 56 1 53 26
M  V30 57 1 54 26
M  V30 58 1 29 55 CFG=3
M  V30 END BOND
M  V30 END CTAB
M  END
>  <i_epik_Tot_Q>  (1) 
0

>  <i_epik_Tot_abs_Q>  (1) 
0

>  <i_i_glide_confnum>  (1) 
208

>  <i_i_glide_lignum>  (1) 
14

>  <i_i_glide_posenum>  (1) 
68

>  <i_i_glide_rotatable_bonds>  (1) 
10

>  <i_lp_mmshare_version>  (1) 
72125

>  <i_m_source_file_index>  (1) 
6

>  <i_f3d_flags>  (1) 
0

>  <num_sample>  (1) 
50

>  <b_lp_Chiralities_Consistent>  (1) 
1

>  <r_epik_Charging_Adjusted_Penalty>  (1) 
0

>  <r_epik_Ionization_Penalty>  (1) 
0.00033857845250697777

>  <r_epik_Ionization_Penalty_Charging>  (1) 
0

>  <r_epik_Ionization_Penalty_Neutral>  (1) 
0.00033857845250697777

>  <r_epik_State_Penalty>  (1) 
-0

>  <r_glide_ring_energy>  (1) 
0

>  <r_i_docking_score>  (1) 
-5.7945285816762455

>  <r_i_glide_ecoul>  (1) 
-8.6573081951521615

>  <r_i_glide_eff_state_penalty>  (1) 
-0

>  <r_i_glide_einternal>  (1) 
7.4274293564216567

>  <r_i_glide_emodel>  (1) 
-45.784892421676396

>  <r_i_glide_emodel_strain>  (1) 
2.7019424928963716

>  <r_i_glide_energy>  (1) 
-39.606993503456977

>  <r_i_glide_erotb>  (1) 
0.90319655978703284

>  <r_i_glide_esite>  (1) 
-0.15701959941486604

>  <r_i_glide_evdw>  (1) 
-30.949685308304815

>  <r_i_glide_gscore>  (1) 
-5.7945285816762455

>  <r_i_glide_gscore_strain>  (1) 
0

>  <r_i_glide_hbond>  (1) 
-0.45599999999999996

>  <r_i_glide_ligand_efficiency>  (1) 
-0.19981133040262916

>  <r_i_glide_ligand_efficiency_ln>  (1) 
-1.3268001086370627

>  <r_i_glide_ligand_efficiency_sa>  (1) 
-0.61388371235867178

>  <r_i_glide_lipo>  (1) 
-2.2525402389989839

>  <r_i_glide_metal>  (1) 
-0

>  <r_i_glide_rewards>  (1) 
-0.98608480836136336

>  <r_lp_Energy>  (1) 
19.075084

>  <r_lp_tautomer_probability>  (1) 
1

>  <s_epik_Chemistry_Notes>  (1) 
This compound contains an acetal/aminal-like group ( X-CH(R)-Y where X, Y are N, S, or O) that may be acid/base labile, releasing an aldehyde.

>  <s_epik_cmdline>  (1) 
J2VwaWtfcHl0aG9uJywgJy1waHQnLCAnMS4wJywgJy1waCcsICc3LjQnLCAnLXRuJywgJzgnLCAnLW1hJywgJzUwMCcsICctaW1hZScsICc8aW5maWxlLm1hZT4nLCAnLW9tYWUnLCAnPG91dGZpbGUubWFlPic=

>  <s_epik_input>  (1) 
Tz1OQyg9TylbQ0gyXVtOSF1bQ0BASF0oW09IXSlbQ0BdMShbQ0gyXU8xKUMoPU8pU1tDSF0oW0NASF0yW0NIM10pW0NIXTJbQ0BASF0oW0NIMl0zKVtDSDJdW0NIMl1bQ0gyXWMoYzM0KVtjSF1bY0hdW2NIXVtjSF00

>  <s_glide_docking_method>  (1) 
confgen

>  <s_i_glide_gridfile>  (1) 
gpcr_drd2_6luq_protein_autoprepared_prepared

>  <s_lp_Force_Field>  (1) 
S-OPLS

>  <s_lp_Variant>  (1) 
DiffSBDD_5_num_sample_50-1

>  <s_m_source_file>  (1) 
generated__ligand_DiffSBDD_2026-05-06_prepared.sdf

>  <GenAI_Model>  (1) 
DiffSBDD

>  <Protein>  (1) 
generic_title2

$$$$
DiffSBDD_10_num_sample_50
     RDKit          3D

  0  0  0  0  0  0  0  0  0  0999 V3000
M  V30 BEGIN CTAB
M  V30 COUNTS 72 73 0 0 1
M  V30 BEGIN ATOM
M  V30 1 C 6.741510 5.653939 -17.509930 0 CFG=2
M  V30 2 C 7.596953 3.768855 -11.946173 0
M  V30 3 C 7.139585 0.367957 -14.756090 0
M  V30 4 C 8.238085 0.545926 -18.425713 0 CFG=1
M  V30 5 C 6.759309 4.806167 -18.806545 0 CFG=2
M  V30 6 N 5.419356 4.170161 -12.896333 0
M  V30 7 N 9.161491 2.605199 -19.193998 0
M  V30 8 C 7.758974 2.678374 -19.440180 0 CFG=1
M  V30 9 S 5.311675 6.874099 -17.498938 0
M  V30 10 C 7.466200 4.763695 -10.814634 0
M  V30 11 S 5.834740 8.118952 -15.891777 0 CHG=-1
M  V30 12 C 8.142499 5.702765 -15.290455 0
M  V30 13 O 9.432422 6.742915 -7.066491 0
M  V30 14 O 5.318372 7.696244 -18.718656 0
M  V30 15 C 7.779264 5.906574 -18.592805 0 CFG=2
M  V30 16 C 6.541659 0.698756 -12.291634 0
M  V30 17 C 9.358961 1.586700 -18.177671 0 CFG=2
M  V30 18 N 8.634836 5.831057 -8.931283 0 CHG=1
M  V30 19 N 6.807733 2.584705 -13.866775 0
M  V30 20 C 8.823436 5.137759 -10.216256 0
M  V30 21 C 5.709068 1.204416 -18.966807 0
M  V30 22 C 7.035972 5.035159 -16.129672 0
M  V30 23 C 5.680631 4.869681 -19.888669 0
M  V30 24 C 7.694851 -0.166951 -17.162225 0
M  V30 25 C 6.825263 1.316728 -13.664670 0
M  V30 26 O 9.075556 5.410077 -18.319986 0
M  V30 27 C 6.636101 3.529355 -12.857945 0
M  V30 28 O 4.089235 6.169523 -17.091515 0
M  V30 29 F 10.576696 1.056455 -18.282492 0
M  V30 30 N 5.434863 -0.230641 -12.291815 0
M  V30 31 C 9.879335 6.356348 -8.345127 0
M  V30 32 C 7.206977 1.253246 -19.336125 0 CFG=2
M  V30 33 O 7.129039 3.464814 -18.471622 0
M  V30 34 C 7.353508 0.772506 -16.021293 0
M  V30 35 H 8.526975 3.219129 -11.999395 0
M  V30 36 H 7.191425 -0.672527 -14.481565 0
M  V30 37 H 8.671053 -0.243505 -19.042933 0
M  V30 38 H 5.208110 4.937537 -12.274684 0
M  V30 39 H 9.537710 3.504602 -18.913143 0
M  V30 40 H 7.598531 3.086738 -20.435595 0
M  V30 41 H 6.849136 4.290645 -10.049821 0
M  V30 42 H 6.933663 5.656686 -11.144458 0
M  V30 43 H 8.332471 5.125385 -14.387928 0
M  V30 44 H 9.090089 5.769212 -15.818527 0
M  V30 45 H 7.871650 6.700600 -14.960321 0
M  V30 46 H 8.923817 7.540486 -7.137038 0
M  V30 47 H 7.746305 6.808683 -19.200621 0
M  V30 48 H 7.437376 0.209004 -11.916023 0
M  V30 49 H 6.234766 1.451725 -11.573382 0
M  V30 50 H 9.290498 2.053834 -17.195607 0
M  V30 51 H 8.191173 5.206052 -8.275652 0
M  V30 52 H 9.369836 5.778334 -10.910050 0
M  V30 53 H 9.434010 4.248006 -10.050318 0
M  V30 54 H 5.509952 1.607191 -17.974142 0
M  V30 55 H 5.116440 1.780795 -19.677520 0
M  V30 56 H 5.334247 0.181419 -18.990155 0
M  V30 57 H 6.111488 5.027093 -15.553903 0
M  V30 58 H 7.310342 3.991907 -16.235258 0
M  V30 59 H 5.571050 5.875982 -20.284630 0
M  V30 60 H 5.917458 4.239156 -20.741530 0
M  V30 61 H 4.723735 4.538842 -19.491399 0
M  V30 62 H 8.445301 -0.868444 -16.795311 0
M  V30 63 H 6.821128 -0.771762 -17.405184 0
M  V30 64 H 9.058428 5.070081 -17.436977 0
M  V30 65 H 5.548975 -1.067402 -12.875068 0
M  V30 66 H 5.266284 -0.577459 -11.357487 0
M  V30 67 H 10.280618 7.200129 -8.908384 0
M  V30 68 H 10.632280 5.573463 -8.256560 0
M  V30 69 H 7.307203 0.822173 -20.333632 0
M  V30 70 H 7.286169 1.820023 -16.266780 0
M  V30 71 H 4.768946 4.018844 -13.653866 0
M  V30 72 H 7.997880 6.621964 -9.091754 0
M  V30 END ATOM
M  V30 BEGIN BOND
M  V30 1 1 5 1
M  V30 2 1 8 7
M  V30 3 1 9 1
M  V30 4 1 10 2
M  V30 5 1 11 9
M  V30 6 2 14 9
M  V30 7 1 15 1
M  V30 8 1 15 5
M  V30 9 1 17 4
M  V30 10 1 17 7
M  V30 11 1 20 10
M  V30 12 1 20 18
M  V30 13 1 1 22 CFG=1
M  V30 14 1 22 12
M  V30 15 1 23 5
M  V30 16 1 24 4
M  V30 17 1 25 3
M  V30 18 1 25 16
M  V30 19 2 25 19
M  V30 20 1 26 15
M  V30 21 2 27 2
M  V30 22 1 27 6
M  V30 23 1 27 19
M  V30 24 2 28 9
M  V30 25 1 29 17
M  V30 26 1 30 16
M  V30 27 1 31 13
M  V30 28 1 31 18
M  V30 29 1 32 4
M  V30 30 1 32 8
M  V30 31 1 32 21
M  V30 32 1 5 33 CFG=1
M  V30 33 1 33 8
M  V30 34 2 34 3
M  V30 35 1 34 24
M  V30 36 1 35 2
M  V30 37 1 36 3
M  V30 38 1 4 37 CFG=3
M  V30 39 1 38 6
M  V30 40 1 39 7
M  V30 41 1 8 40 CFG=3
M  V30 42 1 41 10
M  V30 43 1 42 10
M  V30 44 1 43 12
M  V30 45 1 44 12
M  V30 46 1 45 12
M  V30 47 1 46 13
M  V30 48 1 15 47 CFG=3
M  V30 49 1 48 16
M  V30 50 1 49 16
M  V30 51 1 17 50 CFG=1
M  V30 52 1 51 18
M  V30 53 1 52 20
M  V30 54 1 53 20
M  V30 55 1 54 21
M  V30 56 1 55 21
M  V30 57 1 56 21
M  V30 58 1 57 22
M  V30 59 1 58 22
M  V30 60 1 59 23
M  V30 61 1 60 23
M  V30 62 1 61 23
M  V30 63 1 62 24
M  V30 64 1 63 24
M  V30 65 1 64 26
M  V30 66 1 65 30
M  V30 67 1 66 30
M  V30 68 1 67 31
M  V30 69 1 68 31
M  V30 70 1 32 69 CFG=3
M  V30 71 1 70 34
M  V30 72 1 71 6
M  V30 73 1 72 18
M  V30 END BOND
M  V30 END CTAB
M  END
>  <i_epik_Tot_Q>  (1) 
0

>  <i_epik_Tot_abs_Q>  (1) 
2

>  <i_i_glide_confnum>  (1) 
3435

>  <i_i_glide_lignum>  (1) 
28

>  <i_i_glide_posenum>  (1) 
161

>  <i_i_glide_rotatable_bonds>  (1) 
15

>  <i_lp_mmshare_version>  (1) 
72125

>  <i_m_source_file_index>  (1) 
11

>  <i_f3d_flags>  (1) 
0

>  <num_sample>  (1) 
50

>  <b_lp_Chiralities_Consistent>  (1) 
1

>  <r_epik_Charging_Adjusted_Penalty>  (1) 
0.33639934582642134

>  <r_epik_Ionization_Penalty>  (1) 
0.23315943830934333

>  <r_epik_Ionization_Penalty_Charging>  (1) 
0.10316865490585193

>  <r_epik_Ionization_Penalty_Neutral>  (1) 
0.12999078340349141

>  <r_epik_State_Penalty>  (1) 
0.23323069092056939

>  <r_glide_ring_energy>  (1) 
0

>  <r_i_docking_score>  (1) 
-5.7810669611280847

>  <r_i_glide_ecoul>  (1) 
-8.9713082554205172

>  <r_i_glide_eff_state_penalty>  (1) 
0.23323069092056939

>  <r_i_glide_einternal>  (1) 
26.787626022462945

>  <r_i_glide_emodel>  (1) 
-42.428717107819921

>  <r_i_glide_emodel_strain>  (1) 
2.0160433533486639

>  <r_i_glide_energy>  (1) 
-40.868452756772484

>  <r_i_glide_erotb>  (1) 
0.57757419641111274

>  <r_i_glide_esite>  (1) 
-0.13731110962258561

>  <r_i_glide_evdw>  (1) 
-31.897144501351967

>  <r_i_glide_gscore>  (1) 
-6.0142976520486542

>  <r_i_glide_gscore_strain>  (1) 
0

>  <r_i_glide_hbond>  (1) 
-0.35568671807862484

>  <r_i_glide_ligand_efficiency>  (1) 
-0.17003138120964956

>  <r_i_glide_ligand_efficiency_ln>  (1) 
-1.2771998451489506

>  <r_i_glide_ligand_efficiency_sa>  (1) 
-0.55083566915429127

>  <r_i_glide_lipo>  (1) 
-1.5256120521521117

>  <r_i_glide_metal>  (1) 
-0

>  <r_i_glide_rewards>  (1) 
-1.632708505225767

>  <r_lp_Energy>  (1) 
20.579340999999999

>  <s_epik_Chemistry_Notes>  (1) 
This compound has an imine and may undergo hydrolysis. This compound contains an acetal/aminal-like group ( X-CH(R)-Y where X, Y are N, S, or O) that may be acid/base labile, releasing an aldehyde.

>  <s_epik_cmdline>  (1) 
J2VwaWtfcHl0aG9uJywgJy1waHQnLCAnMS4wJywgJy1waCcsICc3LjQnLCAnLXRuJywgJzgnLCAnLW1hJywgJzUwMCcsICctaW1hZScsICc8aW5maWxlLm1hZT4nLCAnLW9tYWUnLCAnPG91dGZpbGUubWFlPic=

>  <s_epik_input>  (1) 
W1NIXVMoPU8pKD1PKVtDQEBdMShbQ0gyXVtDSDNdKVtDQEBdKFtDSDNdKShbQ0BASF0xW09IXSlPW0NASF0oW0NAQEhdMltDSDNdKVtOSF1bQ0BASF0oRilbQ0BIXTJbQ0gyXVxbQ0hdPVtDSF1cQyhbQ0gyXVtOSDJdKT1OXEMoPU5cW0hdKVxbQ0gyXVtDSDJdW0NIMl1bTkhdW0NIMl1bT0hd

>  <s_glide_docking_method>  (1) 
confgen

>  <s_i_glide_gridfile>  (1) 
gpcr_drd2_6luq_protein_autoprepared_prepared

>  <s_lp_Force_Field>  (1) 
S-OPLS

>  <s_lp_Variant>  (1) 
DiffSBDD_10_num_sample_50-8

>  <s_m_source_file>  (1) 
generated__ligand_DiffSBDD_2026-05-06_prepared.sdf

>  <GenAI_Model>  (1) 
DiffSBDD

>  <Protein>  (1) 
generic_title2

$$$$
DiffSBDD_33_num_sample_50
     RDKit          3D

  0  0  0  0  0  0  0  0  0  0999 V3000
M  V30 BEGIN CTAB
M  V30 COUNTS 69 72 0 0 1
M  V30 BEGIN ATOM
M  V30 1 O 6.281805 -1.444383 -17.300899 0
M  V30 2 C 7.159462 0.816378 -14.722349 0
M  V30 3 O 5.949772 0.760393 -18.939826 0
M  V30 4 C 7.034836 2.288341 -17.385427 0
M  V30 5 C 9.056927 4.069173 -11.164472 0
M  V30 6 C 9.587964 4.555721 -15.997612 0
M  V30 7 C 6.014977 7.130461 -13.562081 0
M  V30 8 C 5.186409 -1.457129 -19.408012 0
M  V30 9 N 7.925734 1.941721 -15.129832 0
M  V30 10 C 5.569897 5.674770 -13.847920 0
M  V30 11 C 8.263269 6.284551 -12.851735 0
M  V30 12 C 8.133851 4.135523 -16.094037 0
M  V30 13 N 7.305058 -0.230702 -15.665030 0
M  V30 14 C 7.074134 7.166670 -12.442689 0 CFG=1
M  V30 15 N 9.034839 6.386792 -8.250572 0 CHG=1
M  V30 16 C 7.780175 4.857854 -13.034819 0
M  V30 17 C 6.217084 -0.386359 -19.739510 0 CFG=2
M  V30 18 C 6.561581 0.910099 -17.706307 0
M  V30 19 C 9.059641 6.544041 -6.780171 0
M  V30 20 C 10.005457 7.272823 -8.928343 0
M  V30 21 N 8.181126 3.877711 -12.316610 0
M  V30 22 C 6.732016 4.695465 -14.133227 0 CFG=2
M  V30 23 F 7.464473 -0.859339 -19.656811 0
M  V30 24 C 7.540418 8.569297 -12.040506 0
M  V30 25 C 6.728960 -0.203245 -16.903254 0
M  V30 26 O 7.214609 5.016339 -15.441932 0
M  V30 27 C 4.998047 -1.522543 -17.900575 0
M  V30 28 C 9.128601 4.971901 -8.698144 0
M  V30 29 C 8.306520 4.742416 -9.981779 0
M  V30 30 C 8.786774 4.908755 -17.223481 0
M  V30 31 C 7.660421 2.715645 -16.242397 0
M  V30 32 F 6.850044 3.209834 -18.347214 0
M  V30 33 H 6.107812 1.087432 -14.620563 0
M  V30 34 H 7.504853 0.478414 -13.745028 0
M  V30 35 H 9.434841 3.096173 -10.855287 0
M  V30 36 H 9.957934 4.617234 -11.437572 0
M  V30 37 H 9.856135 5.364428 -15.323490 0
M  V30 38 H 10.368877 3.820546 -16.176264 0
M  V30 39 H 5.149305 7.729626 -13.276989 0
M  V30 40 H 6.420233 7.577974 -14.470480 0
M  V30 41 H 4.234815 -1.217625 -19.878770 0
M  V30 42 H 5.507749 -2.420357 -19.805156 0
M  V30 43 H 8.419299 2.397879 -14.373052 0
M  V30 44 H 4.864216 5.661204 -14.676444 0
M  V30 45 H 5.034814 5.305369 -12.974245 0
M  V30 46 H 9.095780 6.395482 -12.163960 0
M  V30 47 H 6.596450 6.748564 -11.557055 0
M  V30 48 H 6.099672 -0.100726 -20.784957 0
M  V30 49 H 7.434836 -1.150302 -15.249447 0
M  V30 50 H 9.994359 6.171496 -6.358596 0
M  V30 51 H 8.947322 7.592787 -6.503527 0
M  V30 52 H 8.231197 6.002505 -6.322551 0
M  V30 53 H 11.028285 7.037758 -8.630583 0
M  V30 54 H 9.933203 7.173607 -10.011287 0
M  V30 55 H 9.804022 8.316117 -8.682662 0
M  V30 56 H 6.315697 3.689337 -14.110274 0
M  V30 57 H 7.835516 9.153210 -12.910693 0
M  V30 58 H 6.754210 9.096465 -11.497177 0
M  V30 59 H 8.395062 8.523538 -11.366884 0
M  V30 60 H 4.338201 -0.730463 -17.539245 0
M  V30 61 H 4.528914 -2.465171 -17.617102 0
M  V30 62 H 8.729896 4.318931 -7.919241 0
M  V30 63 H 10.172504 4.683191 -8.820228 0
M  V30 64 H 7.915885 5.703334 -10.291689 0
M  V30 65 H 7.414178 4.169396 -9.732622 0
M  V30 66 H 9.052251 4.381551 -18.137493 0
M  V30 67 H 8.488802 5.944788 -17.363301 0
M  V30 68 H 8.115126 6.731067 -8.536147 0
M  V30 69 H 8.634827 6.601786 -13.818084 0
M  V30 END ATOM
M  V30 BEGIN BOND
M  V30 1 1 9 2
M  V30 2 1 10 7
M  V30 3 1 12 6
M  V30 4 1 13 2
M  V30 5 1 14 7
M  V30 6 1 14 11
M  V30 7 1 16 11
M  V30 8 1 17 3
M  V30 9 1 17 8
M  V30 10 1 18 3
M  V30 11 1 18 4
M  V30 12 1 19 15
M  V30 13 1 20 15
M  V30 14 1 21 5
M  V30 15 2 21 16
M  V30 16 1 22 10
M  V30 17 1 22 16
M  V30 18 1 23 17
M  V30 19 1 24 14
M  V30 20 1 25 1
M  V30 21 1 25 13
M  V30 22 2 25 18
M  V30 23 1 26 12
M  V30 24 1 26 22
M  V30 25 1 27 1
M  V30 26 1 27 8
M  V30 27 1 28 15
M  V30 28 1 29 5
M  V30 29 1 29 28
M  V30 30 1 30 6
M  V30 31 1 30 12
M  V30 32 2 31 4
M  V30 33 1 31 9
M  V30 34 1 31 12
M  V30 35 1 32 4
M  V30 36 1 33 2
M  V30 37 1 34 2
M  V30 38 1 35 5
M  V30 39 1 36 5
M  V30 40 1 37 6
M  V30 41 1 38 6
M  V30 42 1 39 7
M  V30 43 1 40 7
M  V30 44 1 41 8
M  V30 45 1 42 8
M  V30 46 1 43 9
M  V30 47 1 44 10
M  V30 48 1 45 10
M  V30 49 1 46 11
M  V30 50 1 14 47 CFG=1
M  V30 51 1 17 48 CFG=3
M  V30 52 1 49 13
M  V30 53 1 50 19
M  V30 54 1 51 19
M  V30 55 1 52 19
M  V30 56 1 53 20
M  V30 57 1 54 20
M  V30 58 1 55 20
M  V30 59 1 22 56 CFG=3
M  V30 60 1 57 24
M  V30 61 1 58 24
M  V30 62 1 59 24
M  V30 63 1 60 27
M  V30 64 1 61 27
M  V30 65 1 62 28
M  V30 66 1 63 28
M  V30 67 1 64 29
M  V30 68 1 65 29
M  V30 69 1 66 30
M  V30 70 1 67 30
M  V30 71 1 68 15
M  V30 72 1 69 11
M  V30 END BOND
M  V30 END CTAB
M  END
>  <i_epik_Tot_Q>  (1) 
1

>  <i_epik_Tot_abs_Q>  (1) 
1

>  <i_i_glide_confnum>  (1) 
218

>  <i_i_glide_lignum>  (1) 
83

>  <i_i_glide_posenum>  (1) 
310

>  <i_i_glide_rotatable_bonds>  (1) 
7

>  <i_lp_mmshare_version>  (1) 
72125

>  <i_m_source_file_index>  (1) 
34

>  <i_f3d_flags>  (1) 
0

>  <num_sample>  (1) 
50

>  <b_lp_Chiralities_Consistent>  (1) 
1

>  <r_epik_Charging_Adjusted_Penalty>  (1) 
0.41789118993368612

>  <r_epik_Ionization_Penalty>  (1) 
0.0076682513750627552

>  <r_epik_Ionization_Penalty_Charging>  (1) 
0.0072113509810821487

>  <r_epik_Ionization_Penalty_Neutral>  (1) 
0.0004569003939806066

>  <r_epik_State_Penalty>  (1) 
0.41067983895260396

>  <r_glide_ring_energy>  (1) 
0

>  <r_i_docking_score>  (1) 
-5.7741442858024001

>  <r_i_glide_ecoul>  (1) 
-7.1746209922182507

>  <r_i_glide_eff_state_penalty>  (1) 
0.41067983895260396

>  <r_i_glide_einternal>  (1) 
23.623122379582355

>  <r_i_glide_emodel>  (1) 
-42.974901144143118

>  <r_i_glide_emodel_strain>  (1) 
0.9332005713792455

>  <r_i_glide_energy>  (1) 
-39.52736642791438

>  <r_i_glide_erotb>  (1) 
0.40655192622224545

>  <r_i_glide_esite>  (1) 
-0.11670427551065242

>  <r_i_glide_evdw>  (1) 
-32.352745435696129

>  <r_i_glide_gscore>  (1) 
-6.1848241247550044

>  <r_i_glide_gscore_strain>  (1) 
0

>  <r_i_glide_hbond>  (1) 
-0.57618014445370414

>  <r_i_glide_ligand_efficiency>  (1) 
-0.180442008931325

>  <r_i_glide_ligand_efficiency_ln>  (1) 
-1.2929883028197853

>  <r_i_glide_ligand_efficiency_sa>  (1) 
-0.57286766959368118

>  <r_i_glide_lipo>  (1) 
-1.3618175038458231

>  <r_i_glide_metal>  (1) 
-0

>  <r_i_glide_rewards>  (1) 
-1.8428437065495265

>  <r_lp_Energy>  (1) 
46.360869999999998

>  <r_lp_tautomer_probability>  (1) 
0.49999519497573586

>  <s_epik_Chemistry_Notes>  (1) 
This compound has an imine and may undergo hydrolysis. This compound contains an acetal/aminal-like group ( X-CH(R)-Y where X, Y are N, S, or O) that may be acid/base labile, releasing an aldehyde.

>  <s_epik_cmdline>  (1) 
J2VwaWtfcHl0aG9uJywgJy1waHQnLCAnMS4wJywgJy1waCcsICc3LjQnLCAnLXRuJywgJzgnLCAnLW1hJywgJzUwMCcsICctaW1hZScsICc8aW5maWxlLm1hZT4nLCAnLW9tYWUnLCAnPG91dGZpbGUubWFlPic=

>  <s_epik_input>  (1) 
TzFbQ0BASF0oRilbQ0gyXVtDSDJdT0MoW0NAQEhdMTIpPU5bQ0gyXVtOSF1DKD1DMkYpQzMoW0NIMl1bQ0gyXTMpT1tDQEBIXShbQ0gyXVtDSDJdW0NAQEhdNFtDSDNdKUMoPVtDSF00KVtOSF1bQ0gyXVtDSDJdW0NIMl1OKFtDSDNdKVtDSDNd

>  <s_glide_docking_method>  (1) 
confgen

>  <s_i_glide_gridfile>  (1) 
gpcr_drd2_6luq_protein_autoprepared_prepared

>  <s_lp_Force_Field>  (1) 
S-OPLS

>  <s_lp_Variant>  (1) 
DiffSBDD_33_num_sample_50-1

>  <s_m_source_file>  (1) 
generated__ligand_DiffSBDD_2026-05-06_prepared.sdf

>  <GenAI_Model>  (1) 
DiffSBDD

>  <Protein>  (1) 
generic_title2

$$$$
DiffSBDD_7_num_sample_50
     RDKit          3D

  0  0  0  0  0  0  0  0  0  0999 V3000
M  V30 BEGIN CTAB
M  V30 COUNTS 63 67 0 0 1
M  V30 BEGIN ATOM
M  V30 1 C 10.366373 7.310779 -6.608029 0 CFG=1
M  V30 2 C 6.834864 6.200656 -18.076006 0
M  V30 3 C 6.463762 6.266772 -19.432010 0
M  V30 4 C 11.448436 9.038660 -7.943460 0
M  V30 5 C 8.631217 5.221012 -13.681002 0 CFG=2
M  V30 6 C 5.255070 6.886935 -19.799925 0
M  V30 7 C 9.076759 5.842888 -8.955520 0
M  V30 8 C 9.078872 5.466934 -12.240591 0 CFG=2
M  V30 9 C 8.052265 4.968380 -11.187815 0 CFG=2
M  V30 10 C 5.815488 4.916049 -13.736209 0
M  V30 11 C 6.389444 6.683645 -15.629166 0
M  V30 12 C 4.417556 7.437491 -18.810747 0
M  V30 13 C 8.664739 5.700478 -7.506024 0
M  V30 14 C 11.744850 6.841649 -6.953734 0 CFG=2
M  V30 15 C 11.434845 7.280543 -5.540804 0
M  V30 16 O 6.892204 5.769296 -11.086521 0
M  V30 17 C 4.785154 7.369293 -17.456521 0
M  V30 18 C 7.259572 4.804842 -14.081472 0 CFG=1
M  V30 19 C 9.612036 6.910814 -12.047022 0
M  V30 20 C 10.099709 8.606401 -7.346135 0
M  V30 21 C 12.298304 7.769306 -8.018239 0
M  V30 22 C 6.354765 5.256344 -15.151769 0 CFG=1
M  V30 23 C 8.611095 4.656824 -9.798777 0
M  V30 24 C 9.245053 6.349169 -6.485931 0
M  V30 25 C 8.595525 8.040142 -12.283569 0
M  V30 26 C 5.994064 6.755076 -17.086637 0
M  V30 27 C 8.287800 3.757597 -14.149023 0
M  V30 28 H 7.763061 5.725587 -17.793036 0
M  V30 29 H 7.106404 5.843131 -20.189188 0
M  V30 30 H 11.351401 9.520119 -8.917128 0
M  V30 31 H 11.917339 9.753025 -7.266786 0
M  V30 32 H 9.213908 5.769294 -14.416214 0
M  V30 33 H 4.969975 6.940746 -20.840264 0
M  V30 34 H 10.155436 5.959087 -9.041058 0
M  V30 35 H 8.634869 6.753490 -9.332085 0
M  V30 36 H 9.953682 4.825624 -12.121347 0
M  V30 37 H 7.678548 4.005948 -11.530640 0
M  V30 38 H 5.461023 5.760815 -13.150859 0
M  V30 39 H 5.258723 3.990305 -13.609668 0
M  V30 40 H 7.394209 7.076137 -15.491644 0
M  V30 41 H 5.725723 7.296002 -15.017548 0
M  V30 42 H 3.491873 7.916308 -19.091626 0
M  V30 43 H 7.844186 5.028662 -7.303301 0
M  V30 44 H 11.894661 5.774020 -7.091666 0
M  V30 45 H 11.372211 6.502606 -4.781552 0
M  V30 46 H 11.834289 8.232399 -5.195547 0
M  V30 47 H 7.034825 6.483822 -10.462959 0
M  V30 48 H 4.139492 7.792874 -16.700915 0
M  V30 49 H 10.057544 7.034601 -11.063813 0
M  V30 50 H 10.453738 7.055837 -12.720899 0
M  V30 51 H 9.362802 8.460997 -8.134343 0
M  V30 52 H 9.706853 9.356461 -6.664725 0
M  V30 53 H 13.362831 7.961806 -7.891516 0
M  V30 54 H 12.159020 7.312075 -8.997486 0
M  V30 55 H 6.234857 4.524849 -15.935615 0
M  V30 56 H 9.434850 3.946774 -9.891677 0
M  V30 57 H 7.794633 4.169302 -9.271214 0
M  V30 58 H 8.881471 6.169365 -5.491669 0
M  V30 59 H 9.093083 9.006776 -12.291646 0
M  V30 60 H 7.849356 8.089152 -11.492635 0
M  V30 61 H 8.073091 7.925231 -13.232489 0
M  V30 62 H 8.614260 3.453248 -15.141517 0
M  V30 63 H 8.260298 2.964864 -13.405584 0
M  V30 END ATOM
M  V30 BEGIN BOND
M  V30 1 1 3 2
M  V30 2 2 6 3
M  V30 3 1 8 5
M  V30 4 1 9 8
M  V30 5 1 12 6
M  V30 6 1 13 7
M  V30 7 1 14 1
M  V30 8 1 15 1
M  V30 9 1 15 14
M  V30 10 1 16 9
M  V30 11 2 17 12
M  V30 12 1 18 5
M  V30 13 1 18 10 CFG=1
M  V30 14 1 19 8
M  V30 15 1 20 1
M  V30 16 1 20 4
M  V30 17 1 21 4
M  V30 18 1 21 14
M  V30 19 1 22 10
M  V30 20 1 22 11
M  V30 21 1 22 18
M  V30 22 1 23 7
M  V30 23 1 23 9
M  V30 24 1 1 24 CFG=1
M  V30 25 2 24 13
M  V30 26 1 25 19
M  V30 27 2 26 2
M  V30 28 1 26 11
M  V30 29 1 26 17
M  V30 30 1 27 5
M  V30 31 1 27 18
M  V30 32 1 28 2
M  V30 33 1 29 3
M  V30 34 1 30 4
M  V30 35 1 31 4
M  V30 36 1 5 32 CFG=3
M  V30 37 1 33 6
M  V30 38 1 34 7
M  V30 39 1 35 7
M  V30 40 1 8 36 CFG=1
M  V30 41 1 9 37 CFG=3
M  V30 42 1 38 10
M  V30 43 1 39 10
M  V30 44 1 40 11
M  V30 45 1 41 11
M  V30 46 1 42 12
M  V30 47 1 43 13
M  V30 48 1 14 44 CFG=1
M  V30 49 1 45 15
M  V30 50 1 46 15
M  V30 51 1 47 16
M  V30 52 1 48 17
M  V30 53 1 49 19
M  V30 54 1 50 19
M  V30 55 1 51 20
M  V30 56 1 52 20
M  V30 57 1 53 21
M  V30 58 1 54 21
M  V30 59 1 22 55 CFG=3
M  V30 60 1 56 23
M  V30 61 1 57 23
M  V30 62 1 58 24
M  V30 63 1 59 25
M  V30 64 1 60 25
M  V30 65 1 61 25
M  V30 66 1 62 27
M  V30 67 1 63 27
M  V30 END BOND
M  V30 END CTAB
M  END
>  <i_epik_Tot_Q>  (1) 
0

>  <i_epik_Tot_abs_Q>  (1) 
0

>  <i_i_glide_confnum>  (1) 
487

>  <i_i_glide_lignum>  (1) 
16

>  <i_i_glide_posenum>  (1) 
131

>  <i_i_glide_rotatable_bonds>  (1) 
10

>  <i_lp_mmshare_version>  (1) 
72125

>  <i_m_source_file_index>  (1) 
8

>  <i_f3d_flags>  (1) 
0

>  <num_sample>  (1) 
50

>  <b_lp_Chiralities_Consistent>  (1) 
1

>  <r_epik_Charging_Adjusted_Penalty>  (1) 
0

>  <r_epik_Ionization_Penalty>  (1) 
5.611789062664276e-07

>  <r_epik_Ionization_Penalty_Charging>  (1) 
0

>  <r_epik_Ionization_Penalty_Neutral>  (1) 
5.611789062664276e-07

>  <r_epik_State_Penalty>  (1) 
-0

>  <r_glide_ring_energy>  (1) 
0

>  <r_i_docking_score>  (1) 
-5.7738482788902958

>  <r_i_glide_ecoul>  (1) 
-4.2668114967789688

>  <r_i_glide_eff_state_penalty>  (1) 
-0

>  <r_i_glide_einternal>  (1) 
13.627499391903983

>  <r_i_glide_emodel>  (1) 
-34.023244556404748

>  <r_i_glide_emodel_strain>  (1) 
2.1457455075772032

>  <r_i_glide_energy>  (1) 
-31.88646180561998

>  <r_i_glide_erotb>  (1) 
1.0125554383439441

>  <r_i_glide_esite>  (1) 
0

>  <r_i_glide_evdw>  (1) 
-27.619650308841013

>  <r_i_glide_gscore>  (1) 
-5.7738482788902958

>  <r_i_glide_gscore_strain>  (1) 
0

>  <r_i_glide_hbond>  (1) 
-0.16

>  <r_i_glide_ligand_efficiency>  (1) 
-0.21384623255149243

>  <r_i_glide_ligand_efficiency_ln>  (1) 
-1.3440566899973332

>  <r_i_glide_ligand_efficiency_sa>  (1) 
-0.64153869765447746

>  <r_i_glide_lipo>  (1) 
-2.9684011868101305

>  <r_i_glide_metal>  (1) 
-0

>  <r_i_glide_rewards>  (1) 
-1.6369982904652129

>  <r_lp_Energy>  (1) 
25.483521999999997

>  <r_lp_tautomer_probability>  (1) 
1

>  <s_epik_cmdline>  (1) 
J2VwaWtfcHl0aG9uJywgJy1waHQnLCAnMS4wJywgJy1waCcsICc3LjQnLCAnLXRuJywgJzgnLCAnLW1hJywgJzUwMCcsICctaW1hZScsICc8aW5maWxlLm1hZT4nLCAnLW9tYWUnLCAnPG91dGZpbGUubWFlPic=

>  <s_epik_input>  (1) 
W0NIMl0xW0NIMl1bQ0gyXVtDQEBIXShbQ0gyXTIpW0NAXTEyL1tDSF09W0NIXVxbQ0gyXVtDSDJdW0NAQEhdKFtPSF0pW0NASF0oW0NIMl1bQ0gzXSlbQ0BASF0oW0NIMl0zKVtDQF0zNFtDSDJdW0NASF00W0NIMl1jNVtjSF1bY0hdW2NIXVtjSF1bY0hdNQ==

>  <s_glide_docking_method>  (1) 
confgen

>  <s_i_glide_gridfile>  (1) 
gpcr_drd2_6luq_protein_autoprepared_prepared

>  <s_lp_Force_Field>  (1) 
S-OPLS

>  <s_lp_Variant>  (1) 
DiffSBDD_7_num_sample_50-1

>  <s_m_source_file>  (1) 
generated__ligand_DiffSBDD_2026-05-06_prepared.sdf

>  <GenAI_Model>  (1) 
DiffSBDD

>  <Protein>  (1) 
generic_title2

$$$$
DiffSBDD_13_num_sample_50
     RDKit          3D

  0  0  0  0  0  0  0  0  0  0999 V3000
M  V30 BEGIN CTAB
M  V30 COUNTS 46 50 0 0 1
M  V30 BEGIN ATOM
M  V30 1 C 6.410929 6.300270 -13.509954 0
M  V30 2 N 8.066635 5.749989 -10.862338 0 CFG=1 CHG=1
M  V30 3 C 5.737986 6.425861 -22.044644 0
M  V30 4 C 6.215920 5.991819 -19.658325 0
M  V30 5 C 7.600283 4.279842 -14.197004 0
M  V30 6 C 5.376798 7.127538 -19.358712 0
M  V30 7 C 6.160622 6.605338 -14.858238 0
M  V30 8 C 9.955240 8.067071 -9.638369 0
M  V30 9 C 6.371680 5.670432 -21.034913 0
M  V30 10 C 10.261521 6.980588 -8.593002 0
M  V30 11 O 6.228102 4.515116 -11.091579 0 CHG=-1
M  V30 12 C 9.148606 5.242566 -10.010929 0 CFG=1
M  V30 13 O 4.320757 8.248642 -22.691944 0
M  V30 14 C 7.353766 4.594062 -15.546100 0
M  V30 15 S 5.292486 7.369301 -17.663587 0
M  V30 16 C 9.436384 6.082013 -11.229163 0 CFG=2
M  V30 17 C 7.363853 4.731922 -11.698571 0 CFG=1
M  V30 18 C 6.759594 5.372940 -18.430531 0
M  V30 19 C 7.123449 5.121222 -13.168817 0
M  V30 20 C 4.931474 7.523812 -21.711168 0
M  V30 21 C 6.323211 6.049933 -17.302902 0
M  V30 22 C 9.828566 7.547655 -11.090955 0
M  V30 23 C 6.618615 5.751090 -15.892047 0
M  V30 24 C 9.219156 5.854004 -8.628693 0
M  V30 25 Cl 5.834836 7.369291 -12.288441 0
M  V30 26 C 4.752271 7.874361 -20.370758 0
M  V30 27 H 5.876191 6.155090 -23.081412 0
M  V30 28 H 8.145575 3.380758 -13.949579 0
M  V30 29 H 5.606144 7.498453 -15.097749 0
M  V30 30 H 10.721366 8.842113 -9.596670 0
M  V30 31 H 9.034836 8.569437 -9.352778 0
M  V30 32 H 6.988720 4.829324 -21.313539 0
M  V30 33 H 11.255033 6.569321 -8.771866 0
M  V30 34 H 10.286607 7.423600 -7.596830 0
M  V30 35 H 9.295561 4.169300 -10.072999 0
M  V30 36 H 4.519746 7.948317 -23.565989 0
M  V30 37 H 7.713247 3.932805 -16.319103 0
M  V30 38 H 9.719544 5.590062 -12.158324 0
M  V30 39 H 8.056025 3.894662 -11.793790 0
M  V30 40 H 7.407973 4.510726 -18.427589 0
M  V30 41 H 9.142044 8.170011 -11.667045 0
M  V30 42 H 10.803042 7.651052 -11.566135 0
M  V30 43 H 8.234841 6.203531 -8.319594 0
M  V30 44 H 9.498578 5.076088 -7.917738 0
M  V30 45 H 4.130291 8.718780 -20.111647 0
M  V30 46 H 7.513432 6.491424 -10.432852 0
M  V30 END ATOM
M  V30 BEGIN BOND
M  V30 1 2 6 4
M  V30 2 1 7 1
M  V30 3 2 9 3
M  V30 4 1 9 4
M  V30 5 1 10 8
M  V30 6 1 12 2
M  V30 7 2 14 5
M  V30 8 1 15 6
M  V30 9 1 16 2
M  V30 10 1 16 12
M  V30 11 1 17 2
M  V30 12 1 17 11
M  V30 13 1 18 4
M  V30 14 2 19 1
M  V30 15 1 19 5
M  V30 16 1 19 17
M  V30 17 1 20 3
M  V30 18 1 20 13
M  V30 19 1 21 15
M  V30 20 2 21 18
M  V30 21 1 22 8
M  V30 22 1 22 16
M  V30 23 2 23 7
M  V30 24 1 23 14
M  V30 25 1 23 21
M  V30 26 1 24 10
M  V30 27 1 24 12
M  V30 28 1 25 1
M  V30 29 1 26 6
M  V30 30 2 26 20
M  V30 31 1 27 3
M  V30 32 1 28 5
M  V30 33 1 29 7
M  V30 34 1 30 8
M  V30 35 1 31 8
M  V30 36 1 32 9
M  V30 37 1 33 10
M  V30 38 1 34 10
M  V30 39 1 12 35 CFG=1
M  V30 40 1 36 13
M  V30 41 1 37 14
M  V30 42 1 16 38 CFG=3
M  V30 43 1 17 39 CFG=3
M  V30 44 1 40 18
M  V30 45 1 41 22
M  V30 46 1 42 22
M  V30 47 1 43 24
M  V30 48 1 44 24
M  V30 49 1 45 26
M  V30 50 1 2 46 CFG=1
M  V30 END BOND
M  V30 END CTAB
M  END
>  <i_epik_Tot_Q>  (1) 
0

>  <i_epik_Tot_abs_Q>  (1) 
2

>  <i_i_glide_confnum>  (1) 
12

>  <i_i_glide_lignum>  (1) 
48

>  <i_i_glide_posenum>  (1) 
130

>  <i_i_glide_rotatable_bonds>  (1) 
4

>  <i_lp_mmshare_version>  (1) 
72125

>  <i_m_source_file_index>  (1) 
14

>  <i_f3d_flags>  (1) 
0

>  <num_sample>  (1) 
50

>  <b_lp_Chiralities_Consistent>  (1) 
1

>  <r_epik_Charging_Adjusted_Penalty>  (1) 
0.011735890959206876

>  <r_epik_Ionization_Penalty>  (1) 
0.011735890959206876

>  <r_epik_Ionization_Penalty_Charging>  (1) 
0.0019353161310539371

>  <r_epik_Ionization_Penalty_Neutral>  (1) 
0.009800574828152938

>  <r_epik_State_Penalty>  (1) 
0.0098005748281529397

>  <r_glide_ring_energy>  (1) 
0

>  <r_i_docking_score>  (1) 
-5.7536074673516646

>  <r_i_glide_ecoul>  (1) 
-3.7318052600953124

>  <r_i_glide_eff_state_penalty>  (1) 
0.0098005748281529397

>  <r_i_glide_einternal>  (1) 
9.7364357918595275

>  <r_i_glide_emodel>  (1) 
-46.625244585902934

>  <r_i_glide_emodel_strain>  (1) 
0.93950784772428619

>  <r_i_glide_energy>  (1) 
-38.795625745835231

>  <r_i_glide_erotb>  (1) 
0.39195233306171845

>  <r_i_glide_esite>  (1) 
-0.098909236566353961

>  <r_i_glide_evdw>  (1) 
-35.063820485739917

>  <r_i_glide_gscore>  (1) 
-5.7634080421798179

>  <r_i_glide_gscore_strain>  (1) 
0

>  <r_i_glide_hbond>  (1) 
-0.20000000000000001

>  <r_i_glide_ligand_efficiency>  (1) 
-0.22129259489814096

>  <r_i_glide_ligand_efficiency_ln>  (1) 
-1.3512158345815874

>  <r_i_glide_ligand_efficiency_sa>  (1) 
-0.65557844235340768

>  <r_i_glide_lipo>  (1) 
-1.8851568978310396

>  <r_i_glide_metal>  (1) 
-0

>  <r_i_glide_rewards>  (1) 
-1.6583324275428502

>  <r_lp_Energy>  (1) 
53.532539999999997

>  <s_epik_Chemistry_Notes>  (1) 
This compound contains an acetal/aminal-like group ( X-CH(R)-Y where X, Y are N, S, or O) that may be acid/base labile, releasing an aldehyde.

>  <s_epik_cmdline>  (1) 
J2VwaWtfcHl0aG9uJywgJy1waHQnLCAnMS4wJywgJy1waCcsICc3LjQnLCAnLXRuJywgJzgnLCAnLW1hJywgJzUwMCcsICctaW1hZScsICc8aW5maWxlLm1hZT4nLCAnLW9tYWUnLCAnPG91dGZpbGUubWFlPic=

>  <s_epik_input>  (1) 
W2NIXTFbY0hdYyhbT0hdKVtjSF1jKGMxMilzYyhbY0hdMiktYyhbY0hdYzNDbClbY0hdW2NIXWMzW0NASF0oW09IXSlONFtDQEhdKFtDQEhdNDUpW0NIMl1bQ0gyXVtDSDJdW0NIMl01

>  <s_glide_docking_method>  (1) 
confgen

>  <s_i_glide_gridfile>  (1) 
gpcr_drd2_6luq_protein_autoprepared_prepared

>  <s_lp_Force_Field>  (1) 
S-OPLS

>  <s_lp_Variant>  (1) 
DiffSBDD_13_num_sample_50-1

>  <s_m_source_file>  (1) 
generated__ligand_DiffSBDD_2026-05-06_prepared.sdf

>  <GenAI_Model>  (1) 
DiffSBDD

>  <Protein>  (1) 
generic_title2

$$$$
DiffSBDD_14_num_sample_50
     RDKit          3D

  0  0  0  0  0  0  0  0  0  0999 V3000
M  V30 BEGIN CTAB
M  V30 COUNTS 69 73 0 0 1
M  V30 BEGIN ATOM
M  V30 1 C 6.732791 1.099425 -16.469694 0 CFG=2
M  V30 2 C 8.795050 6.729696 -12.376280 0 CFG=1
M  V30 3 C 5.472711 -1.158948 -16.641884 0
M  V30 4 C 7.359318 0.871955 -18.838115 0
M  V30 5 C 7.363387 3.412560 -13.236613 0
M  V30 6 C 11.434868 7.366366 -4.414398 0
M  V30 7 O 11.470370 6.569295 -3.294210 0
M  V30 8 C 9.129554 7.906068 -11.485799 0
M  V30 9 O 9.434432 5.945282 -10.268930 0
M  V30 10 C 10.538091 6.997130 -8.097989 0
M  V30 11 N 9.834855 7.848053 -9.051082 0
M  V30 12 N 8.634744 3.803988 -13.108838 0
M  V30 13 C 7.090380 1.510546 -14.985268 0 CFG=2
M  V30 14 C 6.836888 -0.446573 -16.686181 0 CFG=1
M  V30 15 C 9.198151 4.222400 -11.843372 0
M  V30 16 C 12.818946 8.322579 -2.273111 0
M  V30 17 O 12.261574 9.273746 -3.163987 0
M  V30 18 C 8.805414 2.527768 -17.427781 0
M  V30 19 O 6.573179 3.369332 -12.293636 0
M  V30 20 C 6.314670 0.644758 -13.953304 0
M  V30 21 C 8.646691 5.578709 -11.379068 0 CFG=2
M  V30 22 C 11.008261 6.821496 -5.632312 0
M  V30 23 O 7.601962 6.984118 -13.091731 0
M  V30 24 C 11.831859 7.175914 -2.063997 0
M  V30 25 C 7.507724 1.771085 -17.634207 0
M  V30 26 S 7.638395 -0.797142 -18.266850 0
M  V30 27 C 11.803798 9.522674 -5.513086 0
M  V30 28 C 6.913290 3.024161 -14.636314 0
M  V30 29 C 7.572356 3.256210 -17.922155 0
M  V30 30 C 10.981781 7.613108 -6.792507 0
M  V30 31 C 11.386045 8.963542 -6.735829 0
M  V30 32 C 9.911571 7.249698 -10.351009 0 CFG=2
M  V30 33 C 11.834839 8.728840 -4.350171 0
M  V30 34 H 5.690694 1.369412 -16.634858 0
M  V30 35 H 9.620405 6.535217 -13.061462 0
M  V30 36 H 4.951208 -0.995309 -15.700676 0
M  V30 37 H 4.819271 -0.811631 -17.442723 0
M  V30 38 H 5.592470 -2.236674 -16.757604 0
M  V30 39 H 6.346193 0.958810 -19.232787 0
M  V30 40 H 8.060515 1.134536 -19.631231 0
M  V30 41 H 9.732018 8.653266 -11.994247 0
M  V30 42 H 8.234818 8.383940 -11.091683 0
M  V30 43 H 9.898765 6.142113 -7.871205 0
M  V30 44 H 11.434857 6.588714 -8.561721 0
M  V30 45 H 8.847173 7.871103 -8.796862 0
M  V30 46 H 9.231538 3.823381 -13.921658 0
M  V30 47 H 8.146315 1.274510 -14.844267 0
M  V30 48 H 7.505259 -0.887833 -15.948366 0
M  V30 49 H 10.275233 4.295548 -11.977888 0
M  V30 50 H 9.035257 3.451654 -11.090619 0
M  V30 51 H 13.064602 8.806360 -1.327816 0
M  V30 52 H 13.740342 7.924513 -2.691711 0
M  V30 53 H 9.145299 2.731398 -16.417752 0
M  V30 54 H 9.605580 2.354019 -18.144635 0
M  V30 55 H 5.239844 0.813419 -14.022123 0
M  V30 56 H 6.490610 -0.422843 -14.070938 0
M  V30 57 H 6.611391 0.851824 -12.926340 0
M  V30 58 H 7.614922 5.499058 -11.032601 0
M  V30 59 H 10.705552 5.785948 -5.679883 0
M  V30 60 H 6.907792 7.121280 -12.462458 0
M  V30 61 H 10.952338 7.500474 -1.506390 0
M  V30 62 H 12.316582 6.390082 -1.491658 0
M  V30 63 H 12.111600 10.556701 -5.470079 0
M  V30 64 H 5.885001 3.369213 -14.691666 0
M  V30 65 H 7.485385 3.664068 -15.294796 0
M  V30 66 H 7.576103 3.561113 -18.966947 0
M  V30 67 H 7.034823 3.937878 -17.273552 0
M  V30 68 H 11.381057 9.566923 -7.629436 0
M  V30 69 H 10.958012 7.176168 -10.649853 0
M  V30 END ATOM
M  V30 BEGIN BOND
M  V30 1 1 7 6
M  V30 2 1 8 2
M  V30 3 1 11 10
M  V30 4 1 12 5
M  V30 5 1 13 1
M  V30 6 1 14 1
M  V30 7 1 14 3
M  V30 8 1 15 12
M  V30 9 1 17 16
M  V30 10 2 19 5
M  V30 11 1 20 13
M  V30 12 1 21 2
M  V30 13 1 21 9
M  V30 14 1 21 15
M  V30 15 1 22 6
M  V30 16 1 23 2
M  V30 17 1 24 7
M  V30 18 1 24 16
M  V30 19 1 25 1
M  V30 20 1 25 4
M  V30 21 1 25 18
M  V30 22 1 26 4
M  V30 23 1 26 14
M  V30 24 1 28 5
M  V30 25 1 28 13
M  V30 26 1 29 18
M  V30 27 1 29 25
M  V30 28 1 30 10
M  V30 29 2 30 22
M  V30 30 2 31 27
M  V30 31 1 31 30
M  V30 32 1 32 8
M  V30 33 1 32 9
M  V30 34 1 32 11
M  V30 35 2 33 6
M  V30 36 1 33 17
M  V30 37 1 33 27
M  V30 38 1 1 34 CFG=3
M  V30 39 1 2 35 CFG=3
M  V30 40 1 36 3
M  V30 41 1 37 3
M  V30 42 1 38 3
M  V30 43 1 39 4
M  V30 44 1 40 4
M  V30 45 1 41 8
M  V30 46 1 42 8
M  V30 47 1 43 10
M  V30 48 1 44 10
M  V30 49 1 45 11
M  V30 50 1 46 12
M  V30 51 1 13 47 CFG=1
M  V30 52 1 14 48 CFG=1
M  V30 53 1 49 15
M  V30 54 1 50 15
M  V30 55 1 51 16
M  V30 56 1 52 16
M  V30 57 1 53 18
M  V30 58 1 54 18
M  V30 59 1 55 20
M  V30 60 1 56 20
M  V30 61 1 57 20
M  V30 62 1 21 58 CFG=1
M  V30 63 1 59 22
M  V30 64 1 60 23
M  V30 65 1 61 24
M  V30 66 1 62 24
M  V30 67 1 63 27
M  V30 68 1 64 28
M  V30 69 1 65 28
M  V30 70 1 66 29
M  V30 71 1 67 29
M  V30 72 1 68 31
M  V30 73 1 32 69 CFG=3
M  V30 END BOND
M  V30 END CTAB
M  END
>  <i_epik_Tot_Q>  (1) 
0

>  <i_epik_Tot_abs_Q>  (1) 
0

>  <i_i_glide_confnum>  (1) 
430

>  <i_i_glide_lignum>  (1) 
50

>  <i_i_glide_posenum>  (1) 
318

>  <i_i_glide_rotatable_bonds>  (1) 
10

>  <i_lp_mmshare_version>  (1) 
72125

>  <i_m_source_file_index>  (1) 
15

>  <i_f3d_flags>  (1) 
0

>  <num_sample>  (1) 
50

>  <b_lp_Chiralities_Consistent>  (1) 
1

>  <r_epik_Charging_Adjusted_Penalty>  (1) 
0.31292197521915999

>  <r_epik_Ionization_Penalty>  (1) 
0.31292203413354946

>  <r_epik_Ionization_Penalty_Charging>  (1) 
0

>  <r_epik_Ionization_Penalty_Neutral>  (1) 
0.31292203413354946

>  <r_epik_State_Penalty>  (1) 
0.31292197521915999

>  <r_glide_ring_energy>  (1) 
0

>  <r_i_docking_score>  (1) 
-5.7327275947254437

>  <r_i_glide_ecoul>  (1) 
-3.1339791880964896

>  <r_i_glide_eff_state_penalty>  (1) 
0.31292197521915999

>  <r_i_glide_einternal>  (1) 
162.3156668920868

>  <r_i_glide_emodel>  (1) 
22.946771383593664

>  <r_i_glide_emodel_strain>  (1) 
0.88842503495385472

>  <r_i_glide_energy>  (1) 
-47.834083086824528

>  <r_i_glide_erotb>  (1) 
0.80225646669221395

>  <r_i_glide_esite>  (1) 
-0.081517446740775892

>  <r_i_glide_evdw>  (1) 
-44.700103898728038

>  <r_i_glide_gscore>  (1) 
-6.0456495699446036

>  <r_i_glide_gscore_strain>  (1) 
0

>  <r_i_glide_hbond>  (1) 
-0.15677976484267483

>  <r_i_glide_ligand_efficiency>  (1) 
-0.17371901802198314

>  <r_i_glide_ligand_efficiency_ln>  (1) 
-1.2749289345920252

>  <r_i_glide_ligand_efficiency_sa>  (1) 
-0.55720971407867459

>  <r_i_glide_lipo>  (1) 
-3.1753985071617237

>  <r_i_glide_metal>  (1) 
-0

>  <r_i_glide_rewards>  (1) 
-0.72910824474076785

>  <r_lp_Energy>  (1) 
13.089316999999999

>  <r_lp_tautomer_probability>  (1) 
1

>  <s_epik_Chemistry_Notes>  (1) 
This compound contains an acetal/aminal-like group ( X-CH(R)-Y where X, Y are N, S, or O) that may be acid/base labile, releasing an aldehyde.

>  <s_epik_cmdline>  (1) 
J2VwaWtfcHl0aG9uJywgJy1waHQnLCAnMS4wJywgJy1waCcsICc3LjQnLCAnLXRuJywgJzgnLCAnLW1hJywgJzUwMCcsICctaW1hZScsICc8aW5maWxlLm1hZT4nLCAnLW9tYWUnLCAnPG91dGZpbGUubWFlPic=

>  <s_epik_input>  (1) 
W0NIMl0xU1tDQEhdKFtDSDNdKVtDQEhdKEMxMltDSDJdW0NIMl0yKVtDQEhdKFtDSDNdKVtDSDJdQyg9TylbTkhdW0NIMl1bQ0BIXTNPW0NAQEhdKFtDSDJdW0NAQEhdM1tPSF0pW05IXVtDSDJdYyhbY0hdNClbY0hdW2NIXWMoYzQ1KU9bQ0gyXVtDSDJdTzU=

>  <s_glide_docking_method>  (1) 
confgen

>  <s_i_glide_gridfile>  (1) 
gpcr_drd2_6luq_protein_autoprepared_prepared

>  <s_lp_Force_Field>  (1) 
S-OPLS

>  <s_lp_Variant>  (1) 
DiffSBDD_14_num_sample_50-1

>  <s_m_source_file>  (1) 
generated__ligand_DiffSBDD_2026-05-06_prepared.sdf

>  <GenAI_Model>  (1) 
DiffSBDD

>  <Protein>  (1) 
generic_title2

$$$$
DiffSBDD_15_num_sample_50
     RDKit          3D

  0  0  0  0  0  0  0  0  0  0999 V3000
M  V30 BEGIN CTAB
M  V30 COUNTS 104 108 0 0 1
M  V30 BEGIN ATOM
M  V30 1 N 11.606604 7.434601 -10.998419 0
M  V30 2 C 5.623512 6.033322 -16.611931 0
M  V30 3 C 7.735020 4.089938 -19.362890 0 CFG=1
M  V30 4 C 8.414208 1.792896 -18.465178 0
M  V30 5 O 9.372068 5.842972 -19.215581 0
M  V30 6 C 11.453926 7.093673 -6.903315 0 CFG=1
M  V30 7 C 7.676735 -0.421292 -16.728022 0
M  V30 8 O 9.738872 8.569025 -7.940384 0
M  V30 9 C 11.951624 6.956687 -12.330123 0
M  V30 10 O 13.540114 8.569261 -10.689997 0
M  V30 11 C 5.658107 5.061473 -11.491750 0
M  V30 12 C 10.127851 6.888627 -19.804292 0
M  V30 13 C 10.261983 7.100455 -10.560713 0 CFG=1
M  V30 14 C 9.919569 2.914349 -20.028900 0
M  V30 15 O 7.248446 6.327360 -20.069234 0
M  V30 16 C 11.959638 8.661504 -8.867156 0 CFG=1
M  V30 17 C 10.810194 1.826678 -19.947184 0
M  V30 18 C 10.293884 6.645871 -9.118788 0 CFG=2
M  V30 19 F 7.063033 7.705644 -14.197691 0
M  V30 20 C 5.885562 7.241023 -13.778830 0
M  V30 21 C 5.962332 3.295377 -13.159411 0
M  V30 22 O 10.234841 7.926679 -5.091664 0
M  V30 23 C 12.824911 9.768133 -6.629308 0
M  V30 24 C 8.328271 5.966877 -11.785732 0
M  V30 25 C 11.232484 8.011532 -5.734185 0
M  V30 26 C 6.321477 5.366024 -15.395897 0
M  V30 27 O 9.755846 -1.430619 -17.365267 0
M  V30 28 C 9.005381 -0.468235 -17.498005 0
M  V30 29 O 9.035040 6.144347 -8.708177 0
M  V30 30 O 9.433583 8.243155 -10.665215 0
M  V30 31 C 13.164217 8.946221 -7.916946 0
M  V30 32 C 9.312215 0.704971 -18.378352 0
M  V30 33 C 12.440847 8.212120 -10.271666 0
M  V30 34 C 6.330000 4.768168 -12.852891 0
M  V30 35 C 10.889690 5.769273 -6.488380 0
M  V30 36 C 7.866545 4.817048 -12.675783 0
M  V30 37 C 12.284214 9.041622 -5.404135 0
M  V30 38 C 5.769447 5.712577 -13.994243 0 CFG=1
M  V30 39 C 8.293680 5.399367 -19.986914 0 CFG=2
M  V30 40 C 6.160439 5.601714 -18.010909 0 CFG=2
M  V30 41 C 10.874776 7.738063 -8.195540 0 CFG=1
M  V30 42 C 7.798288 0.369831 -15.415471 0
M  V30 43 C 10.593682 6.487624 -12.811624 0
M  V30 44 C 8.716400 2.904156 -19.285191 0
M  V30 45 C 7.188030 4.459130 -17.969110 0
M  V30 46 C 6.749417 6.775492 -18.814593 0
M  V30 47 C 10.510442 0.725310 -19.123466 0
M  V30 48 C 9.836427 6.034889 -11.580709 0 CFG=1
M  V30 49 H 4.555535 5.814779 -16.561935 0
M  V30 50 H 5.689860 7.119535 -16.528279 0
M  V30 51 H 6.901766 3.769352 -19.988581 0
M  V30 52 H 7.499084 1.780690 -17.904535 0
M  V30 53 H 12.479780 6.783747 -7.023086 0
M  V30 54 H 6.869501 -0.049536 -17.362058 0
M  V30 55 H 7.386640 -1.438321 -16.480687 0
M  V30 56 H 9.333818 8.772160 -8.775217 0
M  V30 57 H 12.408614 7.694389 -12.994959 0
M  V30 58 H 12.615134 6.100555 -12.291741 0
M  V30 59 H 4.634795 4.757467 -11.513179 0
M  V30 60 H 6.112796 4.492982 -10.676949 0
M  V30 61 H 5.675793 6.108009 -11.192192 0
M  V30 62 H 10.936218 7.180676 -19.130049 0
M  V30 63 H 10.576874 6.564100 -20.743286 0
M  V30 64 H 9.510782 7.763002 -19.993852 0
M  V30 65 H 10.163839 3.752013 -20.658839 0
M  V30 66 H 11.509019 9.630940 -9.083032 0
M  V30 67 H 11.727753 1.838148 -20.516481 0
M  V30 68 H 10.958160 5.795331 -9.091574 0
M  V30 69 H 5.137049 7.766212 -14.370466 0
M  V30 70 H 5.739443 7.566439 -12.750730 0
M  V30 71 H 4.920695 3.198141 -13.466687 0
M  V30 72 H 6.585608 2.865172 -13.941495 0
M  V30 73 H 6.105823 2.659562 -12.285444 0
M  V30 74 H 13.715735 10.295564 -6.291676 0
M  V30 75 H 12.065474 10.522891 -6.846631 0
M  V30 76 H 7.885995 5.855270 -10.802629 0
M  V30 77 H 7.958572 6.910555 -12.170811 0
M  V30 78 H 7.384785 5.603016 -15.432143 0
M  V30 79 H 6.250520 4.291018 -15.502169 0
M  V30 80 H 8.397495 6.855693 -8.686352 0
M  V30 81 H 8.525682 7.976964 -10.532721 0
M  V30 82 H 13.678330 8.031036 -7.709395 0
M  V30 83 H 14.000781 9.369309 -8.440464 0
M  V30 84 H 11.345395 5.435289 -5.553880 0
M  V30 85 H 9.806451 5.770377 -6.364309 0
M  V30 86 H 11.168877 4.994925 -7.199136 0
M  V30 87 H 8.373046 4.845431 -13.639491 0
M  V30 88 H 8.203987 3.891834 -12.201510 0
M  V30 89 H 13.034744 8.633177 -4.724052 0
M  V30 90 H 11.788624 9.798861 -4.795422 0
M  V30 91 H 4.698472 5.506882 -14.016094 0
M  V30 92 H 8.621589 5.224047 -21.011943 0
M  V30 93 H 5.303968 5.234893 -18.576814 0
M  V30 94 H 6.826394 0.447455 -14.927407 0
M  V30 95 H 8.472158 -0.131579 -14.718816 0
M  V30 96 H 8.176662 1.379416 -15.581101 0
M  V30 97 H 10.063353 7.384688 -13.091645 0
M  V30 98 H 10.623688 5.769645 -13.633107 0
M  V30 99 H 8.032907 4.719521 -17.335184 0
M  V30 100 H 6.694590 3.608939 -17.505979 0
M  V30 101 H 5.985887 7.533787 -18.990926 0
M  V30 102 H 7.555148 7.265689 -18.276158 0
M  V30 103 H 11.199928 -0.105145 -19.065090 0
M  V30 104 H 10.199634 5.052032 -11.283626 0
M  V30 END ATOM
M  V30 BEGIN BOND
M  V30 1 1 9 1
M  V30 2 1 12 5
M  V30 3 1 13 1
M  V30 4 1 17 14
M  V30 5 1 18 13
M  V30 6 1 20 19
M  V30 7 1 25 6
M  V30 8 2 25 22
M  V30 9 1 26 2
M  V30 10 1 28 7
M  V30 11 2 28 27
M  V30 12 1 29 18
M  V30 13 1 13 30 CFG=1
M  V30 14 1 31 16
M  V30 15 1 31 23
M  V30 16 2 32 4
M  V30 17 1 32 28
M  V30 18 1 33 1
M  V30 19 2 33 10
M  V30 20 1 33 16
M  V30 21 1 34 11
M  V30 22 1 34 21
M  V30 23 1 35 6
M  V30 24 1 36 24
M  V30 25 1 36 34
M  V30 26 1 37 23
M  V30 27 1 37 25
M  V30 28 1 38 20
M  V30 29 1 38 26
M  V30 30 1 38 34
M  V30 31 1 39 3
M  V30 32 1 39 5
M  V30 33 1 39 15
M  V30 34 1 40 2
M  V30 35 1 41 6
M  V30 36 1 41 8 CFG=1
M  V30 37 1 41 16
M  V30 38 1 41 18
M  V30 39 1 42 7
M  V30 40 1 43 9
M  V30 41 1 44 3
M  V30 42 1 44 4
M  V30 43 2 44 14
M  V30 44 1 45 3
M  V30 45 1 45 40
M  V30 46 1 46 15
M  V30 47 1 46 40
M  V30 48 2 47 17
M  V30 49 1 47 32
M  V30 50 1 48 13
M  V30 51 1 48 24
M  V30 52 1 48 43
M  V30 53 1 49 2
M  V30 54 1 50 2
M  V30 55 1 3 51 CFG=3
M  V30 56 1 52 4
M  V30 57 1 6 53 CFG=3
M  V30 58 1 54 7
M  V30 59 1 55 7
M  V30 60 1 56 8
M  V30 61 1 57 9
M  V30 62 1 58 9
M  V30 63 1 59 11
M  V30 64 1 60 11
M  V30 65 1 61 11
M  V30 66 1 62 12
M  V30 67 1 63 12
M  V30 68 1 64 12
M  V30 69 1 65 14
M  V30 70 1 16 66 CFG=3
M  V30 71 1 67 17
M  V30 72 1 18 68 CFG=3
M  V30 73 1 69 20
M  V30 74 1 70 20
M  V30 75 1 71 21
M  V30 76 1 72 21
M  V30 77 1 73 21
M  V30 78 1 74 23
M  V30 79 1 75 23
M  V30 80 1 76 24
M  V30 81 1 77 24
M  V30 82 1 78 26
M  V30 83 1 79 26
M  V30 84 1 80 29
M  V30 85 1 81 30
M  V30 86 1 82 31
M  V30 87 1 83 31
M  V30 88 1 84 35
M  V30 89 1 85 35
M  V30 90 1 86 35
M  V30 91 1 87 36
M  V30 92 1 88 36
M  V30 93 1 89 37
M  V30 94 1 90 37
M  V30 95 1 38 91 CFG=3
M  V30 96 1 39 92 CFG=3
M  V30 97 1 40 93 CFG=3
M  V30 98 1 94 42
M  V30 99 1 95 42
M  V30 100 1 96 42
M  V30 101 1 97 43
M  V30 102 1 98 43
M  V30 103 1 99 45
M  V30 104 1 100 45
M  V30 105 1 101 46
M  V30 106 1 102 46
M  V30 107 1 103 47
M  V30 108 1 48 104 CFG=1
M  V30 END BOND
M  V30 END CTAB
M  END
>  <i_epik_Tot_Q>  (1) 
0

>  <i_epik_Tot_abs_Q>  (1) 
0

>  <i_i_glide_confnum>  (1) 
2214

>  <i_i_glide_lignum>  (1) 
52

>  <i_i_glide_posenum>  (1) 
139

>  <i_i_glide_rotatable_bonds>  (1) 
15

>  <i_lp_mmshare_version>  (1) 
72125

>  <i_m_source_file_index>  (1) 
16

>  <i_f3d_flags>  (1) 
0

>  <num_sample>  (1) 
50

>  <b_lp_Chiralities_Consistent>  (1) 
1

>  <r_epik_Charging_Adjusted_Penalty>  (1) 
0

>  <r_epik_Ionization_Penalty>  (1) 
3.3580720903009909e-06

>  <r_epik_Ionization_Penalty_Charging>  (1) 
0

>  <r_epik_Ionization_Penalty_Neutral>  (1) 
3.3580720903009909e-06

>  <r_epik_State_Penalty>  (1) 
-0

>  <r_glide_ring_energy>  (1) 
0

>  <r_i_docking_score>  (1) 
-5.7270462520024141

>  <r_i_glide_ecoul>  (1) 
-6.1156997348722424

>  <r_i_glide_eff_state_penalty>  (1) 
-0

>  <r_i_glide_einternal>  (1) 
61.238655349963508

>  <r_i_glide_emodel>  (1) 
14.151325361443888

>  <r_i_glide_emodel_strain>  (1) 
4.5344893182605688

>  <r_i_glide_energy>  (1) 
-13.500756150896171

>  <r_i_glide_erotb>  (1) 
0.25945655678467749

>  <r_i_glide_esite>  (1) 
-0.046465458285954504

>  <r_i_glide_evdw>  (1) 
-7.3850564160239287

>  <r_i_glide_gscore>  (1) 
-5.7270462520024141

>  <r_i_glide_gscore_strain>  (1) 
0.13362232956514219

>  <r_i_glide_hbond>  (1) 
-0.30399999999999999

>  <r_i_glide_ligand_efficiency>  (1) 
-0.11931346358338363

>  <r_i_glide_ligand_efficiency_ln>  (1) 
-1.1756949136728423

>  <r_i_glide_ligand_efficiency_sa>  (1) 
-0.43361390335898797

>  <r_i_glide_lipo>  (1) 
-2.5708089864956176

>  <r_i_glide_metal>  (1) 
-0

>  <r_i_glide_rewards>  (1) 
-1.9122429125386291

>  <r_lp_Energy>  (1) 
45.559846

>  <r_lp_tautomer_probability>  (1) 
1

>  <s_epik_Chemistry_Notes>  (1) 
This compound contains an acetal/aminal-like group ( X-CH(R)-Y where X, Y are N, S, or O) that may be acid/base labile, releasing an aldehyde.

>  <s_epik_cmdline>  (1) 
J2VwaWtfcHl0aG9uJywgJy1waHQnLCAnMS4wJywgJy1waCcsICc3LjQnLCAnLXRuJywgJzgnLCAnLW1hJywgJzUwMCcsICctaW1hZScsICc8aW5maWxlLm1hZT4nLCAnLW9tYWUnLCAnPG91dGZpbGUubWFlPic=

>  <s_epik_input>  (1) 
W0NIMl0xW0NIMl1bQ0gyXUMoPU8pW0NAQEhdKFtDSDNdKVtDQF0oW09IXSkoW0NASF0yW09IXSlbQ0BASF0xQyg9TylOKFtDQF0yM1tPSF0pW0NIMl1bQ0gyXVtDQEBIXTNbQ0gyXVtDSDJdQyhbQ0gzXSkoW0NIM10pW0NAQEhdKFtDSDJdRilbQ0gyXVtDSDJdW0NASF0oW0NIMl00KVtDSDJdT1tDQEBIXShPW0NIM10pW0NASF00YyhbY0hdW2NIXVtjSF01KVtjSF1jNUMoPU8pW0NIMl1bQ0gzXQ==

>  <s_glide_docking_method>  (1) 
confgen

>  <s_i_glide_gridfile>  (1) 
gpcr_drd2_6luq_protein_autoprepared_prepared

>  <s_lp_Force_Field>  (1) 
S-OPLS

>  <s_lp_Variant>  (1) 
DiffSBDD_15_num_sample_50-1

>  <s_m_source_file>  (1) 
generated__ligand_DiffSBDD_2026-05-06_prepared.sdf

>  <GenAI_Model>  (1) 
DiffSBDD

>  <Protein>  (1) 
generic_title2

$$$$
DiffSBDD_3_num_sample_50
     RDKit          3D

  0  0  0  0  0  0  0  0  0  0999 V3000
M  V30 BEGIN CTAB
M  V30 COUNTS 57 60 0 0 1
M  V30 BEGIN ATOM
M  V30 1 C 6.600844 0.251632 -14.416564 0
M  V30 2 C 10.671705 8.905408 -5.891668 0
M  V30 3 C 6.251068 0.659099 -16.821727 0
M  V30 4 F 7.034842 2.681435 -17.737518 0
M  V30 5 C 8.288500 7.399817 -12.616682 0
M  V30 6 C 7.792021 6.660900 -13.888604 0 CFG=1
M  V30 7 C 9.535011 8.314274 -6.474168 0
M  V30 8 C 11.864023 8.692624 -8.004196 0
M  V30 9 C 7.665987 3.002796 -12.695818 0 CFG=1
M  V30 10 C 7.080440 5.340999 -13.509514 0
M  V30 11 C 10.759665 7.680051 -10.035592 0
M  V30 12 C 7.914537 4.068416 -13.781242 0 CFG=2
M  V30 13 C 7.365179 1.701003 -16.896940 0 CFG=1
M  V30 14 C 7.672279 3.526431 -15.187014 0
M  V30 15 O 6.167034 6.949872 -15.775397 0
M  V30 16 C 6.176855 2.813697 -12.363065 0
M  V30 17 C 5.467306 7.664845 -14.741492 0
M  V30 18 C 7.645812 2.211496 -15.494256 0
M  V30 19 C 10.722908 8.104982 -8.592861 0
M  V30 20 C 11.834843 9.093722 -6.655943 0
M  V30 21 N 9.599788 7.204183 -10.527329 0
M  V30 22 C 5.888381 0.004890 -15.692666 0
M  V30 23 C 9.557196 7.914755 -7.816479 0
M  V30 24 O 6.234841 -0.230696 -13.349038 0
M  V30 25 O 11.795991 7.769296 -10.691672 0
M  V30 26 C 9.455641 6.700684 -11.892119 0
M  V30 27 C 8.325335 1.670764 -13.082366 0
M  V30 28 C 7.858565 1.131836 -14.454368 0 CFG=1
M  V30 29 C 6.954996 7.591111 -14.764218 0 CFG=1
M  V30 30 H 10.650414 9.214325 -4.857345 0
M  V30 31 H 5.719810 0.460250 -17.740832 0
M  V30 32 H 8.599687 8.415063 -12.855826 0
M  V30 33 H 7.449262 7.523924 -11.929167 0
M  V30 34 H 8.634839 6.372280 -14.507387 0
M  V30 35 H 8.640690 8.169277 -5.891665 0
M  V30 36 H 12.761474 8.839280 -8.589101 0
M  V30 37 H 8.156674 3.369304 -11.792983 0
M  V30 38 H 6.123148 5.211486 -14.011425 0
M  V30 39 H 6.824488 5.404328 -12.452499 0
M  V30 40 H 8.975892 4.315771 -13.738543 0
M  V30 41 H 8.261526 1.234132 -17.307301 0
M  V30 42 H 7.505684 4.260269 -15.962688 0
M  V30 43 H 5.562072 2.800689 -13.263380 0
M  V30 44 H 5.998165 1.871643 -11.848573 0
M  V30 45 H 5.799475 3.603063 -11.713564 0
M  V30 46 H 5.034838 7.097550 -13.929460 0
M  V30 47 H 4.950927 8.557468 -15.091648 0
M  V30 48 H 12.707689 9.545383 -6.208321 0
M  V30 49 H 8.780175 7.182251 -9.926661 0
M  V30 50 H 5.074929 -0.706202 -15.698449 0
M  V30 51 H 8.678279 7.460336 -8.247032 0
M  V30 52 H 9.262717 5.632922 -11.799153 0
M  V30 53 H 10.367926 6.793560 -12.483454 0
M  V30 54 H 9.404709 1.807890 -13.091664 0
M  V30 55 H 8.163408 0.933274 -12.296540 0
M  V30 56 H 8.634843 0.469425 -14.829006 0
M  V30 57 H 7.434836 8.509050 -15.086532 0
M  V30 END ATOM
M  V30 BEGIN BOND
M  V30 1 1 6 5
M  V30 2 2 7 2
M  V30 3 1 10 6
M  V30 4 1 12 9
M  V30 5 1 12 10
M  V30 6 1 13 3
M  V30 7 1 13 4
M  V30 8 1 14 12
M  V30 9 1 16 9
M  V30 10 1 17 15
M  V30 11 1 18 13
M  V30 12 2 18 14
M  V30 13 1 19 8
M  V30 14 1 19 11
M  V30 15 1 20 2
M  V30 16 2 20 8
M  V30 17 1 21 11
M  V30 18 1 22 1
M  V30 19 2 22 3
M  V30 20 1 23 7
M  V30 21 2 23 19
M  V30 22 2 24 1
M  V30 23 2 25 11
M  V30 24 1 26 5
M  V30 25 1 26 21
M  V30 26 1 27 9
M  V30 27 1 28 1
M  V30 28 1 28 18
M  V30 29 1 28 27
M  V30 30 1 29 6
M  V30 31 1 29 15
M  V30 32 1 29 17
M  V30 33 1 30 2
M  V30 34 1 31 3
M  V30 35 1 32 5
M  V30 36 1 33 5
M  V30 37 1 6 34 CFG=3
M  V30 38 1 35 7
M  V30 39 1 36 8
M  V30 40 1 9 37 CFG=1
M  V30 41 1 38 10
M  V30 42 1 39 10
M  V30 43 1 12 40 CFG=3
M  V30 44 1 13 41 CFG=3
M  V30 45 1 42 14
M  V30 46 1 43 16
M  V30 47 1 44 16
M  V30 48 1 45 16
M  V30 49 1 46 17
M  V30 50 1 47 17
M  V30 51 1 48 20
M  V30 52 1 49 21
M  V30 53 1 50 22
M  V30 54 1 51 23
M  V30 55 1 52 26
M  V30 56 1 53 26
M  V30 57 1 54 27
M  V30 58 1 55 27
M  V30 59 1 28 56 CFG=3
M  V30 60 1 29 57 CFG=3
M  V30 END BOND
M  V30 END CTAB
M  END
>  <i_epik_Tot_Q>  (1) 
0

>  <i_epik_Tot_abs_Q>  (1) 
0

>  <i_i_glide_confnum>  (1) 
479

>  <i_i_glide_lignum>  (1) 
10

>  <i_i_glide_posenum>  (1) 
90

>  <i_i_glide_rotatable_bonds>  (1) 
8

>  <i_lp_mmshare_version>  (1) 
72125

>  <i_m_source_file_index>  (1) 
4

>  <i_f3d_flags>  (1) 
0

>  <num_sample>  (1) 
50

>  <b_lp_Chiralities_Consistent>  (1) 
1

>  <r_epik_Charging_Adjusted_Penalty>  (1) 
0

>  <r_epik_Ionization_Penalty>  (1) 
1.5409479738535797e-07

>  <r_epik_Ionization_Penalty_Charging>  (1) 
0

>  <r_epik_Ionization_Penalty_Neutral>  (1) 
1.5409479738535797e-07

>  <r_epik_State_Penalty>  (1) 
-0

>  <r_glide_ring_energy>  (1) 
0

>  <r_i_docking_score>  (1) 
-5.7264848479607666

>  <r_i_glide_ecoul>  (1) 
-4.3081065783992134

>  <r_i_glide_eff_state_penalty>  (1) 
-0

>  <r_i_glide_einternal>  (1) 
11.242282873465559

>  <r_i_glide_emodel>  (1) 
-45.817191512721791

>  <r_i_glide_emodel_strain>  (1) 
0.47173690722740247

>  <r_i_glide_energy>  (1) 
-39.078575333378424

>  <r_i_glide_erotb>  (1) 
0.86725254217801073

>  <r_i_glide_esite>  (1) 
-0.098380509432069982

>  <r_i_glide_evdw>  (1) 
-34.770468754979213

>  <r_i_glide_gscore>  (1) 
-5.7264848479607666

>  <r_i_glide_gscore_strain>  (1) 
0

>  <r_i_glide_hbond>  (1) 
0

>  <r_i_glide_ligand_efficiency>  (1) 
-0.19746499475726781

>  <r_i_glide_ligand_efficiency_ln>  (1) 
-1.3112198190564299

>  <r_i_glide_ligand_efficiency_sa>  (1) 
-0.60667502587672162

>  <r_i_glide_lipo>  (1) 
-2.3612372985360173

>  <r_i_glide_metal>  (1) 
-0

>  <r_i_glide_rewards>  (1) 
-1.7493801576618466

>  <r_lp_Energy>  (1) 
34.697915000000002

>  <r_lp_tautomer_probability>  (1) 
1

>  <s_epik_cmdline>  (1) 
J2VwaWtfcHl0aG9uJywgJy1waHQnLCAnMS4wJywgJy1waCcsICc3LjQnLCAnLXRuJywgJzgnLCAnLW1hJywgJzUwMCcsICctaW1hZScsICc8aW5maWxlLm1hZT4nLCAnLW9tYWUnLCAnPG91dGZpbGUubWFlPic=

>  <s_epik_input>  (1) 
RltDQEBIXTFbQ0hdPVtDSF1DKD1PKVtDQEBIXShDMTIpW0NIMl1bQ0BIXShbQ0gzXSlbQ0BASF0oW0NIXT0yKVtDSDJdW0NAQEhdKFtDQEhdM09bQ0gyXTMpW0NIMl1bQ0gyXVtOSF1DKD1PKWM0W2NIXVtjSF1bY0hdW2NIXVtjSF00

>  <s_glide_docking_method>  (1) 
confgen

>  <s_i_glide_gridfile>  (1) 
gpcr_drd2_6luq_protein_autoprepared_prepared

>  <s_lp_Force_Field>  (1) 
S-OPLS

>  <s_lp_Variant>  (1) 
DiffSBDD_3_num_sample_50-1

>  <s_m_source_file>  (1) 
generated__ligand_DiffSBDD_2026-05-06_prepared.sdf

>  <GenAI_Model>  (1) 
DiffSBDD

>  <Protein>  (1) 
generic_title2

$$$$
DiffSBDD_23_num_sample_50
     RDKit          3D

  0  0  0  0  0  0  0  0  0  0999 V3000
M  V30 BEGIN CTAB
M  V30 COUNTS 68 70 0 0 1
M  V30 BEGIN ATOM
M  V30 1 C 10.018364 6.953499 -10.829266 0
M  V30 2 C 8.870394 5.881656 -8.335518 0
M  V30 3 C 11.834854 6.781187 -3.596417 0
M  V30 4 C 11.831926 9.200690 -3.909157 0
M  V30 5 C 9.886522 7.869597 -9.607064 0
M  V30 6 C 12.144428 9.369303 -2.556073 0
M  V30 7 C 8.760614 5.594373 -13.334734 0 CFG=1
M  V30 8 O 8.968032 6.169297 -18.702605 0 CHG=-1
M  V30 9 C 9.805571 7.111231 -8.270542 0 CFG=2
M  V30 10 O 11.344759 7.770629 -5.758409 0
M  V30 11 C 8.459579 5.055627 -18.443693 0
M  V30 12 C 9.047025 5.029923 -9.590110 0
M  V30 13 C 8.934307 4.348407 -17.142012 0
M  V30 14 N 9.034867 5.833390 -10.835552 0 CFG=2 CHG=1
M  V30 15 O 7.601502 4.466740 -19.139018 0
M  V30 16 C 7.281149 5.982057 -13.313515 0
M  V30 17 C 9.185205 4.937340 -12.014622 0
M  V30 18 C 7.141998 5.712410 -15.807359 0
M  V30 19 C 10.460060 4.145610 -17.300204 0
M  V30 20 C 12.174251 6.957857 -2.248731 0
M  V30 21 C 11.200137 6.695303 -7.812188 0
M  V30 22 C 11.315191 6.476284 -6.317874 0
M  V30 23 C 8.265012 2.953018 -17.015927 0
M  V30 24 C 9.081391 4.692055 -14.543388 0
M  V30 25 C 5.434842 7.071738 -14.580690 0
M  V30 26 C 8.621678 5.269066 -15.905812 0 CFG=1
M  V30 27 C 6.892806 6.660624 -14.627074 0 CFG=1
M  V30 28 C 11.670780 7.911680 -4.436689 0
M  V30 29 C 12.328217 8.254020 -1.728974 0
M  V30 30 H 11.031844 6.569319 -10.897215 0
M  V30 31 H 9.879842 7.579364 -11.708563 0
M  V30 32 H 8.997816 5.248303 -7.460386 0
M  V30 33 H 7.834840 6.169300 -8.291664 0
M  V30 34 H 11.707482 5.782684 -3.983629 0
M  V30 35 H 11.695779 10.064067 -4.543810 0
M  V30 36 H 9.034131 8.521493 -9.728026 0
M  V30 37 H 10.724604 8.567236 -9.593943 0
M  V30 38 H 12.234849 10.361624 -2.148586 0
M  V30 39 H 9.332938 6.501198 -13.461045 0
M  V30 40 H 9.401197 7.805893 -7.532094 0
M  V30 41 H 9.953519 4.434517 -9.521228 0
M  V30 42 H 8.215621 4.326093 -9.634209 0
M  V30 43 H 6.665034 5.096025 -13.150863 0
M  V30 44 H 7.075340 6.661423 -12.485329 0
M  V30 45 H 10.221002 4.596485 -12.077819 0
M  V30 46 H 8.583078 4.037973 -11.873507 0
M  V30 47 H 6.821544 6.216802 -16.718722 0
M  V30 48 H 6.502376 4.836811 -15.703326 0
M  V30 49 H 10.879603 3.534754 -16.504490 0
M  V30 50 H 10.696341 3.642941 -18.239950 0
M  V30 51 H 10.996172 5.095869 -17.297032 0
M  V30 52 H 12.307671 6.097843 -1.607881 0
M  V30 53 H 11.962131 7.412751 -8.117651 0
M  V30 54 H 11.434837 5.769302 -8.298384 0
M  V30 55 H 12.234812 5.927833 -6.116398 0
M  V30 56 H 10.479342 5.899695 -5.923160 0
M  V30 57 H 8.634700 2.393686 -16.158044 0
M  V30 58 H 7.181076 3.023126 -16.924001 0
M  V30 59 H 8.471482 2.335737 -17.891664 0
M  V30 60 H 10.161770 4.569301 -14.575625 0
M  V30 61 H 8.634810 3.713887 -14.373456 0
M  V30 62 H 4.836624 6.169279 -14.455690 0
M  V30 63 H 5.226804 7.741104 -13.744509 0
M  V30 64 H 5.124449 7.571574 -15.499302 0
M  V30 65 H 9.215290 6.169298 -16.046685 0
M  V30 66 H 7.488381 7.564947 -14.752044 0
M  V30 67 H 12.580031 8.394291 -0.691671 0
M  V30 68 H 8.117208 6.262525 -10.869478 0
M  V30 END ATOM
M  V30 BEGIN BOND
M  V30 1 1 5 1
M  V30 2 1 6 4
M  V30 3 1 9 2
M  V30 4 1 9 5
M  V30 5 1 11 8
M  V30 6 1 12 2
M  V30 7 1 13 11
M  V30 8 1 14 1
M  V30 9 1 14 12
M  V30 10 2 15 11
M  V30 11 1 16 7
M  V30 12 1 17 7
M  V30 13 1 17 14
M  V30 14 1 19 13
M  V30 15 2 20 3
M  V30 16 1 21 9
M  V30 17 1 22 10
M  V30 18 1 22 21
M  V30 19 1 23 13
M  V30 20 1 24 7
M  V30 21 1 26 13
M  V30 22 1 26 18
M  V30 23 1 26 24
M  V30 24 1 27 16
M  V30 25 1 27 18
M  V30 26 1 27 25
M  V30 27 1 28 3
M  V30 28 2 28 4
M  V30 29 1 28 10
M  V30 30 2 29 6
M  V30 31 1 29 20
M  V30 32 1 30 1
M  V30 33 1 31 1
M  V30 34 1 32 2
M  V30 35 1 33 2
M  V30 36 1 34 3
M  V30 37 1 35 4
M  V30 38 1 36 5
M  V30 39 1 37 5
M  V30 40 1 38 6
M  V30 41 1 7 39 CFG=3
M  V30 42 1 9 40 CFG=1
M  V30 43 1 41 12
M  V30 44 1 42 12
M  V30 45 1 43 16
M  V30 46 1 44 16
M  V30 47 1 45 17
M  V30 48 1 46 17
M  V30 49 1 47 18
M  V30 50 1 48 18
M  V30 51 1 49 19
M  V30 52 1 50 19
M  V30 53 1 51 19
M  V30 54 1 52 20
M  V30 55 1 53 21
M  V30 56 1 54 21
M  V30 57 1 55 22
M  V30 58 1 56 22
M  V30 59 1 57 23
M  V30 60 1 58 23
M  V30 61 1 59 23
M  V30 62 1 60 24
M  V30 63 1 61 24
M  V30 64 1 62 25
M  V30 65 1 63 25
M  V30 66 1 64 25
M  V30 67 1 26 65 CFG=3
M  V30 68 1 27 66 CFG=3
M  V30 69 1 67 29
M  V30 70 1 14 68 CFG=3
M  V30 END BOND
M  V30 END CTAB
M  END
>  <i_epik_Tot_Q>  (1) 
0

>  <i_epik_Tot_abs_Q>  (1) 
2

>  <i_i_glide_confnum>  (1) 
143

>  <i_i_glide_lignum>  (1) 
63

>  <i_i_glide_posenum>  (1) 
244

>  <i_i_glide_rotatable_bonds>  (1) 
8

>  <i_lp_mmshare_version>  (1) 
72125

>  <i_m_source_file_index>  (1) 
24

>  <i_f3d_flags>  (1) 
0

>  <num_sample>  (1) 
50

>  <b_lp_Chiralities_Consistent>  (1) 
1

>  <r_epik_Charging_Adjusted_Penalty>  (1) 
0.003094722008017318

>  <r_epik_Ionization_Penalty>  (1) 
0.003094722008017318

>  <r_epik_Ionization_Penalty_Charging>  (1) 
0.003094722008017318

>  <r_epik_Ionization_Penalty_Neutral>  (1) 
0

>  <r_epik_State_Penalty>  (1) 
-0

>  <r_glide_ring_energy>  (1) 
0

>  <r_i_docking_score>  (1) 
-5.7167644825730521

>  <r_i_glide_ecoul>  (1) 
-3.9203677728226092

>  <r_i_glide_eff_state_penalty>  (1) 
-0

>  <r_i_glide_einternal>  (1) 
8.8175254491555997

>  <r_i_glide_emodel>  (1) 
-35.653043837331573

>  <r_i_glide_emodel_strain>  (1) 
0.042530731480901807

>  <r_i_glide_energy>  (1) 
-29.618886542905873

>  <r_i_glide_erotb>  (1) 
0.72975461734148295

>  <r_i_glide_esite>  (1) 
-0.054125638839229544

>  <r_i_glide_evdw>  (1) 
-25.698518770083265

>  <r_i_glide_gscore>  (1) 
-5.7167644825730521

>  <r_i_glide_gscore_strain>  (1) 
0

>  <r_i_glide_hbond>  (1) 
0

>  <r_i_glide_ligand_efficiency>  (1) 
-0.19712980974389835

>  <r_i_glide_ligand_efficiency_ln>  (1) 
-1.3089941018698421

>  <r_i_glide_ligand_efficiency_sa>  (1) 
-0.60564523132042891

>  <r_i_glide_lipo>  (1) 
-2.8983508559393423

>  <r_i_glide_metal>  (1) 
-0

>  <r_i_glide_rewards>  (1) 
-1.6210615007084084

>  <r_lp_Energy>  (1) 
51.626332999999995

>  <r_lp_tautomer_probability>  (1) 
1

>  <s_epik_cmdline>  (1) 
J2VwaWtfcHl0aG9uJywgJy1waHQnLCAnMS4wJywgJy1waCcsICc3LjQnLCAnLXRuJywgJzgnLCAnLW1hJywgJzUwMCcsICctaW1hZScsICc8aW5maWxlLm1hZT4nLCAnLW9tYWUnLCAnPG91dGZpbGUubWFlPic=

>  <s_epik_input>  (1) 
W09IXUMoPU8pQyhbQ0gzXSkoW0NIM10pW0NASF0oW0NIMl0xKVtDSDJdW0NAQEhdKFtDSDNdKVtDSDJdW0NASF0xW0NIMl1OKFtDSDJdW0NIMl0yKVtDSDJdW0NIMl1bQ0hdMltDSDJdW0NIMl1PYzNbY0hdW2NIXVtjSF1bY0hdW2NIXTM=

>  <s_glide_docking_method>  (1) 
confgen

>  <s_i_glide_gridfile>  (1) 
gpcr_drd2_6luq_protein_autoprepared_prepared

>  <s_lp_Force_Field>  (1) 
S-OPLS

>  <s_lp_Variant>  (1) 
DiffSBDD_23_num_sample_50-2

>  <s_m_source_file>  (1) 
generated__ligand_DiffSBDD_2026-05-06_prepared.sdf

>  <GenAI_Model>  (1) 
DiffSBDD

>  <Protein>  (1) 
generic_title2

$$$$
DiffSBDD_34_num_sample_50
     RDKit          3D

  0  0  0  0  0  0  0  0  0  0999 V3000
M  V30 BEGIN CTAB
M  V30 COUNTS 109 114 0 0 1
M  V30 BEGIN ATOM
M  V30 1 C 9.010420 4.420794 -21.185482 0
M  V30 2 C 5.300579 5.994643 -17.547417 0
M  V30 3 C 6.473343 6.668185 -15.433010 0
M  V30 4 C 11.987301 4.216645 -19.466754 0
M  V30 5 C 7.815300 5.105270 -9.873849 0
M  V30 6 C 15.480831 8.710254 -19.868782 0 CFG=2
M  V30 7 C 4.917550 7.350660 -18.177065 0 CFG=2
M  V30 8 C 7.328736 6.160867 -14.260711 0
M  V30 9 O 10.877774 6.074798 -21.133539 0
M  V30 10 C 15.308692 4.179839 -19.300242 0 CFG=1
M  V30 11 N 14.634852 10.569304 -18.441576 0 CHG=1
M  V30 12 C 11.875620 5.291560 -21.757573 0 CFG=1
M  V30 13 O 6.717377 6.910273 -22.053720 0
M  V30 14 C 6.664153 5.972564 -16.808490 0 CFG=1
M  V30 15 C 8.829250 7.062796 -20.900616 0
M  V30 16 F 11.773878 6.404682 -23.821139 0
M  V30 17 C 13.179775 7.374965 -22.219527 0
M  V30 18 C 9.456089 5.414696 -7.998807 0
M  V30 19 O 14.249287 8.362606 -20.458453 0
M  V30 20 C 7.282823 4.551733 -16.720121 0
M  V30 21 C 3.407214 7.577472 -18.035371 0
M  V30 22 C 5.399785 7.449201 -19.634072 0
M  V30 23 C 9.257460 5.409010 -9.523070 0 CFG=2
M  V30 24 C 10.926079 3.175054 -19.875075 0
M  V30 25 O 9.350752 8.378760 -11.891707 0
M  V30 26 O 6.731088 7.187393 -19.757076 0
M  V30 27 C 9.041643 4.341472 -18.563320 0
M  V30 28 C 9.034839 7.294261 -11.412937 0
M  V30 29 C 12.608881 6.100943 -22.827772 0 CFG=1
M  V30 30 C 12.808519 4.869596 -20.608744 0 CFG=1
M  V30 31 C 7.310863 7.046698 -20.980763 0
M  V30 32 O 4.634792 7.746257 -20.556059 0
M  V30 33 O 10.752930 7.306315 -9.660344 0
M  V30 34 C 7.702248 5.174825 -11.374451 0
M  V30 35 C 9.461603 3.680255 -19.894810 0 CFG=1
M  V30 36 C 15.722076 7.935444 -18.569460 0
M  V30 37 C 14.770219 5.568640 -19.021028 0 CFG=1
M  V30 38 C 16.009248 6.473160 -18.834438 0
M  V30 39 C 5.702746 7.188526 -12.492944 0
M  V30 40 C 14.166831 7.082753 -21.077928 0 CFG=1
M  V30 41 C 15.438776 10.217641 -19.628367 0
M  V30 42 O 16.234832 3.769287 -18.294655 0
M  V30 43 C 7.154399 7.006934 -12.987045 0 CFG=1
M  V30 44 C 9.781991 6.720366 -10.146883 0
M  V30 45 C 13.662930 6.053341 -20.025915 0 CFG=1
M  V30 46 N 8.012708 6.516058 -11.891659 0
M  V30 47 C 9.540094 5.852573 -21.528140 0 CFG=2
M  V30 48 C 7.658465 3.901217 -18.067683 0
M  V30 49 C 15.067629 2.963873 -18.425363 0
M  V30 50 H 9.274626 3.773553 -22.021734 0
M  V30 51 H 7.921491 4.423487 -21.211774 0
M  V30 52 H 5.245744 5.227881 -18.316655 0
M  V30 53 H 4.517114 5.712665 -16.847226 0
M  V30 54 H 5.434785 6.572005 -15.119968 0
M  V30 55 H 6.633885 7.740115 -15.560380 0
M  V30 56 H 11.527998 5.000529 -18.866566 0
M  V30 57 H 12.655446 3.722133 -18.773672 0
M  V30 58 H 7.115121 5.769297 -9.383754 0
M  V30 59 H 7.522258 4.126799 -9.521291 0
M  V30 60 H 16.282595 8.517828 -20.583355 0
M  V30 61 H 5.412753 8.154362 -17.630962 0
M  V30 62 H 8.380929 6.169278 -14.544895 0
M  V30 63 H 7.069089 5.123747 -14.048664 0
M  V30 64 H 15.684353 4.018198 -20.309122 0
M  V30 65 H 14.646333 11.569007 -18.280716 0
M  V30 66 H 13.667417 10.281370 -18.564975 0
M  V30 67 H 11.460914 4.404884 -22.235407 0
M  V30 68 H 7.381167 6.565898 -17.373727 0
M  V30 69 H 9.118303 7.164439 -19.854851 0
M  V30 70 H 9.179043 7.973058 -21.388491 0
M  V30 71 H 13.673999 7.968082 -22.989476 0
M  V30 72 H 12.356448 7.991059 -21.851705 0
M  V30 73 H 10.513264 5.440168 -7.731824 0
M  V30 74 H 8.968827 6.278414 -7.541689 0
M  V30 75 H 9.025372 4.523564 -7.550779 0
M  V30 76 H 8.197371 4.579543 -16.128967 0
M  V30 77 H 6.634841 3.886537 -16.158024 0
M  V30 78 H 3.034810 8.380381 -18.672104 0
M  V30 79 H 2.862711 6.670778 -18.291665 0
M  V30 80 H 3.149776 7.828536 -17.005767 0
M  V30 81 H 9.853719 4.599639 -9.937423 0
M  V30 82 H 10.965907 2.377248 -19.131370 0
M  V30 83 H 11.188705 2.679258 -20.810454 0
M  V30 84 H 9.103088 5.424609 -18.632030 0
M  V30 85 H 9.752189 4.059492 -17.785515 0
M  V30 86 H 13.404849 5.504319 -23.274426 0
M  V30 87 H 13.465083 4.118242 -21.046656 0
M  V30 88 H 6.702590 4.851563 -11.658706 0
M  V30 89 H 8.382159 4.458545 -11.838759 0
M  V30 90 H 8.899519 2.745735 -19.940407 0
M  V30 91 H 16.589346 8.365071 -18.065014 0
M  V30 92 H 14.883440 8.021771 -17.877119 0
M  V30 93 H 14.282571 5.510953 -18.046774 0
M  V30 94 H 16.687641 6.373811 -19.683082 0
M  V30 95 H 16.576090 6.117809 -17.972668 0
M  V30 96 H 5.107742 7.769312 -13.196245 0
M  V30 97 H 5.188038 6.239786 -12.352860 0
M  V30 98 H 5.679631 7.725197 -11.542802 0
M  V30 99 H 15.111943 6.760397 -21.518175 0
M  V30 100 H 16.458108 10.569318 -19.491688 0
M  V30 101 H 15.046486 10.721470 -20.509304 0
M  V30 102 H 7.462800 8.011830 -13.276499 0
M  V30 103 H 12.961095 6.639607 -19.429798 0
M  V30 104 H 9.475263 5.978650 -22.609865 0
M  V30 105 H 7.684626 2.820140 -17.920379 0
M  V30 106 H 6.912725 4.070094 -18.841523 0
M  V30 107 H 14.401519 3.021519 -17.566817 0
M  V30 108 H 15.240134 1.975304 -18.845421 0
M  V30 109 H 15.000659 10.101039 -17.627200 0
M  V30 END ATOM
M  V30 BEGIN BOND
M  V30 1 1 7 2
M  V30 2 1 8 3
M  V30 3 1 12 9
M  V30 4 1 14 2
M  V30 5 1 14 3
M  V30 6 1 19 6
M  V30 7 1 20 14
M  V30 8 1 21 7
M  V30 9 1 22 7
M  V30 10 1 23 5
M  V30 11 1 23 18
M  V30 12 1 24 4
M  V30 13 1 26 22
M  V30 14 2 28 25
M  V30 15 1 29 12
M  V30 16 1 29 16
M  V30 17 1 29 17
M  V30 18 1 30 4
M  V30 19 1 30 12
M  V30 20 2 31 13
M  V30 21 1 31 15
M  V30 22 1 31 26
M  V30 23 2 32 22
M  V30 24 1 34 5
M  V30 25 1 35 1
M  V30 26 1 35 24
M  V30 27 1 35 27
M  V30 28 1 36 6
M  V30 29 1 37 10
M  V30 30 1 38 36
M  V30 31 1 38 37
M  V30 32 1 40 17
M  V30 33 1 40 19
M  V30 34 1 41 6
M  V30 35 1 41 11
M  V30 36 1 42 10
M  V30 37 1 43 8
M  V30 38 1 43 39
M  V30 39 1 44 23
M  V30 40 1 44 28
M  V30 41 2 44 33
M  V30 42 1 45 30
M  V30 43 1 45 37
M  V30 44 1 45 40
M  V30 45 1 46 28
M  V30 46 1 46 34
M  V30 47 1 46 43
M  V30 48 1 47 1
M  V30 49 1 47 9
M  V30 50 1 47 15
M  V30 51 1 48 20
M  V30 52 1 48 27
M  V30 53 1 49 10
M  V30 54 1 49 42
M  V30 55 1 50 1
M  V30 56 1 51 1
M  V30 57 1 52 2
M  V30 58 1 53 2
M  V30 59 1 54 3
M  V30 60 1 55 3
M  V30 61 1 56 4
M  V30 62 1 57 4
M  V30 63 1 58 5
M  V30 64 1 59 5
M  V30 65 1 6 60 CFG=3
M  V30 66 1 7 61 CFG=1
M  V30 67 1 62 8
M  V30 68 1 63 8
M  V30 69 1 10 64 CFG=3
M  V30 70 1 65 11
M  V30 71 1 66 11
M  V30 72 1 12 67 CFG=3
M  V30 73 1 14 68 CFG=3
M  V30 74 1 69 15
M  V30 75 1 70 15
M  V30 76 1 71 17
M  V30 77 1 72 17
M  V30 78 1 73 18
M  V30 79 1 74 18
M  V30 80 1 75 18
M  V30 81 1 76 20
M  V30 82 1 77 20
M  V30 83 1 78 21
M  V30 84 1 79 21
M  V30 85 1 80 21
M  V30 86 1 23 81 CFG=3
M  V30 87 1 82 24
M  V30 88 1 83 24
M  V30 89 1 84 27
M  V30 90 1 85 27
M  V30 91 1 29 86 CFG=3
M  V30 92 1 30 87 CFG=3
M  V30 93 1 88 34
M  V30 94 1 89 34
M  V30 95 1 35 90 CFG=3
M  V30 96 1 91 36
M  V30 97 1 92 36
M  V30 98 1 37 93 CFG=1
M  V30 99 1 94 38
M  V30 100 1 95 38
M  V30 101 1 96 39
M  V30 102 1 97 39
M  V30 103 1 98 39
M  V30 104 1 40 99 CFG=3
M  V30 105 1 100 41
M  V30 106 1 101 41
M  V30 107 1 43 102 CFG=3
M  V30 108 1 45 103 CFG=1
M  V30 109 1 47 104 CFG=3
M  V30 110 1 105 48
M  V30 111 1 106 48
M  V30 112 1 107 49
M  V30 113 1 108 49
M  V30 114 1 109 11
M  V30 END BOND
M  V30 END CTAB
M  END
>  <i_epik_Tot_Q>  (1) 
1

>  <i_epik_Tot_abs_Q>  (1) 
1

>  <i_i_glide_confnum>  (1) 
473

>  <i_i_glide_lignum>  (1) 
87

>  <i_i_glide_posenum>  (1) 
273

>  <i_i_glide_rotatable_bonds>  (1) 
6

>  <i_lp_mmshare_version>  (1) 
72125

>  <i_m_source_file_index>  (1) 
35

>  <i_f3d_flags>  (1) 
0

>  <num_sample>  (1) 
50

>  <b_lp_Chiralities_Consistent>  (1) 
1

>  <r_epik_Charging_Adjusted_Penalty>  (1) 
0.0091647518509246212

>  <r_epik_Ionization_Penalty>  (1) 
0.0045823761218381463

>  <r_epik_Ionization_Penalty_Charging>  (1) 
0.0045823759254623037

>  <r_epik_Ionization_Penalty_Neutral>  (1) 
1.9637584269267853e-10

>  <r_epik_State_Penalty>  (1) 
0.0045823759254623184

>  <r_glide_ring_energy>  (1) 
0

>  <r_i_docking_score>  (1) 
-5.7048217512006305

>  <r_i_glide_ecoul>  (1) 
-10.477714198945066

>  <r_i_glide_eff_state_penalty>  (1) 
0.0045823759254623184

>  <r_i_glide_einternal>  (1) 
15.582076785027162

>  <r_i_glide_emodel>  (1) 
-48.334799139202985

>  <r_i_glide_emodel_strain>  (1) 
2.2852704077931065

>  <r_i_glide_energy>  (1) 
-43.32564135517373

>  <r_i_glide_erotb>  (1) 
0.051949520036259446

>  <r_i_glide_esite>  (1) 
-0.29071940332554369

>  <r_i_glide_evdw>  (1) 
-32.847927156228664

>  <r_i_glide_gscore>  (1) 
-5.7094041271260929

>  <r_i_glide_gscore_strain>  (1) 
0

>  <r_i_glide_hbond>  (1) 
-0.16564382352223939

>  <r_i_glide_ligand_efficiency>  (1) 
-0.11642493369797205

>  <r_i_glide_ligand_efficiency_ln>  (1) 
-1.1661960995182121

>  <r_i_glide_ligand_efficiency_sa>  (1) 
-0.42603442467003505

>  <r_i_glide_lipo>  (1) 
-1.2908793918268988

>  <r_i_glide_metal>  (1) 
-0

>  <r_i_glide_rewards>  (1) 
-0.80005754083447755

>  <r_lp_Energy>  (1) 
81.194295999999994

>  <r_lp_tautomer_probability>  (1) 
0.99995000000000001

>  <s_epik_cmdline>  (1) 
J2VwaWtfcHl0aG9uJywgJy1waHQnLCAnMS4wJywgJy1waCcsICc3LjQnLCAnLXRuJywgJzgnLCAnLW1hJywgJzUwMCcsICctaW1hZScsICc8aW5maWxlLm1hZT4nLCAnLW9tYWUnLCAnPG91dGZpbGUubWFlPic=

>  <s_epik_input>  (1) 
W0NIMl0xT1tDQEBIXTFbQ0BIXTJbQ0gyXVtDSDJdW0NASF0oW0NIMl1bTkgyXSlPW0NASF0oW0NIMl1bQ0BASF0zRilbQ0BIXTJbQ0BIXShbQ0BIXTM0KVtDSDJdW0NIMl1bQ0BASF01W0NIMl1bQ0BIXShPNClbQ0gyXUMoPU8pT0MoPU8pW0NAQEhdKFtDSDNdKVtDSDJdW0NASF0oW0NIMl1bQ0gyXVtDSDJdNSlbQ0gyXVtDSDJdW0NAQEhdKFtDSDNdKU4oQyg9TylDNj1PKVtDSDJdW0NIMl1bQ0BASF02W0NIM10=

>  <s_glide_docking_method>  (1) 
confgen

>  <s_i_glide_gridfile>  (1) 
gpcr_drd2_6luq_protein_autoprepared_prepared

>  <s_lp_Force_Field>  (1) 
S-OPLS

>  <s_lp_Variant>  (1) 
DiffSBDD_34_num_sample_50-1

>  <s_m_source_file>  (1) 
generated__ligand_DiffSBDD_2026-05-06_prepared.sdf

>  <GenAI_Model>  (1) 
DiffSBDD

>  <Protein>  (1) 
generic_title2

$$$$
DiffSBDD_10_num_sample_50
     RDKit          3D

  0  0  0  0  0  0  0  0  0  0999 V3000
M  V30 BEGIN CTAB
M  V30 COUNTS 72 73 0 0 1
M  V30 BEGIN ATOM
M  V30 1 C 10.584555 7.651492 -8.532481 0 CFG=2
M  V30 2 C 5.671131 -0.246530 -17.864210 0
M  V30 3 C 7.122389 2.726550 -15.568305 0
M  V30 4 C 7.269707 4.579221 -12.550729 0 CFG=1
M  V30 5 C 9.342315 6.789423 -8.849808 0 CFG=2
M  V30 6 N 6.291135 -0.228665 -15.525725 0
M  V30 7 N 7.196377 5.369317 -10.319943 0
M  V30 8 C 8.569640 5.327813 -10.737637 0 CFG=1
M  V30 9 S 11.018707 7.593430 -6.703987 0
M  V30 10 C 4.416917 -1.091831 -17.707868 0
M  V30 11 S 12.145477 9.369500 -6.355173 0 CHG=-1
M  V30 12 C 12.750372 8.756876 -9.457324 0
M  V30 13 O 4.788460 -5.423361 -17.091713 0
M  V30 14 O 9.815558 7.784745 -5.891507 0
M  V30 15 C 9.279454 8.325553 -8.696711 0 CFG=2
M  V30 16 C 9.187301 2.784260 -17.122909 0
M  V30 17 C 6.323624 5.064792 -11.441067 0 CFG=1
M  V30 18 N 5.446386 -3.268267 -17.091673 0 CHG=1
M  V30 19 N 7.622348 0.890421 -17.095928 0
M  V30 20 C 4.636598 -2.563694 -18.109017 0
M  V30 21 C 8.527927 6.827951 -12.778283 0
M  V30 22 C 11.730847 7.633212 -9.547360 0
M  V30 23 C 8.893202 5.743979 -7.814885 0
M  V30 24 C 6.641119 4.624467 -13.964177 0
M  V30 25 C 7.940047 2.043381 -16.619849 0
M  V30 26 O 9.034830 8.969244 -9.925438 0
M  V30 27 C 6.481363 0.118485 -16.852826 0
M  V30 28 O 11.834652 6.396739 -6.476069 0
M  V30 29 F 5.678631 6.175675 -11.791449 0
M  V30 30 N 10.072142 1.950427 -17.923854 0
M  V30 31 C 5.906955 -4.630747 -17.441043 0
M  V30 32 C 8.563703 5.365817 -12.279304 0 CFG=2
M  V30 33 O 9.382167 6.363318 -10.237294 0
M  V30 34 C 7.462205 3.919067 -15.031065 0
M  V30 35 H 5.909622 0.068344 -18.870395 0
M  V30 36 H 6.234778 2.214376 -15.251810 0
M  V30 37 H 7.489118 3.531559 -12.337818 0
M  V30 38 H 5.467561 -0.728416 -15.215962 0
M  V30 39 H 6.984294 6.309777 -9.954032 0
M  V30 40 H 8.997516 4.384724 -10.391848 0
M  V30 41 H 3.663108 -0.654578 -18.360492 0
M  V30 42 H 4.020932 -1.023559 -16.694480 0
M  V30 43 H 13.377652 8.771362 -10.348065 0
M  V30 44 H 12.241856 9.721107 -9.384588 0
M  V30 45 H 13.422209 8.627633 -8.609225 0
M  V30 46 H 4.512838 -5.190728 -16.201331 0
M  V30 47 H 8.742672 8.767091 -7.859993 0
M  V30 48 H 8.870985 3.637730 -17.725030 0
M  V30 49 H 9.763982 3.180505 -16.292044 0
M  V30 50 H 5.570293 4.322059 -11.178342 0
M  V30 51 H 4.920460 -3.347179 -16.218969 0
M  V30 52 H 5.143395 -2.609198 -19.074987 0
M  V30 53 H 3.684619 -3.080717 -18.241020 0
M  V30 54 H 7.823680 7.440559 -12.215092 0
M  V30 55 H 9.506820 7.297973 -12.679667 0
M  V30 56 H 8.234873 6.887678 -13.825114 0
M  V30 57 H 12.220957 6.672232 -9.491336 0
M  V30 58 H 11.313269 7.684479 -10.552588 0
M  V30 59 H 8.404773 6.212939 -6.964356 0
M  V30 60 H 8.177792 5.014123 -8.169761 0
M  V30 61 H 9.757526 5.176961 -7.480927 0
M  V30 62 H 6.441418 5.646820 -14.284517 0
M  V30 63 H 5.663012 4.145606 -13.916038 0
M  V30 64 H 8.137008 8.680917 -10.109133 0
M  V30 65 H 10.893732 2.475149 -18.188516 0
M  V30 66 H 10.390309 1.169905 -17.366020 0
M  V30 67 H 6.760597 -4.903222 -16.817762 0
M  V30 68 H 6.183643 -4.730553 -18.492822 0
M  V30 69 H 9.444489 4.854704 -12.672283 0
M  V30 70 H 8.358824 4.427179 -15.353548 0
M  V30 71 H 6.916583 0.090800 -14.799810 0
M  V30 72 H 6.268438 -2.705491 -16.913902 0
M  V30 END ATOM
M  V30 BEGIN BOND
M  V30 1 1 5 1
M  V30 2 1 8 7
M  V30 3 1 9 1
M  V30 4 1 10 2
M  V30 5 1 11 9
M  V30 6 2 14 9
M  V30 7 1 15 1
M  V30 8 1 15 5
M  V30 9 1 17 4
M  V30 10 1 17 7
M  V30 11 1 20 10
M  V30 12 1 20 18
M  V30 13 1 1 22 CFG=3
M  V30 14 1 22 12
M  V30 15 1 23 5
M  V30 16 1 24 4
M  V30 17 1 25 3
M  V30 18 1 25 16
M  V30 19 2 25 19
M  V30 20 1 26 15
M  V30 21 2 27 2
M  V30 22 1 27 6
M  V30 23 1 27 19
M  V30 24 2 28 9
M  V30 25 1 29 17
M  V30 26 1 30 16
M  V30 27 1 31 13
M  V30 28 1 31 18
M  V30 29 1 32 4
M  V30 30 1 32 8
M  V30 31 1 32 21
M  V30 32 1 5 33 CFG=3
M  V30 33 1 33 8
M  V30 34 2 34 3
M  V30 35 1 34 24
M  V30 36 1 35 2
M  V30 37 1 36 3
M  V30 38 1 4 37 CFG=1
M  V30 39 1 38 6
M  V30 40 1 39 7
M  V30 41 1 8 40 CFG=3
M  V30 42 1 41 10
M  V30 43 1 42 10
M  V30 44 1 43 12
M  V30 45 1 44 12
M  V30 46 1 45 12
M  V30 47 1 46 13
M  V30 48 1 15 47 CFG=1
M  V30 49 1 48 16
M  V30 50 1 49 16
M  V30 51 1 17 50 CFG=1
M  V30 52 1 51 18
M  V30 53 1 52 20
M  V30 54 1 53 20
M  V30 55 1 54 21
M  V30 56 1 55 21
M  V30 57 1 56 21
M  V30 58 1 57 22
M  V30 59 1 58 22
M  V30 60 1 59 23
M  V30 61 1 60 23
M  V30 62 1 61 23
M  V30 63 1 62 24
M  V30 64 1 63 24
M  V30 65 1 64 26
M  V30 66 1 65 30
M  V30 67 1 66 30
M  V30 68 1 67 31
M  V30 69 1 68 31
M  V30 70 1 32 69 CFG=3
M  V30 71 1 70 34
M  V30 72 1 71 6
M  V30 73 1 72 18
M  V30 END BOND
M  V30 END CTAB
M  END
>  <i_epik_Tot_Q>  (1) 
0

>  <i_epik_Tot_abs_Q>  (1) 
2

>  <i_i_glide_confnum>  (1) 
1616

>  <i_i_glide_lignum>  (1) 
22

>  <i_i_glide_posenum>  (1) 
204

>  <i_i_glide_rotatable_bonds>  (1) 
15

>  <i_lp_mmshare_version>  (1) 
72125

>  <i_m_source_file_index>  (1) 
11

>  <i_f3d_flags>  (1) 
0

>  <num_sample>  (1) 
50

>  <b_lp_Chiralities_Consistent>  (1) 
1

>  <r_epik_Charging_Adjusted_Penalty>  (1) 
0.33639934582642134

>  <r_epik_Ionization_Penalty>  (1) 
0.23315943830934333

>  <r_epik_Ionization_Penalty_Charging>  (1) 
0.10316865490585193

>  <r_epik_Ionization_Penalty_Neutral>  (1) 
0.12999078340349141

>  <r_epik_State_Penalty>  (1) 
0.23323069092056939

>  <r_glide_ring_energy>  (1) 
0

>  <r_i_docking_score>  (1) 
-5.6992464945341279

>  <r_i_glide_ecoul>  (1) 
-19.056735396018031

>  <r_i_glide_eff_state_penalty>  (1) 
0.23323069092056939

>  <r_i_glide_einternal>  (1) 
38.349385354609751

>  <r_i_glide_emodel>  (1) 
-39.253558806105289

>  <r_i_glide_emodel_strain>  (1) 
5.5053449720010832

>  <r_i_glide_energy>  (1) 
-44.02151286284662

>  <r_i_glide_erotb>  (1) 
0.82510599487301828

>  <r_i_glide_esite>  (1) 
-0.22468562808412545

>  <r_i_glide_evdw>  (1) 
-24.96477746682859

>  <r_i_glide_gscore>  (1) 
-5.9324771854546974

>  <r_i_glide_gscore_strain>  (1) 
0.3763362430002708

>  <r_i_glide_hbond>  (1) 
-0.60847291170590556

>  <r_i_glide_ligand_efficiency>  (1) 
-0.16762489689806259

>  <r_i_glide_ligand_efficiency_ln>  (1) 
-1.2591234090919941

>  <r_i_glide_ligand_efficiency_sa>  (1) 
-0.54303959417888503

>  <r_i_glide_lipo>  (1) 
-1.331260961159463

>  <r_i_glide_metal>  (1) 
-0

>  <r_i_glide_rewards>  (1) 
-0.86275073963435744

>  <r_lp_Energy>  (1) 
22.791024

>  <s_epik_Chemistry_Notes>  (1) 
This compound has an imine and may undergo hydrolysis. This compound contains an acetal/aminal-like group ( X-CH(R)-Y where X, Y are N, S, or O) that may be acid/base labile, releasing an aldehyde.

>  <s_epik_cmdline>  (1) 
J2VwaWtfcHl0aG9uJywgJy1waHQnLCAnMS4wJywgJy1waCcsICc3LjQnLCAnLXRuJywgJzgnLCAnLW1hJywgJzUwMCcsICctaW1hZScsICc8aW5maWxlLm1hZT4nLCAnLW9tYWUnLCAnPG91dGZpbGUubWFlPic=

>  <s_epik_input>  (1) 
W1NIXVMoPU8pKD1PKVtDQEBdMShbQ0gyXVtDSDNdKVtDQEBdKFtDSDNdKShbQ0BASF0xW09IXSlPW0NASF0oW0NAQEhdMltDSDNdKVtOSF1bQ0BASF0oRilbQ0BIXTJbQ0gyXVxbQ0hdPVtDSF1cQyhbQ0gyXVtOSDJdKT1OL0MoPU4vW0hdKS9bQ0gyXVtDSDJdW0NIMl1bTkhdW0NIMl1bT0hd

>  <s_glide_docking_method>  (1) 
confgen

>  <s_i_glide_gridfile>  (1) 
gpcr_drd2_6luq_protein_autoprepared_prepared

>  <s_lp_Force_Field>  (1) 
S-OPLS

>  <s_lp_Variant>  (1) 
DiffSBDD_10_num_sample_50-2

>  <s_m_source_file>  (1) 
generated__ligand_DiffSBDD_2026-05-06_prepared.sdf

>  <GenAI_Model>  (1) 
DiffSBDD

>  <Protein>  (1) 
generic_title2

$$$$
DiffSBDD_7_num_sample_50
     RDKit          3D

  0  0  0  0  0  0  0  0  0  0999 V3000
M  V30 BEGIN CTAB
M  V30 COUNTS 63 67 0 0 1
M  V30 BEGIN ATOM
M  V30 1 C 5.406100 7.420884 -18.561867 0 CFG=1
M  V30 2 C 9.691577 7.309458 -7.625417 0
M  V30 3 C 10.004931 7.293111 -6.254648 0
M  V30 4 C 4.770235 5.473216 -19.891887 0
M  V30 5 C 8.357618 5.506640 -11.119983 0 CFG=2
M  V30 6 C 11.061660 8.082048 -5.763097 0
M  V30 7 C 6.870886 7.276766 -14.935789 0
M  V30 8 C 7.324375 5.405047 -12.232884 0 CFG=2
M  V30 9 C 6.541955 6.728805 -12.463958 0 CFG=2
M  V30 10 C 10.336668 6.916072 -12.291831 0
M  V30 11 C 10.098034 8.141282 -9.978298 0
M  V30 12 C 11.812342 8.881649 -6.644769 0
M  V30 13 C 6.420452 6.910836 -16.330186 0
M  V30 14 C 6.423386 7.245197 -19.655172 0 CFG=2
M  V30 15 C 5.457342 8.410601 -19.705948 0
M  V30 16 O 5.544237 6.912471 -11.491641 0
M  V30 17 C 11.505967 8.890781 -8.017071 0
M  V30 18 C 9.750905 5.959078 -11.347670 0 CFG=1
M  V30 19 C 6.464274 4.123869 -12.088136 0
M  V30 20 C 4.419708 6.305056 -18.640944 0
M  V30 21 C 6.166783 5.926177 -20.342197 0
M  V30 22 C 10.639799 6.996811 -10.758176 0 CFG=1
M  V30 23 C 5.880427 6.831912 -13.852438 0
M  V30 24 C 5.841383 7.770916 -17.183634 0
M  V30 25 C 5.842373 3.875162 -10.702385 0
M  V30 26 C 10.441232 8.109354 -8.507505 0
M  V30 27 C 9.555250 4.502397 -11.177880 0
M  V30 28 H 8.871620 6.711811 -8.000409 0
M  V30 29 H 9.432414 6.678725 -5.576869 0
M  V30 30 H 4.736745 4.400740 -19.697349 0
M  V30 31 H 4.056031 5.677828 -20.688853 0
M  V30 32 H 7.949308 5.742361 -10.138357 0
M  V30 33 H 11.299201 8.071619 -4.710638 0
M  V30 34 H 7.034197 8.351712 -14.868617 0
M  V30 35 H 7.841778 6.810242 -14.785031 0
M  V30 36 H 7.903371 5.251045 -13.143929 0
M  V30 37 H 7.224033 7.573287 -12.352422 0
M  V30 38 H 9.689370 7.691771 -12.691594 0
M  V30 39 H 11.123933 6.557664 -12.953249 0
M  V30 40 H 9.034808 8.275270 -10.144143 0
M  V30 41 H 10.618413 8.968898 -10.409315 0
M  V30 42 H 12.625802 9.485168 -6.267830 0
M  V30 43 H 6.588121 5.888074 -16.636110 0
M  V30 44 H 7.468898 7.470950 -19.455243 0
M  V30 45 H 5.833180 9.407457 -19.494429 0
M  V30 46 H 4.658955 8.374377 -20.444172 0
M  V30 47 H 5.984352 7.164830 -10.672229 0
M  V30 48 H 12.082542 9.501443 -8.694873 0
M  V30 49 H 5.680027 4.102416 -12.842222 0
M  V30 50 H 7.099866 3.267506 -12.314151 0
M  V30 51 H 4.475368 5.745740 -17.714844 0
M  V30 52 H 3.434478 6.741784 -18.690308 0
M  V30 53 H 6.244380 6.027702 -21.424844 0
M  V30 54 H 6.919725 5.208981 -20.011243 0
M  V30 55 H 11.720518 6.968141 -10.641667 0
M  V30 56 H 5.073361 7.566485 -13.821681 0
M  V30 57 H 5.410445 5.886983 -14.125009 0
M  V30 58 H 5.674021 8.790543 -16.868282 0
M  V30 59 H 5.434864 2.870787 -10.654494 0
M  V30 60 H 5.037446 4.575923 -10.488942 0
M  V30 61 H 6.569704 3.940613 -9.893992 0
M  V30 62 H 9.835414 4.038593 -10.236176 0
M  V30 63 H 9.662122 3.876946 -12.061506 0
M  V30 END ATOM
M  V30 BEGIN BOND
M  V30 1 1 3 2
M  V30 2 2 6 3
M  V30 3 1 8 5
M  V30 4 1 9 8
M  V30 5 1 12 6
M  V30 6 1 13 7
M  V30 7 1 14 1
M  V30 8 1 15 1
M  V30 9 1 15 14
M  V30 10 1 16 9
M  V30 11 2 17 12
M  V30 12 1 18 5
M  V30 13 1 18 10 CFG=3
M  V30 14 1 19 8
M  V30 15 1 20 1
M  V30 16 1 20 4
M  V30 17 1 21 4
M  V30 18 1 21 14
M  V30 19 1 22 10
M  V30 20 1 22 11
M  V30 21 1 22 18
M  V30 22 1 23 7
M  V30 23 1 23 9
M  V30 24 1 1 24 CFG=1
M  V30 25 2 24 13
M  V30 26 1 25 19
M  V30 27 2 26 2
M  V30 28 1 26 11
M  V30 29 1 26 17
M  V30 30 1 27 5
M  V30 31 1 27 18
M  V30 32 1 28 2
M  V30 33 1 29 3
M  V30 34 1 30 4
M  V30 35 1 31 4
M  V30 36 1 5 32 CFG=1
M  V30 37 1 33 6
M  V30 38 1 34 7
M  V30 39 1 35 7
M  V30 40 1 8 36 CFG=3
M  V30 41 1 9 37 CFG=3
M  V30 42 1 38 10
M  V30 43 1 39 10
M  V30 44 1 40 11
M  V30 45 1 41 11
M  V30 46 1 42 12
M  V30 47 1 43 13
M  V30 48 1 14 44 CFG=1
M  V30 49 1 45 15
M  V30 50 1 46 15
M  V30 51 1 47 16
M  V30 52 1 48 17
M  V30 53 1 49 19
M  V30 54 1 50 19
M  V30 55 1 51 20
M  V30 56 1 52 20
M  V30 57 1 53 21
M  V30 58 1 54 21
M  V30 59 1 22 55 CFG=3
M  V30 60 1 56 23
M  V30 61 1 57 23
M  V30 62 1 58 24
M  V30 63 1 59 25
M  V30 64 1 60 25
M  V30 65 1 61 25
M  V30 66 1 62 27
M  V30 67 1 63 27
M  V30 END BOND
M  V30 END CTAB
M  END
>  <i_epik_Tot_Q>  (1) 
0

>  <i_epik_Tot_abs_Q>  (1) 
0

>  <i_i_glide_confnum>  (1) 
188

>  <i_i_glide_lignum>  (1) 
17

>  <i_i_glide_posenum>  (1) 
198

>  <i_i_glide_rotatable_bonds>  (1) 
10

>  <i_lp_mmshare_version>  (1) 
72125

>  <i_m_source_file_index>  (1) 
8

>  <i_f3d_flags>  (1) 
0

>  <num_sample>  (1) 
50

>  <b_lp_Chiralities_Consistent>  (1) 
1

>  <r_epik_Charging_Adjusted_Penalty>  (1) 
0

>  <r_epik_Ionization_Penalty>  (1) 
5.611789062664276e-07

>  <r_epik_Ionization_Penalty_Charging>  (1) 
0

>  <r_epik_Ionization_Penalty_Neutral>  (1) 
5.611789062664276e-07

>  <r_epik_State_Penalty>  (1) 
-0

>  <r_glide_ring_energy>  (1) 
0

>  <r_i_docking_score>  (1) 
-5.6956108615531535

>  <r_i_glide_ecoul>  (1) 
-4.1746998147062744

>  <r_i_glide_eff_state_penalty>  (1) 
-0

>  <r_i_glide_einternal>  (1) 
6.9672707637942848

>  <r_i_glide_emodel>  (1) 
-40.426068390882918

>  <r_i_glide_emodel_strain>  (1) 
1.0504703529485084

>  <r_i_glide_energy>  (1) 
-33.621523941895141

>  <r_i_glide_erotb>  (1) 
1.0125554383439441

>  <r_i_glide_esite>  (1) 
0

>  <r_i_glide_evdw>  (1) 
-29.446824127188869

>  <r_i_glide_gscore>  (1) 
-5.6956108615531535

>  <r_i_glide_gscore_strain>  (1) 
0

>  <r_i_glide_hbond>  (1) 
-0.16

>  <r_i_glide_ligand_efficiency>  (1) 
-0.21094855042789457

>  <r_i_glide_ligand_efficiency_ln>  (1) 
-1.325844309085878

>  <r_i_glide_ligand_efficiency_sa>  (1) 
-0.63284565128368386

>  <r_i_glide_lipo>  (1) 
-2.6262761667862571

>  <r_i_glide_metal>  (1) 
-0

>  <r_i_glide_rewards>  (1) 
-1.8233439545454555

>  <r_lp_Energy>  (1) 
23.350185999999997

>  <r_lp_tautomer_probability>  (1) 
1

>  <s_epik_cmdline>  (1) 
J2VwaWtfcHl0aG9uJywgJy1waHQnLCAnMS4wJywgJy1waCcsICc3LjQnLCAnLXRuJywgJzgnLCAnLW1hJywgJzUwMCcsICctaW1hZScsICc8aW5maWxlLm1hZT4nLCAnLW9tYWUnLCAnPG91dGZpbGUubWFlPic=

>  <s_epik_input>  (1) 
W0NIMl0xW0NIMl1bQ0gyXVtDQEBIXShbQ0gyXTIpW0NAXTEyXFtDSF09W0NIXVxbQ0gyXVtDSDJdW0NAQEhdKFtPSF0pW0NASF0oW0NIMl1bQ0gzXSlbQ0BASF0oW0NIMl0zKVtDQF0zNFtDSDJdW0NASF00W0NIMl1jNVtjSF1bY0hdW2NIXVtjSF1bY0hdNQ==

>  <s_glide_docking_method>  (1) 
confgen

>  <s_i_glide_gridfile>  (1) 
gpcr_drd2_6luq_protein_autoprepared_prepared

>  <s_lp_Force_Field>  (1) 
S-OPLS

>  <s_lp_Variant>  (1) 
DiffSBDD_7_num_sample_50-2

>  <s_m_source_file>  (1) 
generated__ligand_DiffSBDD_2026-05-06_prepared.sdf

>  <GenAI_Model>  (1) 
DiffSBDD

>  <Protein>  (1) 
generic_title2

$$$$
DiffSBDD_11_num_sample_50
     RDKit          3D

  0  0  0  0  0  0  0  0  0  0999 V3000
M  V30 BEGIN CTAB
M  V30 COUNTS 69 72 0 0 1
M  V30 BEGIN ATOM
M  V30 1 C 9.796103 6.051565 -13.006271 0
M  V30 2 C 7.131427 3.442479 -18.527666 0
M  V30 3 C 7.309467 5.207342 -11.384813 0 CFG=1
M  V30 4 O 12.634809 9.369303 -6.173864 0
M  V30 5 C 7.705119 3.428561 -14.912497 0
M  V30 6 O 6.447064 6.206601 -11.891665 0
M  V30 7 C 10.561826 8.151577 -5.976281 0
M  V30 8 C 11.688428 8.906889 -5.228148 0 CFG=2
M  V30 9 C 9.808550 5.369272 -15.347443 0
M  V30 10 C 11.766868 9.748963 -2.955206 0
M  V30 11 C 9.847711 5.603766 -11.550343 0
M  V30 12 C 6.031360 3.992307 -19.459848 0
M  V30 13 C 5.839470 5.511320 -19.437079 0
M  V30 14 C 11.275429 10.104431 -4.364299 0
M  V30 15 C 8.302597 3.573232 -16.344086 0 CFG=2
M  V30 16 C 8.748422 5.567264 -9.273727 0
M  V30 17 O 9.710285 6.441468 -8.684234 0
M  V30 18 C 6.770864 5.381281 -17.123983 0
M  V30 19 N 9.434788 4.969336 -13.960661 0 CFG=2 CHG=1
M  V30 20 C 8.000913 4.561931 -13.885620 0 CFG=2
M  V30 21 F 6.754176 6.058543 -20.238109 0
M  V30 22 C 9.678272 4.254823 -16.387357 0
M  V30 23 C 11.131941 6.931825 -6.740619 0
M  V30 24 C 10.078169 6.015109 -7.382117 0
M  V30 25 F 4.630210 5.826168 -19.899853 0
M  V30 26 N 7.389070 4.135071 -17.371980 0
M  V30 27 O 12.234843 8.033865 -4.291667 0
M  V30 28 C 7.552749 4.110265 -12.461899 0
M  V30 29 C 12.881532 8.800101 -3.287571 0
M  V30 30 C 6.042229 6.032006 -18.042852 0
M  V30 31 O 7.707048 2.394480 -18.819837 0
M  V30 32 C 8.562426 5.890430 -10.771079 0 CFG=2
M  V30 33 F 5.478409 7.202652 -17.704577 0
M  V30 34 H 9.127185 6.909481 -13.091668 0
M  V30 35 H 10.800280 6.402655 -13.250290 0
M  V30 36 H 6.750535 4.735333 -10.574132 0
M  V30 37 H 13.325607 9.808462 -5.703357 0
M  V30 38 H 6.629881 3.265714 -14.983059 0
M  V30 39 H 8.098169 2.500910 -14.492148 0
M  V30 40 H 6.336059 6.858620 -11.204533 0
M  V30 41 H 9.834841 7.807330 -5.244204 0
M  V30 42 H 10.054231 8.834025 -6.658619 0
M  V30 43 H 9.146396 6.169294 -15.663575 0
M  V30 44 H 10.828689 5.757131 -15.379037 0
M  V30 45 H 11.034841 9.185256 -2.391765 0
M  V30 46 H 12.064896 10.569291 -2.303231 0
M  V30 47 H 10.632154 6.199937 -11.085635 0
M  V30 48 H 10.160384 4.562293 -11.470207 0
M  V30 49 H 6.211990 3.651577 -20.479734 0
M  V30 50 H 5.104680 3.513426 -19.144464 0
M  V30 51 H 11.763267 10.969303 -4.779448 0
M  V30 52 H 10.234834 10.318598 -4.420811 0
M  V30 53 H 8.509422 2.537272 -16.615811 0
M  V30 54 H 9.061137 4.529305 -9.168359 0
M  V30 55 H 7.807135 5.675046 -8.733541 0
M  V30 56 H 6.938255 5.764877 -16.136481 0
M  V30 57 H 7.399945 5.430513 -14.148033 0
M  V30 58 H 9.849958 4.677394 -17.379033 0
M  V30 59 H 10.477997 3.523920 -16.291665 0
M  V30 60 H 11.844936 7.248239 -7.502026 0
M  V30 61 H 11.699779 6.319763 -6.038645 0
M  V30 62 H 10.519407 5.026203 -7.491749 0
M  V30 63 H 9.205013 5.915546 -6.733384 0
M  V30 64 H 6.601351 3.587214 -12.573199 0
M  V30 65 H 8.236447 3.355055 -12.074680 0
M  V30 66 H 13.205057 8.195181 -2.440221 0
M  V30 67 H 13.720240 9.369289 -3.694120 0
M  V30 68 H 8.415798 6.969354 -10.813509 0
M  V30 69 H 10.016987 4.176105 -13.723336 0
M  V30 END ATOM
M  V30 BEGIN BOND
M  V30 1 1 6 3
M  V30 2 1 8 4 CFG=3
M  V30 3 1 8 7
M  V30 4 1 11 1
M  V30 5 1 12 2
M  V30 6 1 13 12
M  V30 7 1 14 8
M  V30 8 1 14 10
M  V30 9 1 15 5
M  V30 10 1 17 16
M  V30 11 1 19 1
M  V30 12 1 19 9
M  V30 13 1 20 5
M  V30 14 1 20 19
M  V30 15 1 21 13
M  V30 16 1 22 9
M  V30 17 1 22 15
M  V30 18 1 23 7
M  V30 19 1 24 17
M  V30 20 1 24 23
M  V30 21 1 25 13
M  V30 22 1 26 2
M  V30 23 1 26 15
M  V30 24 1 26 18
M  V30 25 1 27 8
M  V30 26 1 28 3
M  V30 27 1 28 20
M  V30 28 1 29 10
M  V30 29 1 29 27
M  V30 30 1 30 13
M  V30 31 2 30 18
M  V30 32 2 31 2
M  V30 33 1 32 3
M  V30 34 1 32 11
M  V30 35 1 32 16
M  V30 36 1 33 30
M  V30 37 1 34 1
M  V30 38 1 35 1
M  V30 39 1 3 36 CFG=1
M  V30 40 1 37 4
M  V30 41 1 38 5
M  V30 42 1 39 5
M  V30 43 1 40 6
M  V30 44 1 41 7
M  V30 45 1 42 7
M  V30 46 1 43 9
M  V30 47 1 44 9
M  V30 48 1 45 10
M  V30 49 1 46 10
M  V30 50 1 47 11
M  V30 51 1 48 11
M  V30 52 1 49 12
M  V30 53 1 50 12
M  V30 54 1 51 14
M  V30 55 1 52 14
M  V30 56 1 15 53 CFG=3
M  V30 57 1 54 16
M  V30 58 1 55 16
M  V30 59 1 56 18
M  V30 60 1 20 57 CFG=3
M  V30 61 1 58 22
M  V30 62 1 59 22
M  V30 63 1 60 23
M  V30 64 1 61 23
M  V30 65 1 62 24
M  V30 66 1 63 24
M  V30 67 1 64 28
M  V30 68 1 65 28
M  V30 69 1 66 29
M  V30 70 1 67 29
M  V30 71 1 32 68 CFG=1
M  V30 72 1 19 69 CFG=1
M  V30 END BOND
M  V30 END CTAB
M  END
>  <i_epik_Tot_Q>  (1) 
1

>  <i_epik_Tot_abs_Q>  (1) 
1

>  <i_i_glide_confnum>  (1) 
217

>  <i_i_glide_lignum>  (1) 
46

>  <i_i_glide_posenum>  (1) 
380

>  <i_i_glide_rotatable_bonds>  (1) 
9

>  <i_lp_mmshare_version>  (1) 
72125

>  <i_m_source_file_index>  (1) 
12

>  <i_f3d_flags>  (1) 
0

>  <num_sample>  (1) 
50

>  <b_lp_Chiralities_Consistent>  (1) 
1

>  <r_epik_Charging_Adjusted_Penalty>  (1) 
0.049597449479403345

>  <r_epik_Ionization_Penalty>  (1) 
0.024799209446341199

>  <r_epik_Ionization_Penalty_Charging>  (1) 
0.024798724739701669

>  <r_epik_Ionization_Penalty_Neutral>  (1) 
4.8470663953020042e-07

>  <r_epik_State_Penalty>  (1) 
0.024798724739701676

>  <r_glide_ring_energy>  (1) 
0.00027748208411692568

>  <r_i_docking_score>  (1) 
-5.6817648229961577

>  <r_i_glide_ecoul>  (1) 
-5.8546846396262957

>  <r_i_glide_eff_state_penalty>  (1) 
0.024798724739701676

>  <r_i_glide_einternal>  (1) 
5.2663986527676308

>  <r_i_glide_emodel>  (1) 
-37.027434796883149

>  <r_i_glide_emodel_strain>  (1) 
0.48928651287879177

>  <r_i_glide_energy>  (1) 
-33.173782290518361

>  <r_i_glide_erotb>  (1) 
0.62180956458355674

>  <r_i_glide_esite>  (1) 
0

>  <r_i_glide_evdw>  (1) 
-27.319097650892061

>  <r_i_glide_gscore>  (1) 
-5.7065635477358594

>  <r_i_glide_gscore_strain>  (1) 
0

>  <r_i_glide_hbond>  (1) 
-0.13504177112218499

>  <r_i_glide_ligand_efficiency>  (1) 
-0.17217469160594417

>  <r_i_glide_ligand_efficiency_ln>  (1) 
-1.2635950780305418

>  <r_i_glide_ligand_efficiency_sa>  (1) 
-0.55225623408251023

>  <r_i_glide_lipo>  (1) 
-2.4569442401707478

>  <r_i_glide_metal>  (1) 
-0

>  <r_i_glide_rewards>  (1) 
-1.4922295225379358

>  <r_lp_Energy>  (1) 
48.888842999999994

>  <s_epik_cmdline>  (1) 
J2VwaWtfcHl0aG9uJywgJy1waHQnLCAnMS4wJywgJy1waCcsICc3LjQnLCAnLXRuJywgJzgnLCAnLW1hJywgJzUwMCcsICctaW1hZScsICc8aW5maWxlLm1hZT4nLCAnLW9tYWUnLCAnPG91dGZpbGUubWFlPic=

>  <s_epik_input>  (1) 
TzFbQ0gyXVtDSDJdW0NIMl1bQ0BdMShbT0hdKVtDSDJdW0NIMl1bQ0gyXU9bQ0gyXVtDQEBIXShbQ0gyXVtDSDJdMilbQ0BASF0oW09IXSlbQ0gyXVtDQEBIXShOMjMpW0NIMl1bQ0BIXShbQ0gyXVtDSDJdMylOKFtDSF09QzRGKUMoPU8pW0NIMl1DNChGKUY=

>  <s_glide_docking_method>  (1) 
confgen

>  <s_i_glide_gridfile>  (1) 
gpcr_drd2_6luq_protein_autoprepared_prepared

>  <s_lp_Force_Field>  (1) 
S-OPLS

>  <s_lp_Variant>  (1) 
DiffSBDD_11_num_sample_50-2

>  <s_m_source_file>  (1) 
generated__ligand_DiffSBDD_2026-05-06_prepared.sdf

>  <GenAI_Model>  (1) 
DiffSBDD

>  <Protein>  (1) 
generic_title2

$$$$
DiffSBDD_10_num_sample_50
     RDKit          3D

  0  0  0  0  0  0  0  0  0  0999 V3000
M  V30 BEGIN CTAB
M  V30 COUNTS 72 73 0 0 1
M  V30 BEGIN ATOM
M  V30 1 C 10.704721 7.692937 -8.982650 0 CFG=2
M  V30 2 C 6.346672 -0.320894 -17.609017 0
M  V30 3 C 7.510053 2.858040 -15.729436 0
M  V30 4 C 7.295732 4.511632 -12.660839 0 CFG=1
M  V30 5 C 9.434914 6.817637 -9.108796 0 CFG=2
M  V30 6 N 7.488804 -0.230626 -15.479670 0
M  V30 7 N 7.207044 5.369282 -10.464730 0
M  V30 8 C 8.593811 5.076208 -10.722666 0 CFG=1
M  V30 9 S 11.152166 8.281037 -7.231780 0
M  V30 10 C 5.312610 -1.359287 -17.205298 0
M  V30 11 S 11.434666 6.453521 -6.255719 0 CHG=-1
M  V30 12 C 12.635440 8.969670 -10.118526 0
M  V30 13 O 3.905284 -5.829399 -17.294029 0
M  V30 14 O 12.449699 8.969351 -7.211400 0
M  V30 15 C 9.398643 8.327783 -9.342877 0 CFG=2
M  V30 16 C 9.526291 3.177246 -17.308670 0
M  V30 17 C 6.462744 5.378016 -11.704749 0 CFG=1
M  V30 18 N 4.634519 -3.748376 -17.491721 0 CHG=1
M  V30 19 N 8.230149 1.095829 -17.243761 0
M  V30 20 C 5.663895 -2.734205 -17.798133 0
M  V30 21 C 9.430491 5.969378 -12.972994 0
M  V30 22 C 11.832504 7.694758 -10.015454 0
M  V30 23 C 8.800046 6.092209 -7.920330 0
M  V30 24 C 6.851695 4.705020 -14.133563 0
M  V30 25 C 8.396542 2.281186 -16.786149 0
M  V30 26 O 9.034920 8.569065 -10.691588 0
M  V30 27 C 7.306850 0.155515 -16.793942 0
M  V30 28 O 10.001982 8.918422 -6.574947 0
M  V30 29 F 6.369780 6.638926 -12.129978 0
M  V30 30 N 10.414483 2.515530 -18.250555 0
M  V30 31 C 5.056229 -5.138106 -17.724592 0
M  V30 32 C 8.756405 4.790160 -12.240898 0 CFG=2
M  V30 33 O 9.511537 6.072125 -10.342734 0
M  V30 34 C 7.727657 4.074956 -15.196531 0
M  V30 35 H 6.289897 0.040143 -18.626171 0
M  V30 36 H 6.678506 2.248335 -15.410549 0
M  V30 37 H 7.099142 3.469549 -12.401403 0
M  V30 38 H 6.960689 -0.990831 -15.075394 0
M  V30 39 H 7.071763 6.275946 -9.993090 0
M  V30 40 H 8.855925 4.188769 -10.146532 0
M  V30 41 H 4.335650 -1.025507 -17.559263 0
M  V30 42 H 5.237429 -1.427990 -16.119372 0
M  V30 43 H 13.115334 9.045327 -11.091395 0
M  V30 44 H 12.019854 9.853162 -9.955213 0
M  V30 45 H 13.440722 8.969059 -9.388121 0
M  V30 46 H 3.834626 -5.738466 -16.350272 0
M  V30 47 H 8.846203 8.955042 -8.647304 0
M  V30 48 H 9.092316 4.053542 -17.791916 0
M  V30 49 H 10.133297 3.528080 -16.475292 0
M  V30 50 H 5.448990 5.002215 -11.563556 0
M  V30 51 H 3.795417 -3.560501 -18.016696 0
M  V30 52 H 6.624391 -3.060813 -17.392699 0
M  V30 53 H 5.781368 -2.666168 -18.880920 0
M  V30 54 H 8.856737 6.889858 -12.866127 0
M  V30 55 H 10.436266 6.151733 -12.596905 0
M  V30 56 H 9.553834 5.769073 -14.031467 0
M  V30 57 H 12.542162 6.915217 -9.811065 0
M  V30 58 H 11.416188 7.479436 -10.997609 0
M  V30 59 H 8.736299 6.740801 -7.047956 0
M  V30 60 H 7.785537 5.769470 -8.113530 0
M  V30 61 H 9.377180 5.202898 -7.671343 0
M  V30 62 H 6.796848 5.766430 -14.376255 0
M  V30 63 H 5.835985 4.322689 -14.243776 0
M  V30 64 H 8.132038 8.265435 -10.741264 0
M  V30 65 H 11.181387 3.129506 -18.484552 0
M  V30 66 H 10.818850 1.704270 -17.803209 0
M  V30 67 H 5.923041 -5.409655 -17.120039 0
M  V30 68 H 5.262440 -5.327494 -18.778538 0
M  V30 69 H 9.376822 3.901827 -12.364292 0
M  V30 70 H 8.565503 4.663009 -15.528143 0
M  V30 71 H 8.280299 0.090494 -14.943312 0
M  V30 72 H 4.416281 -3.704756 -16.492505 0
M  V30 END ATOM
M  V30 BEGIN BOND
M  V30 1 1 5 1
M  V30 2 1 8 7
M  V30 3 1 9 1
M  V30 4 1 10 2
M  V30 5 1 11 9
M  V30 6 2 14 9
M  V30 7 1 15 1
M  V30 8 1 15 5
M  V30 9 1 17 4
M  V30 10 1 17 7
M  V30 11 1 20 10
M  V30 12 1 20 18
M  V30 13 1 1 22 CFG=3
M  V30 14 1 22 12
M  V30 15 1 23 5
M  V30 16 1 24 4
M  V30 17 1 25 3
M  V30 18 1 25 16
M  V30 19 2 25 19
M  V30 20 1 26 15
M  V30 21 2 27 2
M  V30 22 1 27 6
M  V30 23 1 27 19
M  V30 24 2 28 9
M  V30 25 1 29 17
M  V30 26 1 30 16
M  V30 27 1 31 13
M  V30 28 1 31 18
M  V30 29 1 32 4
M  V30 30 1 32 8
M  V30 31 1 32 21
M  V30 32 1 5 33 CFG=3
M  V30 33 1 33 8
M  V30 34 2 34 3
M  V30 35 1 34 24
M  V30 36 1 35 2
M  V30 37 1 36 3
M  V30 38 1 4 37 CFG=1
M  V30 39 1 38 6
M  V30 40 1 39 7
M  V30 41 1 8 40 CFG=1
M  V30 42 1 41 10
M  V30 43 1 42 10
M  V30 44 1 43 12
M  V30 45 1 44 12
M  V30 46 1 45 12
M  V30 47 1 46 13
M  V30 48 1 15 47 CFG=1
M  V30 49 1 48 16
M  V30 50 1 49 16
M  V30 51 1 17 50 CFG=1
M  V30 52 1 51 18
M  V30 53 1 52 20
M  V30 54 1 53 20
M  V30 55 1 54 21
M  V30 56 1 55 21
M  V30 57 1 56 21
M  V30 58 1 57 22
M  V30 59 1 58 22
M  V30 60 1 59 23
M  V30 61 1 60 23
M  V30 62 1 61 23
M  V30 63 1 62 24
M  V30 64 1 63 24
M  V30 65 1 64 26
M  V30 66 1 65 30
M  V30 67 1 66 30
M  V30 68 1 67 31
M  V30 69 1 68 31
M  V30 70 1 32 69 CFG=1
M  V30 71 1 70 34
M  V30 72 1 71 6
M  V30 73 1 72 18
M  V30 END BOND
M  V30 END CTAB
M  END
>  <i_epik_Tot_Q>  (1) 
0

>  <i_epik_Tot_abs_Q>  (1) 
2

>  <i_i_glide_confnum>  (1) 
1616

>  <i_i_glide_lignum>  (1) 
22

>  <i_i_glide_posenum>  (1) 
204

>  <i_i_glide_rotatable_bonds>  (1) 
15

>  <i_lp_mmshare_version>  (1) 
72125

>  <i_m_source_file_index>  (1) 
11

>  <i_f3d_flags>  (1) 
0

>  <num_sample>  (1) 
50

>  <b_lp_Chiralities_Consistent>  (1) 
1

>  <r_epik_Charging_Adjusted_Penalty>  (1) 
0.33639934582642134

>  <r_epik_Ionization_Penalty>  (1) 
0.23315943830934333

>  <r_epik_Ionization_Penalty_Charging>  (1) 
0.10316865490585193

>  <r_epik_Ionization_Penalty_Neutral>  (1) 
0.12999078340349141

>  <r_epik_State_Penalty>  (1) 
0.23323069092056939

>  <r_glide_ring_energy>  (1) 
0

>  <r_i_docking_score>  (1) 
-5.6807763714881112

>  <r_i_glide_ecoul>  (1) 
-15.659594688258204

>  <r_i_glide_eff_state_penalty>  (1) 
0.23323069092056939

>  <r_i_glide_einternal>  (1) 
16.509181524182424

>  <r_i_glide_emodel>  (1) 
-54.218361414983917

>  <r_i_glide_emodel_strain>  (1) 
4.819920240359707

>  <r_i_glide_energy>  (1) 
-47.442782933327798

>  <r_i_glide_erotb>  (1) 
0.82510599487301828

>  <r_i_glide_esite>  (1) 
-0.2903338336668701

>  <r_i_glide_evdw>  (1) 
-31.783188245069592

>  <r_i_glide_gscore>  (1) 
-5.9140070624086807

>  <r_i_glide_gscore_strain>  (1) 
0.20498006008992675

>  <r_i_glide_hbond>  (1) 
-0.65588261671124182

>  <r_i_glide_ligand_efficiency>  (1) 
-0.16708165798494445

>  <r_i_glide_ligand_efficiency_ln>  (1) 
-1.2550428408417256

>  <r_i_glide_ligand_efficiency_sa>  (1) 
-0.54127971098503436

>  <r_i_glide_lipo>  (1) 
-1.2061942239727803

>  <r_i_glide_metal>  (1) 
-0

>  <r_i_glide_rewards>  (1) 
-0.85358382752852258

>  <r_lp_Energy>  (1) 
22.791024

>  <s_epik_Chemistry_Notes>  (1) 
This compound has an imine and may undergo hydrolysis. This compound contains an acetal/aminal-like group ( X-CH(R)-Y where X, Y are N, S, or O) that may be acid/base labile, releasing an aldehyde.

>  <s_epik_cmdline>  (1) 
J2VwaWtfcHl0aG9uJywgJy1waHQnLCAnMS4wJywgJy1waCcsICc3LjQnLCAnLXRuJywgJzgnLCAnLW1hJywgJzUwMCcsICctaW1hZScsICc8aW5maWxlLm1hZT4nLCAnLW9tYWUnLCAnPG91dGZpbGUubWFlPic=

>  <s_epik_input>  (1) 
W1NIXVMoPU8pKD1PKVtDQEBdMShbQ0gyXVtDSDNdKVtDQEBdKFtDSDNdKShbQ0BASF0xW09IXSlPW0NASF0oW0NAQEhdMltDSDNdKVtOSF1bQ0BASF0oRilbQ0BIXTJbQ0gyXVxbQ0hdPVtDSF1cQyhbQ0gyXVtOSDJdKT1OL0MoPU4vW0hdKS9bQ0gyXVtDSDJdW0NIMl1bTkhdW0NIMl1bT0hd

>  <s_glide_docking_method>  (1) 
confgen

>  <s_i_glide_gridfile>  (1) 
gpcr_drd2_6luq_protein_autoprepared_prepared

>  <s_lp_Force_Field>  (1) 
S-OPLS

>  <s_lp_Variant>  (1) 
DiffSBDD_10_num_sample_50-2

>  <s_m_source_file>  (1) 
generated__ligand_DiffSBDD_2026-05-06_prepared.sdf

>  <GenAI_Model>  (1) 
DiffSBDD

>  <Protein>  (1) 
generic_title2

$$$$
DiffSBDD_37_num_sample_50
     RDKit          3D

  0  0  0  0  0  0  0  0  0  0999 V3000
M  V30 BEGIN CTAB
M  V30 COUNTS 43 45 0 0 1
M  V30 BEGIN ATOM
M  V30 1 C 11.034840 7.450305 -5.091667 0
M  V30 2 N 10.226557 6.785176 -8.688288 0
M  V30 3 N 6.658354 4.335361 -12.489189 0 CHG=1
M  V30 4 C 11.700799 8.695265 -5.171671 0
M  V30 5 C 11.890490 9.301825 -6.424384 0
M  V30 6 C 11.425504 8.678013 -7.600770 0
M  V30 7 C 7.791082 2.259158 -13.291298 0
M  V30 8 C 12.377098 8.558975 -2.855302 0
M  V30 9 C 7.769817 3.794554 -13.289746 0 CFG=2
M  V30 10 C 8.835814 5.269442 -9.632621 0
M  V30 11 C 7.009122 5.715197 -12.103723 0 CFG=2
M  V30 12 S 10.234800 7.369301 -10.404349 0
M  V30 13 C 10.734146 7.431407 -7.522412 0
M  V30 14 N 9.434816 5.670847 -8.521699 0
M  V30 15 C 9.025032 4.428936 -12.690343 0
M  V30 16 C 6.391775 6.736122 -13.071387 0
M  V30 17 O 12.176984 9.323298 -4.038020 0
M  V30 18 C 10.550865 6.829099 -6.252962 0
M  V30 19 O 11.644276 9.282480 -8.801258 0
M  V30 20 C 9.108543 5.990359 -10.702569 0
M  V30 21 C 8.552827 5.767088 -12.094525 0 CFG=2
M  V30 22 H 10.888743 6.969358 -4.137271 0
M  V30 23 H 5.780788 4.298111 -12.986261 0
M  V30 24 H 12.404562 10.247458 -6.485808 0
M  V30 25 H 8.584333 1.877951 -13.933509 0
M  V30 26 H 7.972151 1.857044 -12.294448 0
M  V30 27 H 6.849540 1.847477 -13.656460 0
M  V30 28 H 12.980037 9.136757 -2.156089 0
M  V30 29 H 11.434971 8.331667 -2.356945 0
M  V30 30 H 12.915910 7.631712 -3.057086 0
M  V30 31 H 7.644321 4.158857 -14.310725 0
M  V30 32 H 8.181464 4.414967 -9.565744 0
M  V30 33 H 6.594580 5.908498 -11.112050 0
M  V30 34 H 9.253280 5.298417 -7.601579 0
M  V30 35 H 9.810315 4.569156 -13.434597 0
M  V30 36 H 9.436767 3.780153 -11.914854 0
M  V30 37 H 6.649578 7.750279 -12.764187 0
M  V30 38 H 6.747889 6.598268 -14.092899 0
M  V30 39 H 5.304135 6.667637 -13.080681 0
M  V30 40 H 10.038825 5.885001 -6.167488 0
M  V30 41 H 11.252283 8.787370 -9.504146 0
M  V30 42 H 8.900309 6.583428 -12.729611 0
M  V30 43 H 6.592507 3.791533 -11.640810 0
M  V30 END ATOM
M  V30 BEGIN BOND
M  V30 1 1 4 1
M  V30 2 2 5 4
M  V30 3 1 6 5
M  V30 4 1 9 3
M  V30 5 1 9 7
M  V30 6 1 11 3
M  V30 7 1 12 2
M  V30 8 1 13 2
M  V30 9 2 13 6
M  V30 10 1 14 2
M  V30 11 1 14 10
M  V30 12 1 15 9
M  V30 13 1 16 11
M  V30 14 1 17 4
M  V30 15 1 17 8
M  V30 16 2 18 1
M  V30 17 1 18 13
M  V30 18 1 19 6
M  V30 19 2 20 10
M  V30 20 1 20 12
M  V30 21 1 21 11
M  V30 22 1 21 15
M  V30 23 1 21 20
M  V30 24 1 22 1
M  V30 25 1 23 3
M  V30 26 1 24 5
M  V30 27 1 25 7
M  V30 28 1 26 7
M  V30 29 1 27 7
M  V30 30 1 28 8
M  V30 31 1 29 8
M  V30 32 1 30 8
M  V30 33 1 9 31 CFG=3
M  V30 34 1 32 10
M  V30 35 1 11 33 CFG=1
M  V30 36 1 34 14
M  V30 37 1 35 15
M  V30 38 1 36 15
M  V30 39 1 37 16
M  V30 40 1 38 16
M  V30 41 1 39 16
M  V30 42 1 40 18
M  V30 43 1 41 19
M  V30 44 1 21 42 CFG=3
M  V30 45 1 43 3
M  V30 END BOND
M  V30 END CTAB
M  END
>  <i_epik_Tot_Q>  (1) 
1

>  <i_epik_Tot_abs_Q>  (1) 
1

>  <i_i_glide_confnum>  (1) 
1

>  <i_i_glide_lignum>  (1) 
92

>  <i_i_glide_posenum>  (1) 
24

>  <i_i_glide_rotatable_bonds>  (1) 
4

>  <i_lp_mmshare_version>  (1) 
72125

>  <i_m_source_file_index>  (1) 
38

>  <i_f3d_flags>  (1) 
0

>  <num_sample>  (1) 
50

>  <b_lp_Chiralities_Consistent>  (1) 
1

>  <r_epik_Charging_Adjusted_Penalty>  (1) 
0.0014043227577044803

>  <r_epik_Ionization_Penalty>  (1) 
0.0059697486383219651

>  <r_epik_Ionization_Penalty_Charging>  (1) 
0.0014043227577044803

>  <r_epik_Ionization_Penalty_Neutral>  (1) 
0.0045654258806174849

>  <r_epik_State_Penalty>  (1) 
-0

>  <r_glide_ring_energy>  (1) 
0

>  <r_i_docking_score>  (1) 
-5.6756947308113768

>  <r_i_glide_ecoul>  (1) 
-2.4026295592362623

>  <r_i_glide_eff_state_penalty>  (1) 
-0

>  <r_i_glide_einternal>  (1) 
4.5276679514739033

>  <r_i_glide_emodel>  (1) 
-47.021640817394093

>  <r_i_glide_emodel_strain>  (1) 
0.81461216691359084

>  <r_i_glide_energy>  (1) 
-36.62580229896605

>  <r_i_glide_erotb>  (1) 
0.38898511058673108

>  <r_i_glide_esite>  (1) 
-0.088469200795228256

>  <r_i_glide_evdw>  (1) 
-34.22317273972979

>  <r_i_glide_gscore>  (1) 
-5.6756947308113768

>  <r_i_glide_gscore_strain>  (1) 
0

>  <r_i_glide_hbond>  (1) 
0

>  <r_i_glide_ligand_efficiency>  (1) 
-0.2702711776576846

>  <r_i_glide_ligand_efficiency_ln>  (1) 
-1.4033040533720236

>  <r_i_glide_ligand_efficiency_sa>  (1) 
-0.74565768621878314

>  <r_i_glide_lipo>  (1) 
-2.2062601897663141

>  <r_i_glide_metal>  (1) 
-0

>  <r_i_glide_rewards>  (1) 
-1.6983973799646359

>  <r_lp_Energy>  (1) 
16.995556000000001

>  <r_lp_tautomer_probability>  (1) 
1

>  <s_epik_Chemistry_Notes>  (1) 
This compound has a N-S or N-O group and may undergo hydrolysis at high or low pH.

>  <s_epik_cmdline>  (1) 
J2VwaWtfcHl0aG9uJywgJy1waHQnLCAnMS4wJywgJy1waCcsICc3LjQnLCAnLXRuJywgJzgnLCAnLW1hJywgJzUwMCcsICctaW1hZScsICc8aW5maWxlLm1hZT4nLCAnLW9tYWUnLCAnPG91dGZpbGUubWFlPic=

>  <s_epik_input>  (1) 
W0NIM11PYzFbY0hdW2NIXWMoYyhbY0hdMSlbT0hdKU4yU0MoPVtDSF1bTkhdMilbQ0BASF0oW0NIMl0zKVtDQEBIXShbQ0gzXSlbTkhdW0NAQEhdM1tDSDNd

>  <s_glide_docking_method>  (1) 
confgen

>  <s_i_glide_gridfile>  (1) 
gpcr_drd2_6luq_protein_autoprepared_prepared

>  <s_lp_Force_Field>  (1) 
S-OPLS

>  <s_lp_Variant>  (1) 
DiffSBDD_37_num_sample_50-1

>  <s_m_source_file>  (1) 
generated__ligand_DiffSBDD_2026-05-06_prepared.sdf

>  <GenAI_Model>  (1) 
DiffSBDD

>  <Protein>  (1) 
generic_title2

$$$$
DiffSBDD_2_num_sample_50
     RDKit          3D

  0  0  0  0  0  0  0  0  0  0999 V3000
M  V30 BEGIN CTAB
M  V30 COUNTS 54 57 0 0 1
M  V30 BEGIN ATOM
M  V30 1 C 10.014151 7.678913 -10.928149 0 CFG=1
M  V30 2 C 8.287374 5.076324 -10.735672 0
M  V30 3 O 8.776819 5.368771 -8.489125 0 CHG=-1
M  V30 4 C 6.634941 6.397038 -15.518230 0
M  V30 5 O 6.712937 4.190086 -19.343936 0
M  V30 6 C 5.936411 5.177739 -19.015491 0
M  V30 7 C 10.292363 7.810220 -6.412982 0
M  V30 8 C 7.457871 3.286102 -18.740507 0
M  V30 9 C 11.237943 8.650951 -7.281773 0
M  V30 10 O 8.681075 2.318675 -17.093445 0 CHG=-1
M  V30 11 C 5.924314 5.796144 -17.857995 0
M  V30 12 C 4.967939 7.703228 -16.660977 0
M  V30 13 C 7.934105 3.266987 -17.438010 0
M  V30 14 C 9.308546 6.011444 -12.744908 0
M  V30 15 N 9.434828 7.034976 -9.748716 0 CFG=1 CHG=1
M  V30 16 C 9.295419 5.567082 -9.672010 0 CFG=2
M  V30 17 C 10.719702 8.896940 -8.709011 0
M  V30 18 C 5.803344 7.442466 -15.540233 0
M  V30 19 C 8.419311 3.667415 -12.777823 0
M  V30 20 N 8.991527 4.794696 -11.993193 0
M  V30 21 C 7.605486 4.297542 -16.472000 0
M  V30 22 C 7.566931 4.007079 -14.009785 0
M  V30 23 N 8.234233 4.088936 -15.196420 0
M  V30 24 C 5.023147 6.942545 -17.753590 0
M  V30 25 C 6.749572 5.434064 -16.652110 0
M  V30 26 C 10.734728 7.671708 -9.597597 0 CFG=2
M  V30 27 O 6.349599 4.164509 -13.893408 0
M  V30 28 C 10.444710 6.804377 -12.099196 0
M  V30 29 H 9.378975 8.526971 -11.178976 0
M  V30 30 H 7.457011 5.771135 -10.877660 0
M  V30 31 H 7.828524 4.167904 -10.358478 0
M  V30 32 H 7.244878 6.281337 -14.654371 0
M  V30 33 H 5.321235 5.483173 -19.850360 0
M  V30 34 H 10.650970 7.757989 -5.385079 0
M  V30 35 H 10.215575 6.787231 -6.778539 0
M  V30 36 H 9.285910 8.230218 -6.390095 0
M  V30 37 H 7.719356 2.504532 -19.438523 0
M  V30 38 H 11.381793 9.614875 -6.792625 0
M  V30 39 H 12.222525 8.183474 -7.318513 0
M  V30 40 H 4.288413 8.537868 -16.628520 0
M  V30 41 H 9.669806 5.736217 -13.735632 0
M  V30 42 H 8.428762 6.639145 -12.880178 0
M  V30 43 H 10.234807 5.098424 -9.895743 0
M  V30 44 H 9.710496 9.312828 -8.691766 0
M  V30 45 H 11.360467 9.643408 -9.180988 0
M  V30 46 H 5.767625 8.105897 -14.691765 0
M  V30 47 H 7.837905 2.996033 -12.154230 0
M  V30 48 H 9.261936 3.055195 -13.091643 0
M  V30 49 H 9.198587 3.792251 -15.215902 0
M  V30 50 H 4.380762 7.184122 -18.588673 0
M  V30 51 H 11.552028 6.968488 -9.464418 0
M  V30 52 H 10.833995 7.483321 -12.852234 0
M  V30 53 H 11.297945 6.169224 -11.891672 0
M  V30 54 H 8.579125 7.522905 -9.465811 0
M  V30 END ATOM
M  V30 BEGIN BOND
M  V30 1 1 6 5
M  V30 2 1 8 5
M  V30 3 1 9 7
M  V30 4 2 11 6
M  V30 5 2 13 8
M  V30 6 1 13 10
M  V30 7 1 15 1
M  V30 8 1 16 2
M  V30 9 1 16 3
M  V30 10 1 16 15
M  V30 11 1 17 9
M  V30 12 2 18 4
M  V30 13 1 18 12
M  V30 14 1 20 2
M  V30 15 1 20 14
M  V30 16 1 20 19
M  V30 17 1 21 13
M  V30 18 1 22 19
M  V30 19 1 23 21
M  V30 20 1 23 22
M  V30 21 1 24 11
M  V30 22 2 24 12
M  V30 23 1 25 4
M  V30 24 1 25 11
M  V30 25 2 25 21
M  V30 26 1 26 1
M  V30 27 1 26 15
M  V30 28 1 26 17
M  V30 29 2 27 22
M  V30 30 1 28 1
M  V30 31 1 28 14
M  V30 32 1 1 29 CFG=3
M  V30 33 1 30 2
M  V30 34 1 31 2
M  V30 35 1 32 4
M  V30 36 1 33 6
M  V30 37 1 34 7
M  V30 38 1 35 7
M  V30 39 1 36 7
M  V30 40 1 37 8
M  V30 41 1 38 9
M  V30 42 1 39 9
M  V30 43 1 40 12
M  V30 44 1 41 14
M  V30 45 1 42 14
M  V30 46 1 16 43 CFG=1
M  V30 47 1 44 17
M  V30 48 1 45 17
M  V30 49 1 46 18
M  V30 50 1 47 19
M  V30 51 1 48 19
M  V30 52 1 49 23
M  V30 53 1 50 24
M  V30 54 1 26 51 CFG=3
M  V30 55 1 52 28
M  V30 56 1 53 28
M  V30 57 1 15 54 CFG=1
M  V30 END BOND
M  V30 END CTAB
M  END
>  <i_epik_Tot_Q>  (1) 
-1

>  <i_epik_Tot_abs_Q>  (1) 
3

>  <i_i_glide_confnum>  (1) 
2

>  <i_i_glide_lignum>  (1) 
6

>  <i_i_glide_posenum>  (1) 
82

>  <i_i_glide_rotatable_bonds>  (1) 
6

>  <i_lp_mmshare_version>  (1) 
72125

>  <i_m_source_file_index>  (1) 
3

>  <i_f3d_flags>  (1) 
0

>  <num_sample>  (1) 
50

>  <b_lp_Chiralities_Consistent>  (1) 
1

>  <r_epik_Charging_Adjusted_Penalty>  (1) 
0.20824401478555332

>  <r_epik_Ionization_Penalty>  (1) 
0.10900575238268746

>  <r_epik_Ionization_Penalty_Charging>  (1) 
0.10898275236366674

>  <r_epik_Ionization_Penalty_Neutral>  (1) 
2.3000019020727684e-05

>  <r_epik_State_Penalty>  (1) 
0.099261262421886584

>  <r_glide_ring_energy>  (1) 
0

>  <r_i_docking_score>  (1) 
-5.6537616951342056

>  <r_i_glide_ecoul>  (1) 
-2.4470823138575821

>  <r_i_glide_eff_state_penalty>  (1) 
0.099261262421886584

>  <r_i_glide_einternal>  (1) 
7.6588318741319412

>  <r_i_glide_emodel>  (1) 
-33.673993938186456

>  <r_i_glide_emodel_strain>  (1) 
2.0302323168003795

>  <r_i_glide_energy>  (1) 
-30.284150520390547

>  <r_i_glide_erotb>  (1) 
0.52616126561579779

>  <r_i_glide_esite>  (1) 
-0.13974129778440414

>  <r_i_glide_evdw>  (1) 
-27.837068206532965

>  <r_i_glide_gscore>  (1) 
-5.7530229575560918

>  <r_i_glide_gscore_strain>  (1) 
0

>  <r_i_glide_hbond>  (1) 
-0.20000000000000001

>  <r_i_glide_ligand_efficiency>  (1) 
-0.20192006054050735

>  <r_i_glide_ligand_efficiency_ln>  (1) 
-1.3050542008935664

>  <r_i_glide_ligand_efficiency_sa>  (1) 
-0.61314822903777078

>  <r_i_glide_lipo>  (1) 
-2.5105992462208429

>  <r_i_glide_metal>  (1) 
-0

>  <r_i_glide_rewards>  (1) 
-1.6699279217613561

>  <r_lp_Energy>  (1) 
78.401380000000003

>  <s_epik_Chemistry_Notes>  (1) 
This compound contains an acetal/aminal-like group ( X-CH(R)-Y where X, Y are N, S, or O) that may be acid/base labile, releasing an aldehyde.

>  <s_epik_cmdline>  (1) 
J2VwaWtfcHl0aG9uJywgJy1waHQnLCAnMS4wJywgJy1waCcsICc3LjQnLCAnLXRuJywgJzgnLCAnLW1hJywgJzUwMCcsICctaW1hZScsICc8aW5maWxlLm1hZT4nLCAnLW9tYWUnLCAnPG91dGZpbGUubWFlPic=

>  <s_epik_input>  (1) 
W0NIM11bQ0gyXVtDSDJdW0NIXTFOKFtDQEBIXTEyKVtDQEBIXShbT0hdKVtDSDJdTihbQ0gyXVtDSDJdMilbQ0gyXUMoPU8pW05IXUMoQyhbT0hdKT1bQ0hdT1tDSF09Myk9YyhjMzQpW2NIXVtjSF1bY0hdW2NIXTQ=

>  <s_glide_docking_method>  (1) 
confgen

>  <s_i_glide_gridfile>  (1) 
gpcr_drd2_6luq_protein_autoprepared_prepared

>  <s_lp_Force_Field>  (1) 
S-OPLS

>  <s_lp_Variant>  (1) 
DiffSBDD_2_num_sample_50-1

>  <s_m_source_file>  (1) 
generated__ligand_DiffSBDD_2026-05-06_prepared.sdf

>  <GenAI_Model>  (1) 
DiffSBDD

>  <Protein>  (1) 
generic_title2

$$$$
DiffSBDD_8_num_sample_50
     RDKit          3D

  0  0  0  0  0  0  0  0  0  0999 V3000
M  V30 BEGIN CTAB
M  V30 COUNTS 63 68 0 0 1
M  V30 BEGIN ATOM
M  V30 1 C 9.017325 6.073481 -10.788169 0 CFG=2
M  V30 2 O 8.062020 6.102938 -18.958159 0 CHG=-1
M  V30 3 C 9.964660 6.712981 -8.377213 0 CFG=1
M  V30 4 N 11.543157 8.335203 -7.702918 0
M  V30 5 F 4.653147 6.169341 -18.248822 0
M  V30 6 C 5.721809 5.748748 -18.930320 0 CFG=2
M  V30 7 C 5.559970 6.206584 -20.397410 0
M  V30 8 C 8.121563 4.210588 -16.992205 0
M  V30 9 C 6.896632 4.868203 -14.533621 0
M  V30 10 C 6.112573 7.439879 -21.097449 0
M  V30 11 O 5.434844 2.467042 -22.014607 0
M  V30 12 C 11.560070 8.586790 -9.133451 0 CFG=2
M  V30 13 O 5.635703 1.699875 -19.701094 0 CHG=-1
M  V30 14 O 10.702744 6.974924 -6.107583 0
M  V30 15 O 5.695839 4.337670 -19.091404 0
M  V30 16 N 7.203894 5.372516 -16.893979 0
M  V30 17 C 6.512705 5.356078 -13.139945 0
M  V30 18 N 5.542346 2.707384 -20.700735 0 CHG=1
M  V30 19 N 5.444767 5.050848 -21.246213 0
M  V30 20 C 5.551692 4.072940 -20.416967 0
M  V30 21 C 6.613940 5.769309 -15.690585 0
M  V30 22 O 5.915635 6.790739 -15.596066 0
M  V30 23 C 10.776394 7.346570 -7.276095 0
M  V30 24 C 9.174855 4.791890 -9.981836 0
M  V30 25 C 10.856727 7.248823 -9.534739 0 CFG=2
M  V30 26 O 12.881243 8.569311 -9.648189 0
M  V30 27 C 4.634867 7.332291 -20.827122 0
M  V30 28 C 8.689811 6.447724 -12.242484 0 CFG=2
M  V30 29 C 9.454907 7.765237 -11.881567 0
M  V30 30 C 7.020029 6.177025 -18.160232 0 CFG=1
M  V30 31 C 7.788677 3.082463 -16.062448 0
M  V30 32 C 9.705896 5.174237 -8.536555 0
M  V30 33 C 7.237042 6.635162 -12.683777 0
M  V30 34 C 10.272239 6.933715 -10.905974 0 CFG=2
M  V30 35 C 7.434852 3.646821 -14.732122 0
M  V30 36 H 8.234835 6.569331 -10.246450 0
M  V30 37 H 9.016680 7.246990 -8.350761 0
M  V30 38 H 12.136169 8.860650 -7.080043 0
M  V30 39 H 9.127301 4.570362 -16.765151 0
M  V30 40 H 8.179006 3.770350 -17.991717 0
M  V30 41 H 6.673159 8.160716 -20.505670 0
M  V30 42 H 6.450725 7.327621 -22.125955 0
M  V30 43 H 10.989966 9.470712 -9.417639 0
M  V30 44 H 6.670791 4.565701 -12.404843 0
M  V30 45 H 5.437959 5.543523 -13.146178 0
M  V30 46 H 9.834816 4.089645 -10.484276 0
M  V30 47 H 8.209000 4.292556 -9.900728 0
M  V30 48 H 11.703175 6.569301 -9.491646 0
M  V30 49 H 13.185490 9.458162 -9.803055 0
M  V30 50 H 3.979126 7.165803 -21.679796 0
M  V30 51 H 4.234249 7.985966 -20.054947 0
M  V30 52 H 9.268685 5.847653 -12.948574 0
M  V30 53 H 10.046534 8.169339 -12.691662 0
M  V30 54 H 8.835423 8.526410 -11.400503 0
M  V30 55 H 6.766854 7.182515 -17.825315 0
M  V30 56 H 8.634831 2.402090 -15.969165 0
M  V30 57 H 6.944502 2.502299 -16.436947 0
M  V30 58 H 10.608471 4.615665 -8.291668 0
M  V30 59 H 8.962313 4.873538 -7.798528 0
M  V30 60 H 6.665555 7.059521 -11.857316 0
M  V30 61 H 7.190533 7.399083 -13.458654 0
M  V30 62 H 11.033227 6.445796 -11.516934 0
M  V30 63 H 7.610999 3.003985 -13.881585 0
M  V30 END ATOM
M  V30 BEGIN BOND
M  V30 1 1 6 5 CFG=1
M  V30 2 1 7 6
M  V30 3 1 10 7
M  V30 4 1 12 4
M  V30 5 1 15 6
M  V30 6 1 16 8
M  V30 7 1 17 9
M  V30 8 2 18 11
M  V30 9 1 18 13
M  V30 10 1 19 7
M  V30 11 1 20 15
M  V30 12 1 20 18
M  V30 13 2 20 19
M  V30 14 1 21 9
M  V30 15 1 21 16
M  V30 16 2 22 21
M  V30 17 1 23 3
M  V30 18 1 23 4
M  V30 19 2 23 14
M  V30 20 1 24 1
M  V30 21 1 25 3
M  V30 22 1 25 12
M  V30 23 1 26 12
M  V30 24 1 27 7
M  V30 25 1 27 10
M  V30 26 1 28 1
M  V30 27 1 29 28
M  V30 28 1 30 2
M  V30 29 1 30 6
M  V30 30 1 30 16
M  V30 31 1 31 8
M  V30 32 1 32 3
M  V30 33 1 32 24
M  V30 34 1 33 17
M  V30 35 1 33 28
M  V30 36 1 34 1
M  V30 37 1 34 25
M  V30 38 1 34 29
M  V30 39 2 35 9
M  V30 40 1 35 31
M  V30 41 1 1 36 CFG=1
M  V30 42 1 3 37 CFG=3
M  V30 43 1 38 4
M  V30 44 1 39 8
M  V30 45 1 40 8
M  V30 46 1 41 10
M  V30 47 1 42 10
M  V30 48 1 12 43 CFG=1
M  V30 49 1 44 17
M  V30 50 1 45 17
M  V30 51 1 46 24
M  V30 52 1 47 24
M  V30 53 1 25 48 CFG=3
M  V30 54 1 49 26
M  V30 55 1 50 27
M  V30 56 1 51 27
M  V30 57 1 28 52 CFG=3
M  V30 58 1 53 29
M  V30 59 1 54 29
M  V30 60 1 30 55 CFG=1
M  V30 61 1 56 31
M  V30 62 1 57 31
M  V30 63 1 58 32
M  V30 64 1 59 32
M  V30 65 1 60 33
M  V30 66 1 61 33
M  V30 67 1 34 62 CFG=3
M  V30 68 1 63 35
M  V30 END BOND
M  V30 END CTAB
M  END
>  <i_epik_Tot_Q>  (1) 
-1

>  <i_epik_Tot_abs_Q>  (1) 
3

>  <i_i_glide_confnum>  (1) 
339

>  <i_i_glide_lignum>  (1) 
18

>  <i_i_glide_posenum>  (1) 
85

>  <i_i_glide_rotatable_bonds>  (1) 
7

>  <i_lp_mmshare_version>  (1) 
72125

>  <i_m_source_file_index>  (1) 
9

>  <i_f3d_flags>  (1) 
0

>  <num_sample>  (1) 
50

>  <b_lp_Chiralities_Consistent>  (1) 
1

>  <r_epik_Charging_Adjusted_Penalty>  (1) 
0.25838740980645414

>  <r_epik_Ionization_Penalty>  (1) 
0.12923734989215022

>  <r_epik_Ionization_Penalty_Charging>  (1) 
0.12919370490322707

>  <r_epik_Ionization_Penalty_Neutral>  (1) 
4.364498892313774e-05

>  <r_epik_State_Penalty>  (1) 
0.1291937049032271

>  <r_glide_ring_energy>  (1) 
0

>  <r_i_docking_score>  (1) 
-5.6508320907296996

>  <r_i_glide_ecoul>  (1) 
-2.0500083699281078

>  <r_i_glide_eff_state_penalty>  (1) 
0.1291937049032271

>  <r_i_glide_einternal>  (1) 
8.3268368683723466

>  <r_i_glide_emodel>  (1) 
-47.772897077945785

>  <r_i_glide_emodel_strain>  (1) 
0.46368071514345388

>  <r_i_glide_energy>  (1) 
-43.171577035605083

>  <r_i_glide_erotb>  (1) 
0.42136342035921531

>  <r_i_glide_esite>  (1) 
-0.0012881916491969804

>  <r_i_glide_evdw>  (1) 
-41.121568665676975

>  <r_i_glide_gscore>  (1) 
-5.7800257956329268

>  <r_i_glide_gscore_strain>  (1) 
0

>  <r_i_glide_hbond>  (1) 
-0.32000000000000001

>  <r_i_glide_ligand_efficiency>  (1) 
-0.16145234544942

>  <r_i_glide_ligand_efficiency_ln>  (1) 
-1.2404830573763244

>  <r_i_glide_ligand_efficiency_sa>  (1) 
-0.5281213279005279

>  <r_i_glide_lipo>  (1) 
-1.1356220808075788

>  <r_i_glide_metal>  (1) 
-0

>  <r_i_glide_rewards>  (1) 
-2.3808992547623014

>  <r_lp_Energy>  (1) 
83.181056999999996

>  <s_epik_Chemistry_Notes>  (1) 
This compound has an imine and may undergo hydrolysis. This compound contains an acetal/aminal-like group ( X-CH(R)-Y where X, Y are N, S, or O) that may be acid/base labile, releasing an aldehyde.

>  <s_epik_cmdline>  (1) 
J2VwaWtfcHl0aG9uJywgJy1waHQnLCAnMS4wJywgJy1waCcsICc3LjQnLCAnLXRuJywgJzgnLCAnLW1hJywgJzUwMCcsICctaW1hZScsICc8aW5maWxlLm1hZT4nLCAnLW9tYWUnLCAnPG91dGZpbGUubWFlPic=

>  <s_epik_input>  (1) 
W09IXVtDQEBIXTFbTkhdQyg9TylbQ0BIXShbQ0gyXVtDSDJdMilbQ0BIXTFbQ0BASF0oW0NASF0yMylbQ0gyXVtDQEBIXTNbQ0gyXVtDSDJdQzQ9W0NIXVtDSDJdW0NIMl1OKEM0PU8pW0NAQEhdKFtPSF0pW0NAQF0oRikoQzU2W0NIMl1bQ0gyXTYpT0MoPU41KVtOK10oPU8pW08tXQ==

>  <s_glide_docking_method>  (1) 
confgen

>  <s_i_glide_gridfile>  (1) 
gpcr_drd2_6luq_protein_autoprepared_prepared

>  <s_lp_Force_Field>  (1) 
S-OPLS

>  <s_lp_Variant>  (1) 
DiffSBDD_8_num_sample_50-1

>  <s_m_source_file>  (1) 
generated__ligand_DiffSBDD_2026-05-06_prepared.sdf

>  <GenAI_Model>  (1) 
DiffSBDD

>  <Protein>  (1) 
generic_title2

$$$$
DiffSBDD_11_num_sample_50
     RDKit          3D

  0  0  0  0  0  0  0  0  0  0999 V3000
M  V30 BEGIN CTAB
M  V30 COUNTS 69 72 0 0 1
M  V30 BEGIN ATOM
M  V30 1 C 8.946815 4.990560 -10.770325 0
M  V30 2 C 7.436491 5.045081 -15.717803 0
M  V30 3 C 10.309204 7.596925 -11.193157 0 CFG=1
M  V30 4 O 13.275304 9.371985 -4.594253 0
M  V30 5 C 7.029425 7.199910 -13.273914 0
M  V30 6 O 11.160424 6.894971 -12.074132 0
M  V30 7 C 11.324666 7.998113 -4.845969 0
M  V30 8 C 12.313930 8.666526 -3.856122 0 CFG=2
M  V30 9 C 7.005073 4.489437 -12.139237 0
M  V30 10 C 11.825330 8.886391 -1.519969 0
M  V30 11 C 9.316676 5.820345 -9.543424 0
M  V30 12 C 7.558553 4.657357 -17.206535 0
M  V30 13 C 7.047407 5.690047 -18.211724 0
M  V30 14 C 11.650748 9.612175 -2.825486 0
M  V30 15 C 6.107769 6.162744 -13.927268 0 CFG=2
M  V30 16 C 10.020343 8.106994 -8.767586 0
M  V30 17 O 9.930857 7.547932 -7.473777 0
M  V30 18 C 5.585867 6.475819 -16.344861 0
M  V30 19 N 7.807219 5.583723 -11.519478 0 CFG=2 CHG=1
M  V30 20 C 8.232891 6.632845 -12.494243 0 CFG=2
M  V30 21 F 8.020012 6.576026 -18.416227 0
M  V30 22 C 5.815458 4.969271 -12.991806 0
M  V30 23 C 10.620492 9.051930 -5.737818 0
M  V30 24 C 9.448203 8.483500 -6.538749 0
M  V30 25 F 6.768192 5.100702 -19.373895 0
M  V30 26 N 6.407301 5.877615 -15.358978 0
M  V30 27 O 12.918777 7.676279 -3.075535 0
M  V30 28 C 8.929340 7.841046 -11.825004 0
M  V30 29 C 13.140108 8.219878 -1.777829 0
M  V30 30 C 5.843992 6.398546 -17.659067 0
M  V30 31 O 8.225564 4.573236 -14.905830 0
M  V30 32 C 10.295873 6.991009 -9.774683 0 CFG=2
M  V30 33 F 4.994986 6.988513 -18.516583 0
M  V30 34 H 9.801904 4.782830 -11.414725 0
M  V30 35 H 8.643899 4.018447 -10.389025 0
M  V30 36 H 10.778157 8.569340 -11.085383 0
M  V30 37 H 13.880079 9.763069 -3.983959 0
M  V30 38 H 7.366404 7.915914 -14.025458 0
M  V30 39 H 6.423094 7.769209 -12.567581 0
M  V30 40 H 11.231733 7.366580 -12.890366 0
M  V30 41 H 11.834864 7.287453 -5.488459 0
M  V30 42 H 10.634833 7.370370 -4.291858 0
M  V30 43 H 7.659396 3.836004 -12.711647 0
M  V30 44 H 6.607584 3.857206 -11.343253 0
M  V30 45 H 11.040594 8.143435 -1.374407 0
M  V30 46 H 11.839893 9.570007 -0.674516 0
M  V30 47 H 9.769406 5.160483 -8.801418 0
M  V30 48 H 8.396378 6.168222 -9.072321 0
M  V30 49 H 8.595491 4.403331 -17.430029 0
M  V30 50 H 6.997440 3.731139 -17.328062 0
M  V30 51 H 12.184691 10.544105 -2.691666 0
M  V30 52 H 10.634818 9.863835 -3.088511 0
M  V30 53 H 5.144157 6.671707 -13.947944 0
M  V30 54 H 9.087540 8.604894 -9.034920 0
M  V30 55 H 10.808346 8.861861 -8.787540 0
M  V30 56 H 4.734420 7.006687 -15.946685 0
M  V30 57 H 8.927826 6.182954 -13.200290 0
M  V30 58 H 5.382744 4.136947 -13.547865 0
M  V30 59 H 5.041086 5.281269 -12.289272 0
M  V30 60 H 10.234856 9.878220 -5.147499 0
M  V30 61 H 11.343740 9.499274 -6.421199 0
M  V30 62 H 8.742144 7.973847 -5.891881 0
M  V30 63 H 8.884398 9.280143 -7.029494 0
M  V30 64 H 9.069433 8.606622 -12.587216 0
M  V30 65 H 8.261322 8.302713 -11.098302 0
M  V30 66 H 13.420246 7.509038 -1.000092 0
M  V30 67 H 13.927124 8.969248 -1.824039 0
M  V30 68 H 11.297978 6.637035 -9.537829 0
M  V30 69 H 7.216325 6.044913 -10.835924 0
M  V30 END ATOM
M  V30 BEGIN BOND
M  V30 1 1 6 3
M  V30 2 1 8 4 CFG=3
M  V30 3 1 8 7
M  V30 4 1 11 1
M  V30 5 1 12 2
M  V30 6 1 13 12
M  V30 7 1 14 8
M  V30 8 1 14 10
M  V30 9 1 15 5
M  V30 10 1 17 16
M  V30 11 1 19 1
M  V30 12 1 19 9
M  V30 13 1 20 5
M  V30 14 1 20 19
M  V30 15 1 21 13
M  V30 16 1 22 9
M  V30 17 1 22 15
M  V30 18 1 23 7
M  V30 19 1 24 17
M  V30 20 1 24 23
M  V30 21 1 25 13
M  V30 22 1 26 2
M  V30 23 1 26 15
M  V30 24 1 26 18
M  V30 25 1 27 8
M  V30 26 1 28 3
M  V30 27 1 28 20
M  V30 28 1 29 10
M  V30 29 1 29 27
M  V30 30 1 30 13
M  V30 31 2 30 18
M  V30 32 2 31 2
M  V30 33 1 32 3
M  V30 34 1 32 11
M  V30 35 1 32 16
M  V30 36 1 33 30
M  V30 37 1 34 1
M  V30 38 1 35 1
M  V30 39 1 3 36 CFG=1
M  V30 40 1 37 4
M  V30 41 1 38 5
M  V30 42 1 39 5
M  V30 43 1 40 6
M  V30 44 1 41 7
M  V30 45 1 42 7
M  V30 46 1 43 9
M  V30 47 1 44 9
M  V30 48 1 45 10
M  V30 49 1 46 10
M  V30 50 1 47 11
M  V30 51 1 48 11
M  V30 52 1 49 12
M  V30 53 1 50 12
M  V30 54 1 51 14
M  V30 55 1 52 14
M  V30 56 1 15 53 CFG=3
M  V30 57 1 54 16
M  V30 58 1 55 16
M  V30 59 1 56 18
M  V30 60 1 20 57 CFG=3
M  V30 61 1 58 22
M  V30 62 1 59 22
M  V30 63 1 60 23
M  V30 64 1 61 23
M  V30 65 1 62 24
M  V30 66 1 63 24
M  V30 67 1 64 28
M  V30 68 1 65 28
M  V30 69 1 66 29
M  V30 70 1 67 29
M  V30 71 1 32 68 CFG=1
M  V30 72 1 19 69 CFG=1
M  V30 END BOND
M  V30 END CTAB
M  END
>  <i_epik_Tot_Q>  (1) 
1

>  <i_epik_Tot_abs_Q>  (1) 
1

>  <i_i_glide_confnum>  (1) 
473

>  <i_i_glide_lignum>  (1) 
46

>  <i_i_glide_posenum>  (1) 
385

>  <i_i_glide_rotatable_bonds>  (1) 
9

>  <i_lp_mmshare_version>  (1) 
72125

>  <i_m_source_file_index>  (1) 
12

>  <i_f3d_flags>  (1) 
0

>  <num_sample>  (1) 
50

>  <b_lp_Chiralities_Consistent>  (1) 
1

>  <r_epik_Charging_Adjusted_Penalty>  (1) 
0.049597449479403345

>  <r_epik_Ionization_Penalty>  (1) 
0.024799209446341199

>  <r_epik_Ionization_Penalty_Charging>  (1) 
0.024798724739701669

>  <r_epik_Ionization_Penalty_Neutral>  (1) 
4.8470663953020042e-07

>  <r_epik_State_Penalty>  (1) 
0.024798724739701676

>  <r_glide_ring_energy>  (1) 
0.00027748208411692568

>  <r_i_docking_score>  (1) 
-5.6456114820321446

>  <r_i_glide_ecoul>  (1) 
-2.456269290033577

>  <r_i_glide_eff_state_penalty>  (1) 
0.024798724739701676

>  <r_i_glide_einternal>  (1) 
6.3883770472629102

>  <r_i_glide_emodel>  (1) 
-36.815108222692466

>  <r_i_glide_emodel_strain>  (1) 
0.72860274317336859

>  <r_i_glide_energy>  (1) 
-33.805957744172652

>  <r_i_glide_erotb>  (1) 
0.62180956458355674

>  <r_i_glide_esite>  (1) 
-0.050648635766123745

>  <r_i_glide_evdw>  (1) 
-31.349688454139077

>  <r_i_glide_gscore>  (1) 
-5.6704102067718463

>  <r_i_glide_gscore_strain>  (1) 
0

>  <r_i_glide_hbond>  (1) 
-0.062175774004860074

>  <r_i_glide_ligand_efficiency>  (1) 
-0.1710791358191559

>  <r_i_glide_ligand_efficiency_ln>  (1) 
-1.2555547621921266

>  <r_i_glide_ligand_efficiency_sa>  (1) 
-0.5487422012859613

>  <r_i_glide_lipo>  (1) 
-1.9405500495818651

>  <r_i_glide_metal>  (1) 
-0

>  <r_i_glide_rewards>  (1) 
-2.3029204957905636

>  <r_lp_Energy>  (1) 
48.888842999999994

>  <s_epik_cmdline>  (1) 
J2VwaWtfcHl0aG9uJywgJy1waHQnLCAnMS4wJywgJy1waCcsICc3LjQnLCAnLXRuJywgJzgnLCAnLW1hJywgJzUwMCcsICctaW1hZScsICc8aW5maWxlLm1hZT4nLCAnLW9tYWUnLCAnPG91dGZpbGUubWFlPic=

>  <s_epik_input>  (1) 
TzFbQ0gyXVtDSDJdW0NIMl1bQ0BdMShbT0hdKVtDSDJdW0NIMl1bQ0gyXU9bQ0gyXVtDQEBIXShbQ0gyXVtDSDJdMilbQ0BASF0oW09IXSlbQ0gyXVtDQEBIXShOMjMpW0NIMl1bQ0BIXShbQ0gyXVtDSDJdMylOKFtDSF09QzRGKUMoPU8pW0NIMl1DNChGKUY=

>  <s_glide_docking_method>  (1) 
confgen

>  <s_i_glide_gridfile>  (1) 
gpcr_drd2_6luq_protein_autoprepared_prepared

>  <s_lp_Force_Field>  (1) 
S-OPLS

>  <s_lp_Variant>  (1) 
DiffSBDD_11_num_sample_50-2

>  <s_m_source_file>  (1) 
generated__ligand_DiffSBDD_2026-05-06_prepared.sdf

>  <GenAI_Model>  (1) 
DiffSBDD

>  <Protein>  (1) 
generic_title2

$$$$
DiffSBDD_33_num_sample_50
     RDKit          3D

  0  0  0  0  0  0  0  0  0  0999 V3000
M  V30 BEGIN CTAB
M  V30 COUNTS 69 72 0 0 1
M  V30 BEGIN ATOM
M  V30 1 O 6.908704 -1.021629 -19.210748 0
M  V30 2 C 8.245786 1.772885 -17.426199 0
M  V30 3 O 4.938198 -1.110283 -17.261834 0
M  V30 4 C 6.116170 0.403368 -15.763067 0
M  V30 5 C 8.719845 4.640106 -11.123503 0
M  V30 6 C 6.786246 0.907963 -12.697354 0
M  V30 7 C 6.346392 5.859874 -15.548798 0
M  V30 8 C 4.958029 -2.368956 -19.302408 0
M  V30 9 N 8.234809 1.582443 -16.018269 0
M  V30 10 C 7.442367 4.807092 -15.231903 0
M  V30 11 C 5.834919 6.082908 -13.124617 0
M  V30 12 C 7.111422 1.754396 -13.911326 0
M  V30 13 N 8.148558 0.513597 -18.066205 0
M  V30 14 C 6.133187 6.865033 -14.405780 0 CFG=1
M  V30 15 N 9.034880 6.736548 -7.859683 0 CHG=1
M  V30 16 C 7.028742 5.246339 -12.741435 0
M  V30 17 C 4.335129 -1.205252 -18.544964 0 CFG=2
M  V30 18 C 6.046839 -0.302828 -17.076850 0
M  V30 19 C 9.884791 6.326058 -6.725700 0
M  V30 20 C 9.576685 7.930621 -8.553959 0
M  V30 21 N 7.641609 5.438803 -11.638009 0
M  V30 22 C 7.436774 4.189727 -13.799178 0 CFG=1
M  V30 23 F 4.356293 -0.076056 -19.259600 0
M  V30 24 C 7.356589 7.774061 -14.238837 0
M  V30 25 C 7.013986 -0.252775 -18.070806 0
M  V30 26 O 6.550266 3.067071 -13.751198 0
M  V30 27 C 6.459292 -2.359604 -19.075158 0
M  V30 28 C 8.568426 5.612613 -8.727123 0
M  V30 29 C 9.434792 5.357646 -9.976161 0
M  V30 30 C 8.205075 1.359620 -12.943101 0
M  V30 31 C 7.120724 1.211008 -15.304339 0
M  V30 32 F 5.101360 0.169200 -14.913820 0
M  V30 33 H 9.172444 2.264323 -17.724005 0
M  V30 34 H 7.415207 2.412024 -17.732846 0
M  V30 35 H 8.275770 3.769258 -10.691677 0
M  V30 36 H 9.454444 4.354398 -11.875845 0
M  V30 37 H 6.234723 1.383623 -11.891655 0
M  V30 38 H 6.570907 -0.149374 -12.843549 0
M  V30 39 H 5.398556 5.369301 -15.746624 0
M  V30 40 H 6.599160 6.386702 -16.469619 0
M  V30 41 H 4.550097 -3.316687 -18.950550 0
M  V30 42 H 4.718496 -2.292642 -20.363398 0
M  V30 43 H 8.918461 2.134734 -15.525052 0
M  V30 44 H 8.417371 5.267833 -15.392065 0
M  V30 45 H 7.389131 4.027526 -15.984686 0
M  V30 46 H 4.988043 5.417908 -13.273962 0
M  V30 47 H 5.273459 7.494268 -14.637073 0
M  V30 48 H 3.284087 -1.430712 -18.401058 0
M  V30 49 H 8.765620 0.400327 -18.857468 0
M  V30 50 H 10.724621 5.715800 -7.058861 0
M  V30 51 H 10.283249 7.191737 -6.196073 0
M  V30 52 H 9.286366 5.769297 -6.011318 0
M  V30 53 H 10.626417 7.792669 -8.816048 0
M  V30 54 H 9.034841 8.164436 -9.468642 0
M  V30 55 H 9.504936 8.802411 -7.903149 0
M  V30 56 H 8.456057 3.857186 -13.632932 0
M  V30 57 H 8.234841 7.157138 -14.301094 0
M  V30 58 H 7.408069 8.536017 -15.015573 0
M  V30 59 H 7.434681 8.253958 -13.262935 0
M  V30 60 H 6.727054 -2.776171 -18.101409 0
M  V30 61 H 6.953562 -2.980563 -19.822576 0
M  V30 62 H 7.534210 5.769274 -9.027748 0
M  V30 63 H 8.507154 4.698976 -8.133672 0
M  V30 64 H 10.234839 4.718904 -9.629581 0
M  V30 65 H 9.889536 6.253648 -10.392240 0
M  V30 66 H 8.910889 0.593968 -13.258723 0
M  V30 67 H 8.625368 2.115514 -12.291643 0
M  V30 68 H 8.153441 7.058165 -7.461955 0
M  V30 69 H 5.574371 6.759698 -12.309079 0
M  V30 END ATOM
M  V30 BEGIN BOND
M  V30 1 1 9 2
M  V30 2 1 10 7
M  V30 3 1 12 6
M  V30 4 1 13 2
M  V30 5 1 14 7
M  V30 6 1 14 11
M  V30 7 1 16 11
M  V30 8 1 17 3
M  V30 9 1 17 8
M  V30 10 1 18 3
M  V30 11 1 18 4
M  V30 12 1 19 15
M  V30 13 1 20 15
M  V30 14 1 21 5
M  V30 15 2 21 16
M  V30 16 1 22 10
M  V30 17 1 22 16
M  V30 18 1 23 17
M  V30 19 1 24 14
M  V30 20 1 25 1
M  V30 21 1 25 13
M  V30 22 2 25 18
M  V30 23 1 26 12
M  V30 24 1 26 22
M  V30 25 1 27 1
M  V30 26 1 27 8
M  V30 27 1 28 15
M  V30 28 1 29 5
M  V30 29 1 29 28
M  V30 30 1 30 6
M  V30 31 1 30 12
M  V30 32 2 31 4
M  V30 33 1 31 9
M  V30 34 1 31 12
M  V30 35 1 32 4
M  V30 36 1 33 2
M  V30 37 1 34 2
M  V30 38 1 35 5
M  V30 39 1 36 5
M  V30 40 1 37 6
M  V30 41 1 38 6
M  V30 42 1 39 7
M  V30 43 1 40 7
M  V30 44 1 41 8
M  V30 45 1 42 8
M  V30 46 1 43 9
M  V30 47 1 44 10
M  V30 48 1 45 10
M  V30 49 1 46 11
M  V30 50 1 14 47 CFG=3
M  V30 51 1 17 48 CFG=1
M  V30 52 1 49 13
M  V30 53 1 50 19
M  V30 54 1 51 19
M  V30 55 1 52 19
M  V30 56 1 53 20
M  V30 57 1 54 20
M  V30 58 1 55 20
M  V30 59 1 22 56 CFG=1
M  V30 60 1 57 24
M  V30 61 1 58 24
M  V30 62 1 59 24
M  V30 63 1 60 27
M  V30 64 1 61 27
M  V30 65 1 62 28
M  V30 66 1 63 28
M  V30 67 1 64 29
M  V30 68 1 65 29
M  V30 69 1 66 30
M  V30 70 1 67 30
M  V30 71 1 68 15
M  V30 72 1 69 11
M  V30 END BOND
M  V30 END CTAB
M  END
>  <i_epik_Tot_Q>  (1) 
1

>  <i_epik_Tot_abs_Q>  (1) 
1

>  <i_i_glide_confnum>  (1) 
465

>  <i_i_glide_lignum>  (1) 
86

>  <i_i_glide_posenum>  (1) 
266

>  <i_i_glide_rotatable_bonds>  (1) 
7

>  <i_lp_mmshare_version>  (1) 
72125

>  <i_m_source_file_index>  (1) 
34

>  <i_f3d_flags>  (1) 
0

>  <num_sample>  (1) 
50

>  <b_lp_Chiralities_Consistent>  (1) 
1

>  <r_epik_Charging_Adjusted_Penalty>  (1) 
0.41789118993368612

>  <r_epik_Ionization_Penalty>  (1) 
0.0076682513750627552

>  <r_epik_Ionization_Penalty_Charging>  (1) 
0.0072113509810821487

>  <r_epik_Ionization_Penalty_Neutral>  (1) 
0.0004569003939806066

>  <r_epik_State_Penalty>  (1) 
0.41067983895260396

>  <r_glide_ring_energy>  (1) 
1.3428436498976668

>  <r_i_docking_score>  (1) 
-5.6397931152311926

>  <r_i_glide_ecoul>  (1) 
-2.9233079315816397

>  <r_i_glide_eff_state_penalty>  (1) 
0.41067983895260396

>  <r_i_glide_einternal>  (1) 
8.1577499795586057

>  <r_i_glide_emodel>  (1) 
-42.607364017002588

>  <r_i_glide_emodel_strain>  (1) 
4.5808667764108861

>  <r_i_glide_energy>  (1) 
-35.416264711155264

>  <r_i_glide_erotb>  (1) 
0.40655192622224545

>  <r_i_glide_esite>  (1) 
-0.13743750842128441

>  <r_i_glide_evdw>  (1) 
-32.492956779573625

>  <r_i_glide_gscore>  (1) 
-6.0504729541837969

>  <r_i_glide_gscore_strain>  (1) 
0.14521669410272153

>  <r_i_glide_hbond>  (1) 
-0.20233457353522508

>  <r_i_glide_ligand_efficiency>  (1) 
-0.17624353485097477

>  <r_i_glide_ligand_efficiency_ln>  (1) 
-1.2629034134542994

>  <r_i_glide_ligand_efficiency_sa>  (1) 
-0.55953834525006285

>  <r_i_glide_lipo>  (1) 
-2.2622000960313904

>  <r_i_glide_metal>  (1) 
-0

>  <r_i_glide_rewards>  (1) 
-1.9371253678049369

>  <r_lp_Energy>  (1) 
52.233778000000001

>  <r_lp_tautomer_probability>  (1) 
0.49999519497573586

>  <s_epik_Chemistry_Notes>  (1) 
This compound has an imine and may undergo hydrolysis. This compound contains an acetal/aminal-like group ( X-CH(R)-Y where X, Y are N, S, or O) that may be acid/base labile, releasing an aldehyde.

>  <s_epik_cmdline>  (1) 
J2VwaWtfcHl0aG9uJywgJy1waHQnLCAnMS4wJywgJy1waCcsICc3LjQnLCAnLXRuJywgJzgnLCAnLW1hJywgJzUwMCcsICctaW1hZScsICc8aW5maWxlLm1hZT4nLCAnLW9tYWUnLCAnPG91dGZpbGUubWFlPic=

>  <s_epik_input>  (1) 
TzFbQ0BASF0oRilbQ0gyXVtDSDJdT0MoW0NAQEhdMTIpPU5bQ0gyXVtOSF1DKD1DMkYpQzMoW0NIMl1bQ0gyXTMpT1tDQEBIXShbQ0gyXVtDSDJdW0NAQEhdNFtDSDNdKUMoPVtDSF00KVtOSF1bQ0gyXVtDSDJdW0NIMl1OKFtDSDNdKVtDSDNd

>  <s_glide_docking_method>  (1) 
confgen

>  <s_i_glide_gridfile>  (1) 
gpcr_drd2_6luq_protein_autoprepared_prepared

>  <s_lp_Force_Field>  (1) 
S-OPLS

>  <s_lp_Variant>  (1) 
DiffSBDD_33_num_sample_50-4

>  <s_m_source_file>  (1) 
generated__ligand_DiffSBDD_2026-05-06_prepared.sdf

>  <GenAI_Model>  (1) 
DiffSBDD

>  <Protein>  (1) 
generic_title2

$$$$
DiffSBDD_0_num_sample_50
     RDKit          3D

  0  0  0  0  0  0  0  0  0  0999 V3000
M  V30 BEGIN CTAB
M  V30 COUNTS 58 61 0 0 1
M  V30 BEGIN ATOM
M  V30 1 C 6.882579 5.451950 -19.422658 0
M  V30 2 C 7.977119 5.387093 -11.057308 0 CFG=2
M  V30 3 N 7.866500 4.253367 -12.039585 0 CFG=1 CHG=1
M  V30 4 N 7.190273 5.227343 -15.737410 0
M  V30 5 C 10.392399 7.235695 -5.804751 0
M  V30 6 C 11.296499 7.975412 -8.080219 0
M  V30 7 C 9.833789 6.783794 -12.125082 0
M  V30 8 S 9.541327 5.907574 -8.093840 0
M  V30 9 O 8.445553 2.170947 -12.691641 0
M  V30 10 C 6.651912 5.678120 -18.047140 0
M  V30 11 C 6.851606 6.362249 -11.491471 0
M  V30 12 C 7.502800 4.970444 -17.016845 0
M  V30 13 C 5.673838 4.685422 -13.145452 0
M  V30 14 C 9.426995 5.999628 -10.891365 0 CFG=1
M  V30 15 C 7.900461 4.618710 -14.617186 0
M  V30 16 N 10.636509 6.169212 -12.986799 0
M  V30 17 O 9.432499 7.930465 -12.291650 0
M  V30 18 F 4.314615 7.610896 -20.924152 0
M  V30 19 O 8.411846 4.212802 -17.354681 0
M  V30 20 C 6.094518 6.104097 -20.389773 0
M  V30 21 C 9.713902 6.865903 -9.621369 0 CFG=2
M  V30 22 C 6.431287 5.968686 -12.872383 0 CFG=2
M  V30 23 C 4.835183 7.217076 -18.622382 0
M  V30 24 F 11.416878 7.731043 -5.110143 0
M  V30 25 F 9.431384 8.155073 -5.891540 0
M  V30 26 C 7.178348 4.735134 -13.275354 0 CFG=2
M  V30 27 C 9.034015 3.342509 -12.176085 0
M  V30 28 F 6.320170 5.882284 -21.705872 0
M  V30 29 C 5.072163 6.985570 -19.990672 0
M  V30 30 C 10.849734 6.797861 -7.203074 0 CFG=2
M  V30 31 C 11.083266 7.583893 -9.542545 0
M  V30 32 C 5.620091 6.568336 -17.648502 0
M  V30 33 H 7.664324 4.775635 -19.736317 0
M  V30 34 H 7.694712 4.970097 -10.090119 0
M  V30 35 H 6.433269 5.860292 -15.531054 0
M  V30 36 H 9.989577 6.396531 -5.236802 0
M  V30 37 H 10.683899 8.853698 -7.867858 0
M  V30 38 H 12.330691 8.258946 -7.882256 0
M  V30 39 H 8.821459 1.437241 -12.211713 0
M  V30 40 H 7.144211 7.410494 -11.491942 0
M  V30 41 H 5.984391 6.261225 -10.836024 0
M  V30 42 H 5.078693 4.646951 -14.054457 0
M  V30 43 H 5.240615 4.164982 -12.293111 0
M  V30 44 H 10.118619 5.173043 -10.795726 0
M  V30 45 H 8.881575 5.083364 -14.553042 0
M  V30 46 H 8.060149 3.562651 -14.836996 0
M  V30 47 H 10.958353 5.224928 -12.812540 0
M  V30 48 H 10.939688 6.655776 -13.817697 0
M  V30 49 H 9.034826 7.700778 -9.567153 0
M  V30 50 H 6.318489 6.778066 -13.590134 0
M  V30 51 H 4.049867 7.893297 -18.319304 0
M  V30 52 H 9.435126 3.105255 -11.193083 0
M  V30 53 H 9.829598 3.711258 -12.818810 0
M  V30 54 H 11.679994 6.099531 -7.099521 0
M  V30 55 H 11.908951 6.969769 -9.882302 0
M  V30 56 H 11.102345 8.475405 -10.170453 0
M  V30 57 H 5.429653 6.754574 -16.602009 0
M  V30 58 H 7.166601 3.658797 -11.621315 0
M  V30 END ATOM
M  V30 BEGIN BOND
M  V30 1 1 3 2
M  V30 2 2 10 1
M  V30 3 1 11 2
M  V30 4 1 12 4
M  V30 5 1 12 10
M  V30 6 1 14 2
M  V30 7 1 14 7
M  V30 8 1 15 4
M  V30 9 1 16 7
M  V30 10 2 17 7
M  V30 11 2 19 12
M  V30 12 1 20 1
M  V30 13 1 21 8
M  V30 14 1 21 14
M  V30 15 1 22 11
M  V30 16 1 22 13
M  V30 17 1 24 5
M  V30 18 1 25 5
M  V30 19 1 26 3
M  V30 20 1 26 13
M  V30 21 1 26 15 CFG=3
M  V30 22 1 26 22
M  V30 23 1 27 3
M  V30 24 1 27 9
M  V30 25 1 28 20
M  V30 26 1 29 18
M  V30 27 2 29 20
M  V30 28 1 29 23
M  V30 29 1 30 5
M  V30 30 1 30 6
M  V30 31 1 30 8
M  V30 32 1 31 6
M  V30 33 1 31 21
M  V30 34 1 32 10
M  V30 35 2 32 23
M  V30 36 1 33 1
M  V30 37 1 2 34 CFG=1
M  V30 38 1 35 4
M  V30 39 1 36 5
M  V30 40 1 37 6
M  V30 41 1 38 6
M  V30 42 1 39 9
M  V30 43 1 40 11
M  V30 44 1 41 11
M  V30 45 1 42 13
M  V30 46 1 43 13
M  V30 47 1 14 44 CFG=1
M  V30 48 1 45 15
M  V30 49 1 46 15
M  V30 50 1 47 16
M  V30 51 1 48 16
M  V30 52 1 21 49 CFG=1
M  V30 53 1 22 50 CFG=3
M  V30 54 1 51 23
M  V30 55 1 52 27
M  V30 56 1 53 27
M  V30 57 1 30 54 CFG=1
M  V30 58 1 55 31
M  V30 59 1 56 31
M  V30 60 1 57 32
M  V30 61 1 3 58 CFG=1
M  V30 END BOND
M  V30 END CTAB
M  END
>  <i_epik_Tot_Q>  (1) 
1

>  <i_epik_Tot_abs_Q>  (1) 
1

>  <i_i_glide_confnum>  (1) 
159

>  <i_i_glide_lignum>  (1) 
3

>  <i_i_glide_posenum>  (1) 
396

>  <i_i_glide_rotatable_bonds>  (1) 
10

>  <i_lp_mmshare_version>  (1) 
72125

>  <i_m_source_file_index>  (1) 
1

>  <i_f3d_flags>  (1) 
0

>  <num_sample>  (1) 
50

>  <b_lp_Chiralities_Consistent>  (1) 
1

>  <r_epik_Charging_Adjusted_Penalty>  (1) 
2.6270329568783799

>  <r_epik_Ionization_Penalty>  (1) 
1.3408557112072272

>  <r_epik_Ionization_Penalty_Charging>  (1) 
1.3119003563655398

>  <r_epik_Ionization_Penalty_Neutral>  (1) 
0.028955354841687337

>  <r_epik_State_Penalty>  (1) 
1.3151326005128403

>  <r_glide_ring_energy>  (1) 
0

>  <r_i_docking_score>  (1) 
-5.6238200219639856

>  <r_i_glide_ecoul>  (1) 
-10.850767420777313

>  <r_i_glide_eff_state_penalty>  (1) 
1.3151326005128403

>  <r_i_glide_einternal>  (1) 
4.183504310616982

>  <r_i_glide_emodel>  (1) 
-58.136466820699653

>  <r_i_glide_emodel_strain>  (1) 
0.057089926833100435

>  <r_i_glide_energy>  (1) 
-40.439359171905323

>  <r_i_glide_erotb>  (1) 
0.53508942527165992

>  <r_i_glide_esite>  (1) 
-0.021532763162303521

>  <r_i_glide_evdw>  (1) 
-29.588591751128011

>  <r_i_glide_gscore>  (1) 
-6.9389526224768261

>  <r_i_glide_gscore_strain>  (1) 
0

>  <r_i_glide_hbond>  (1) 
-0.52279683221508388

>  <r_i_glide_ligand_efficiency>  (1) 
-0.17574437568637455

>  <r_i_glide_ligand_efficiency_ln>  (1) 
-1.2593266024616938

>  <r_i_glide_ligand_efficiency_sa>  (1) 
-0.55795361368409091

>  <r_i_glide_lipo>  (1) 
-1.9233199182920515

>  <r_i_glide_metal>  (1) 
-0

>  <r_i_glide_rewards>  (1) 
-1.8993478334060492

>  <r_lp_Energy>  (1) 
18.756574999999998

>  <s_epik_Chemistry_Notes>  (1) 
This compound contains an acetal/aminal-like group ( X-CH(R)-Y where X, Y are N, S, or O) that may be acid/base labile, releasing an aldehyde.

>  <s_epik_cmdline>  (1) 
J2VwaWtfcHl0aG9uJywgJy1waHQnLCAnMS4wJywgJy1waCcsICc3LjQnLCAnLXRuJywgJzgnLCAnLW1hJywgJzUwMCcsICctaW1hZScsICc8aW5maWxlLm1hZT4nLCAnLW9tYWUnLCAnPG91dGZpbGUubWFlPic=

>  <s_epik_input>  (1) 
W2NIXTFbY0hdYyhGKWMoRilbY0hdYzFDKD1PKVtOSF1bQ0gyXVtDQF0yM1tDQEBIXShbQ0gyXTMpW0NIMl1bQ0BASF0oTjJbQ0gyXVtPSF0pW0NAQEhdKEMoPU8pW05IMl0pW0NASF00U1tDQEhdKFtDSF0oRilGKVtDSDJdW0NIMl00

>  <s_glide_docking_method>  (1) 
confgen

>  <s_i_glide_gridfile>  (1) 
gpcr_drd2_6luq_protein_autoprepared_prepared

>  <s_lp_Force_Field>  (1) 
S-OPLS

>  <s_lp_Variant>  (1) 
DiffSBDD_0_num_sample_50-3

>  <s_m_source_file>  (1) 
generated__ligand_DiffSBDD_2026-05-06_prepared.sdf

>  <GenAI_Model>  (1) 
DiffSBDD

>  <Protein>  (1) 
generic_title2

$$$$
DiffSBDD_19_num_sample_50
     RDKit          3D

  0  0  0  0  0  0  0  0  0  0999 V3000
M  V30 BEGIN CTAB
M  V30 COUNTS 78 83 0 0 1
M  V30 BEGIN ATOM
M  V30 1 C 6.465971 2.645571 -13.471715 0 CFG=1
M  V30 2 C 10.189530 8.418373 -6.468793 0
M  V30 3 O 4.701534 4.169303 -12.820328 0
M  V30 4 C 11.451908 8.801231 -6.590654 0
M  V30 5 C 9.551763 6.558958 -10.964602 0
M  V30 6 C 10.634888 6.569366 -11.726478 0
M  V30 7 C 7.513926 0.464131 -15.906486 0 CFG=2
M  V30 8 O 11.580001 9.428781 -4.375596 0 CHG=-1
M  V30 9 C 8.170942 4.371161 -13.246298 0 CFG=1
M  V30 10 C 8.410018 1.691336 -16.212739 0 CFG=1
M  V30 11 O 9.403166 7.370938 -9.928075 0
M  V30 12 O 13.434857 8.569359 -10.410616 0
M  V30 13 C 12.224827 8.725545 -7.883748 0
M  V30 14 C 5.781338 4.005343 -13.688934 0 CFG=1
M  V30 15 C 5.834909 1.333298 -14.046184 0
M  V30 16 C 5.423198 1.331571 -19.782855 0
M  V30 17 C 10.186803 7.765191 -8.923573 0
M  V30 18 C 8.404759 2.071720 -17.715376 0
M  V30 19 N 12.161887 9.369297 -5.455787 0 CHG=1
M  V30 20 C 6.701991 0.876098 -19.047561 0
M  V30 21 C 12.227368 8.013279 -10.362033 0
M  V30 22 C 11.483618 8.123427 -9.079677 0
M  V30 23 C 7.719148 0.522156 -20.162580 0
M  V30 24 O 8.111086 -0.230700 -14.829627 0
M  V30 25 C 7.565430 -0.578388 -17.070082 0
M  V30 26 O 7.107499 2.046221 -18.317991 0
M  V30 27 C 6.062632 0.908939 -15.539087 0 CFG=2
M  V30 28 C 7.925109 2.935030 -13.812531 0 CFG=2
M  V30 29 C 9.401249 7.883676 -7.617315 0
M  V30 30 O 8.471431 5.762950 -11.257371 0
M  V30 31 C 5.077402 -0.526942 -17.434381 0
M  V30 32 C 6.825569 5.090785 -13.433338 0
M  V30 33 C 5.061378 -0.193235 -15.928922 0
M  V30 34 C 8.179591 2.975196 -15.361769 0
M  V30 35 C 6.463706 -0.368060 -18.121605 0 CFG=1
M  V30 36 C 8.664962 4.452727 -11.785923 0
M  V30 37 O 13.308330 9.769286 -5.633460 0
M  V30 38 O 8.666856 1.978248 -13.091729 0
M  V30 39 C 11.834818 7.353550 -11.491551 0
M  V30 40 H 6.425517 2.498002 -12.389835 0
M  V30 41 H 9.680019 8.507387 -5.523331 0
M  V30 42 H 5.035634 4.196565 -11.935624 0
M  V30 43 H 10.640711 5.926430 -12.593761 0
M  V30 44 H 8.926317 4.895074 -13.830512 0
M  V30 45 H 9.434692 1.374414 -16.029595 0
M  V30 46 H 13.514797 9.205937 -9.713000 0
M  V30 47 H 12.234807 9.769236 -8.166780 0
M  V30 48 H 13.232271 8.323915 -7.763570 0
M  V30 49 H 5.434839 4.169041 -14.691786 0
M  V30 50 H 6.165680 0.507949 -13.416010 0
M  V30 51 H 4.765219 1.369268 -13.847360 0
M  V30 52 H 4.931171 0.498014 -20.288536 0
M  V30 53 H 5.650415 2.081671 -20.541660 0
M  V30 54 H 4.703373 1.790591 -19.105710 0
M  V30 55 H 8.777391 3.090656 -17.830630 0
M  V30 56 H 9.136058 1.473624 -18.255740 0
M  V30 57 H 7.291092 -0.196909 -20.863827 0
M  V30 58 H 8.631782 0.063398 -19.785167 0
M  V30 59 H 8.002472 1.403345 -20.738769 0
M  V30 60 H 7.834732 -1.141877 -14.848759 0
M  V30 61 H 8.558252 -0.622529 -17.516688 0
M  V30 62 H 7.403789 -1.586564 -16.691760 0
M  V30 63 H 5.834858 1.753110 -16.186431 0
M  V30 64 H 8.624083 8.615962 -7.804237 0
M  V30 65 H 8.930956 6.933604 -7.360696 0
M  V30 66 H 4.769552 -1.569523 -17.525475 0
M  V30 67 H 4.287582 0.005881 -17.951431 0
M  V30 68 H 6.550288 5.728150 -12.592200 0
M  V30 69 H 6.882780 5.754462 -14.296520 0
M  V30 70 H 5.317326 -1.086713 -15.363236 0
M  V30 71 H 4.046113 0.069305 -15.630474 0
M  V30 72 H 9.034780 3.621163 -15.558156 0
M  V30 73 H 7.358182 3.521175 -15.822040 0
M  V30 74 H 6.524190 -1.227591 -18.790944 0
M  V30 75 H 8.062401 3.798105 -11.158216 0
M  V30 76 H 9.690492 4.095924 -11.684403 0
M  V30 77 H 8.428321 1.983967 -12.177481 0
M  V30 78 H 12.543355 7.368183 -12.309324 0
M  V30 END ATOM
M  V30 BEGIN BOND
M  V30 1 2 4 2
M  V30 2 2 6 5
M  V30 3 1 10 7
M  V30 4 1 11 5
M  V30 5 1 13 4
M  V30 6 1 14 1
M  V30 7 1 14 3
M  V30 8 1 15 1
M  V30 9 1 17 11
M  V30 10 1 18 10
M  V30 11 1 19 4
M  V30 12 1 19 8
M  V30 13 1 20 16
M  V30 14 1 21 12
M  V30 15 1 22 13
M  V30 16 2 22 17
M  V30 17 1 22 21
M  V30 18 1 23 20
M  V30 19 1 7 24 CFG=1
M  V30 20 1 25 7
M  V30 21 1 26 18
M  V30 22 1 26 20
M  V30 23 1 27 7
M  V30 24 1 27 15
M  V30 25 1 28 1
M  V30 26 1 28 9
M  V30 27 1 29 2
M  V30 28 1 29 17
M  V30 29 1 30 5
M  V30 30 1 32 9
M  V30 31 1 32 14
M  V30 32 1 33 27
M  V30 33 1 33 31
M  V30 34 1 34 10
M  V30 35 1 34 28
M  V30 36 1 35 20
M  V30 37 1 35 25
M  V30 38 1 35 31
M  V30 39 1 36 9
M  V30 40 1 36 30
M  V30 41 2 37 19
M  V30 42 1 28 38 CFG=1
M  V30 43 1 39 6
M  V30 44 2 39 21
M  V30 45 1 1 40 CFG=1
M  V30 46 1 41 2
M  V30 47 1 42 3
M  V30 48 1 43 6
M  V30 49 1 9 44 CFG=3
M  V30 50 1 10 45 CFG=1
M  V30 51 1 46 12
M  V30 52 1 47 13
M  V30 53 1 48 13
M  V30 54 1 14 49 CFG=3
M  V30 55 1 50 15
M  V30 56 1 51 15
M  V30 57 1 52 16
M  V30 58 1 53 16
M  V30 59 1 54 16
M  V30 60 1 55 18
M  V30 61 1 56 18
M  V30 62 1 57 23
M  V30 63 1 58 23
M  V30 64 1 59 23
M  V30 65 1 60 24
M  V30 66 1 61 25
M  V30 67 1 62 25
M  V30 68 1 27 63 CFG=3
M  V30 69 1 64 29
M  V30 70 1 65 29
M  V30 71 1 66 31
M  V30 72 1 67 31
M  V30 73 1 68 32
M  V30 74 1 69 32
M  V30 75 1 70 33
M  V30 76 1 71 33
M  V30 77 1 72 34
M  V30 78 1 73 34
M  V30 79 1 35 74 CFG=3
M  V30 80 1 75 36
M  V30 81 1 76 36
M  V30 82 1 77 38
M  V30 83 1 78 39
M  V30 END BOND
M  V30 END CTAB
M  END
>  <i_epik_Tot_Q>  (1) 
0

>  <i_epik_Tot_abs_Q>  (1) 
2

>  <i_i_glide_confnum>  (1) 
1

>  <i_i_glide_lignum>  (1) 
56

>  <i_i_glide_posenum>  (1) 
36

>  <i_i_glide_rotatable_bonds>  (1) 
8

>  <i_lp_mmshare_version>  (1) 
72125

>  <i_m_source_file_index>  (1) 
20

>  <i_f3d_flags>  (1) 
0

>  <num_sample>  (1) 
50

>  <b_lp_Chiralities_Consistent>  (1) 
1

>  <r_epik_Charging_Adjusted_Penalty>  (1) 
0.77299719136223677

>  <r_epik_Ionization_Penalty>  (1) 
0.77299806013173578

>  <r_epik_Ionization_Penalty_Charging>  (1) 
0

>  <r_epik_Ionization_Penalty_Neutral>  (1) 
0.77299806013173578

>  <r_epik_State_Penalty>  (1) 
0.77299719136223677

>  <r_glide_ring_energy>  (1) 
0

>  <r_i_docking_score>  (1) 
-5.6198173764130495

>  <r_i_glide_ecoul>  (1) 
-8.1362121821440905

>  <r_i_glide_eff_state_penalty>  (1) 
0.77299719136223677

>  <r_i_glide_einternal>  (1) 
2.3591614452314138

>  <r_i_glide_emodel>  (1) 
-33.581112313547806

>  <r_i_glide_emodel_strain>  (1) 
1.8341215459713283

>  <r_i_glide_energy>  (1) 
-28.291391656565473

>  <r_i_glide_erotb>  (1) 
0.20863989142985551

>  <r_i_glide_esite>  (1) 
0

>  <r_i_glide_evdw>  (1) 
-20.155179474421381

>  <r_i_glide_gscore>  (1) 
-6.3928145677752859

>  <r_i_glide_gscore_strain>  (1) 
0

>  <r_i_glide_hbond>  (1) 
-0.48879927380201366

>  <r_i_glide_ligand_efficiency>  (1) 
-0.14409788144648844

>  <r_i_glide_ligand_efficiency_ln>  (1) 
-1.2050483735059045

>  <r_i_glide_ligand_efficiency_sa>  (1) 
-0.48866638447543048

>  <r_i_glide_lipo>  (1) 
-3.0207285756230058

>  <r_i_glide_metal>  (1) 
-0

>  <r_i_glide_rewards>  (1) 
-0.8637358087374396

>  <r_lp_Energy>  (1) 
64.670022000000003

>  <s_epik_cmdline>  (1) 
J2VwaWtfcHl0aG9uJywgJy1waHQnLCAnMS4wJywgJy1waCcsICc3LjQnLCAnLXRuJywgJzgnLCAnLW1hJywgJzUwMCcsICctaW1hZScsICc8aW5maWxlLm1hZT4nLCAnLW9tYWUnLCAnPG91dGZpbGUubWFlPic=

>  <s_epik_input>  (1) 
W09IXVtDQEBdMTJbQ0BIXTNbQ0gyXU9DKFtDSDNdKShbQ0gzXSlbQ0BASF0oW0NIMl0xKVtDSDJdW0NIMl1bQ0BIXTJbQ0gyXVtDQEhdNFtDQF0oW0NIMl0zKShbT0hdKVtDQEBIXShbQ0gyXVtDQEBIXTRbT0hdKVtDSDJdT0MoTzUpPVtDSF1bQ0hdPUMoW09IXSlDKD1DNTYpW0NIMl1DKFtOK10oW08tXSk9Tyk9W0NIXVtDSDJdNg==

>  <s_glide_docking_method>  (1) 
confgen

>  <s_i_glide_gridfile>  (1) 
gpcr_drd2_6luq_protein_autoprepared_prepared

>  <s_lp_Force_Field>  (1) 
S-OPLS

>  <s_lp_Variant>  (1) 
DiffSBDD_19_num_sample_50-2

>  <s_m_source_file>  (1) 
generated__ligand_DiffSBDD_2026-05-06_prepared.sdf

>  <GenAI_Model>  (1) 
DiffSBDD

>  <Protein>  (1) 
generic_title2

$$$$
DiffSBDD_35_num_sample_50
     RDKit          3D

  0  0  0  0  0  0  0  0  0  0999 V3000
M  V30 BEGIN CTAB
M  V30 COUNTS 55 58 0 0 1
M  V30 BEGIN ATOM
M  V30 1 C 10.589203 6.093592 -7.996334 0
M  V30 2 C 13.824358 9.540128 -4.978452 0
M  V30 3 C 11.373449 8.880037 -5.226624 0 CFG=1
M  V30 4 O 8.237444 5.369095 -7.763486 0
M  V30 5 C 12.849986 7.362977 -3.824306 0
M  V30 6 O 7.369572 2.192352 -14.301998 0
M  V30 7 O 9.834777 6.568155 -5.757670 0
M  V30 8 C 7.414570 5.258750 -11.080759 0 CFG=1
M  V30 9 C 8.402464 6.260272 -13.215681 0 CFG=1
M  V30 10 C 9.662673 5.416910 -13.363223 0
M  V30 11 C 11.426906 8.134227 -6.569401 0
M  V30 12 C 12.601166 8.796489 -4.301497 0
M  V30 13 C 7.179989 5.866391 -13.939512 0 CFG=1
M  V30 14 C 6.373790 4.722879 -11.973880 0 CFG=2
M  V30 15 C 11.988800 8.357952 -1.879337 0
M  V30 16 C 7.017416 3.265790 -13.817774 0
M  V30 17 C 9.228254 5.791068 -8.674309 0 CFG=2
M  V30 18 C 6.941212 4.543888 -14.662641 0
M  V30 19 C 10.542855 6.902109 -6.693556 0
M  V30 20 O 12.145425 8.504145 -7.499431 0
M  V30 21 C 9.406303 4.663314 -9.672673 0
M  V30 22 C 8.607271 4.444579 -10.728593 0
M  V30 23 Cl 11.038130 10.569148 -5.492881 0
M  V30 24 O 6.657760 3.443176 -12.530475 0
M  V30 25 C 7.111999 5.986337 -12.411017 0 CFG=2
M  V30 26 C 12.023388 7.036967 -2.600861 0
M  V30 27 O 5.083908 4.969077 -11.491163 0
M  V30 28 C 12.302438 9.413430 -2.933088 0
M  V30 29 H 11.044104 5.143668 -7.726814 0
M  V30 30 H 11.252867 6.567871 -8.718982 0
M  V30 31 H 14.366970 10.169456 -4.291844 0
M  V30 32 H 14.634386 8.969403 -5.392837 0
M  V30 33 H 13.541031 10.169243 -5.816892 0
M  V30 34 H 10.515208 8.507440 -4.687372 0
M  V30 35 H 7.636269 6.096421 -7.614582 0
M  V30 36 H 12.634283 6.593280 -4.566672 0
M  V30 37 H 13.879552 7.307960 -3.491690 0
M  V30 38 H 7.033625 5.768215 -10.202008 0
M  V30 39 H 8.634236 7.321472 -13.192028 0
M  V30 40 H 9.462551 4.348190 -13.374237 0
M  V30 41 H 10.159978 5.657608 -14.301650 0
M  V30 42 H 10.359307 5.633832 -12.553665 0
M  V30 43 H 6.711631 6.688748 -14.478529 0
M  V30 44 H 12.742702 8.387903 -1.091267 0
M  V30 45 H 11.034969 8.526504 -1.418405 0
M  V30 46 H 8.883471 6.682513 -9.196300 0
M  V30 47 H 7.641126 4.466332 -15.494881 0
M  V30 48 H 5.941949 4.578537 -15.093638 0
M  V30 49 H 10.233375 4.001793 -9.499202 0
M  V30 50 H 8.829013 3.610869 -11.379314 0
M  V30 51 H 12.472758 6.246859 -1.996960 0
M  V30 52 H 11.034625 6.697162 -2.899927 0
M  V30 53 H 5.079840 4.798384 -10.558544 0
M  V30 54 H 13.267835 9.771454 -2.662978 0
M  V30 55 H 11.577574 10.222852 -2.920492 0
M  V30 END ATOM
M  V30 BEGIN BOND
M  V30 1 1 10 9
M  V30 2 1 11 3
M  V30 3 1 12 2
M  V30 4 1 12 3
M  V30 5 1 12 5
M  V30 6 1 13 9
M  V30 7 1 14 8
M  V30 8 2 16 6
M  V30 9 1 17 1
M  V30 10 1 17 4
M  V30 11 1 18 13
M  V30 12 1 18 16
M  V30 13 1 19 1
M  V30 14 2 19 7
M  V30 15 1 19 11
M  V30 16 2 20 11
M  V30 17 1 21 17
M  V30 18 1 22 8
M  V30 19 2 22 21
M  V30 20 1 23 3
M  V30 21 1 24 14
M  V30 22 1 24 16
M  V30 23 1 25 8
M  V30 24 1 25 9
M  V30 25 1 25 13
M  V30 26 1 25 14 CFG=3
M  V30 27 1 26 5
M  V30 28 1 26 15
M  V30 29 1 14 27 CFG=1
M  V30 30 1 28 12
M  V30 31 1 28 15
M  V30 32 1 29 1
M  V30 33 1 30 1
M  V30 34 1 31 2
M  V30 35 1 32 2
M  V30 36 1 33 2
M  V30 37 1 3 34 CFG=1
M  V30 38 1 35 4
M  V30 39 1 36 5
M  V30 40 1 37 5
M  V30 41 1 8 38 CFG=1
M  V30 42 1 9 39 CFG=3
M  V30 43 1 40 10
M  V30 44 1 41 10
M  V30 45 1 42 10
M  V30 46 1 13 43 CFG=3
M  V30 47 1 44 15
M  V30 48 1 45 15
M  V30 49 1 17 46 CFG=3
M  V30 50 1 47 18
M  V30 51 1 48 18
M  V30 52 1 49 21
M  V30 53 1 50 22
M  V30 54 1 51 26
M  V30 55 1 52 26
M  V30 56 1 53 27
M  V30 57 1 54 28
M  V30 58 1 55 28
M  V30 END BOND
M  V30 END CTAB
M  END
>  <i_epik_Tot_Q>  (1) 
0

>  <i_epik_Tot_abs_Q>  (1) 
0

>  <i_i_glide_confnum>  (1) 
234

>  <i_i_glide_lignum>  (1) 
89

>  <i_i_glide_posenum>  (1) 
69

>  <i_i_glide_rotatable_bonds>  (1) 
9

>  <i_lp_mmshare_version>  (1) 
72125

>  <i_m_source_file_index>  (1) 
36

>  <i_f3d_flags>  (1) 
0

>  <num_sample>  (1) 
50

>  <b_lp_Chiralities_Consistent>  (1) 
1

>  <r_epik_Charging_Adjusted_Penalty>  (1) 
0

>  <r_epik_Ionization_Penalty>  (1) 
1.4539570635880344e-05

>  <r_epik_Ionization_Penalty_Charging>  (1) 
0

>  <r_epik_Ionization_Penalty_Neutral>  (1) 
1.4539570635880344e-05

>  <r_epik_State_Penalty>  (1) 
-0

>  <r_glide_ring_energy>  (1) 
0.0026967274923194477

>  <r_i_docking_score>  (1) 
-5.6098773437252527

>  <r_i_glide_ecoul>  (1) 
-4.3342892435618836

>  <r_i_glide_eff_state_penalty>  (1) 
-0

>  <r_i_glide_einternal>  (1) 
7.6529537776302377

>  <r_i_glide_emodel>  (1) 
-21.907697132944094

>  <r_i_glide_emodel_strain>  (1) 
4.0840238729856253

>  <r_i_glide_energy>  (1) 
-22.965200860930853

>  <r_i_glide_erotb>  (1) 
0.81694813045343473

>  <r_i_glide_esite>  (1) 
0

>  <r_i_glide_evdw>  (1) 
-18.63091161736897

>  <r_i_glide_gscore>  (1) 
-5.6098773437252527

>  <r_i_glide_gscore_strain>  (1) 
0.021005968246406326

>  <r_i_glide_hbond>  (1) 
-0.16

>  <r_i_glide_ligand_efficiency>  (1) 
-0.20035276227590187

>  <r_i_glide_ligand_efficiency_ln>  (1) 
-1.2949244040878338

>  <r_i_glide_ligand_efficiency_sa>  (1) 
-0.60838898841182998

>  <r_i_glide_lipo>  (1) 
-2.6140573293316263

>  <r_i_glide_metal>  (1) 
-0

>  <r_i_glide_rewards>  (1) 
-2.0920851456907368

>  <r_lp_Energy>  (1) 
34.744050999999999

>  <r_lp_tautomer_probability>  (1) 
1

>  <s_epik_Chemistry_Notes>  (1) 
This compound has an ester and may undergo hydrolysis at high or low pH.

>  <s_epik_cmdline>  (1) 
J2VwaWtfcHl0aG9uJywgJy1waHQnLCAnMS4wJywgJy1waCcsICc3LjQnLCAnLXRuJywgJzgnLCAnLW1hJywgJzUwMCcsICctaW1hZScsICc8aW5maWxlLm1hZT4nLCAnLW9tYWUnLCAnPG91dGZpbGUubWFlPic=

>  <s_epik_input>  (1) 
W0NIMl0xW0NIMl1bQ0gyXVtDSDJdQzEoW0NIM10pW0NAQEhdKENsKUMoPU8pQyg9TylbQ0gyXVtDQEhdKFtPSF0pL1tDSF09W0NIXVxbQ0BASF0yW0NAXTMoW09IXSlPQyg9TylbQ0gyXVtDQEBIXShDMjM0KVtDQEBIXTRbQ0gzXQ==

>  <s_glide_docking_method>  (1) 
confgen

>  <s_i_glide_gridfile>  (1) 
gpcr_drd2_6luq_protein_autoprepared_prepared

>  <s_lp_Force_Field>  (1) 
S-OPLS

>  <s_lp_Variant>  (1) 
DiffSBDD_35_num_sample_50-1

>  <s_m_source_file>  (1) 
generated__ligand_DiffSBDD_2026-05-06_prepared.sdf

>  <GenAI_Model>  (1) 
DiffSBDD

>  <Protein>  (1) 
generic_title2

$$$$
DiffSBDD_0_num_sample_50
     RDKit          3D

  0  0  0  0  0  0  0  0  0  0999 V3000
M  V30 BEGIN CTAB
M  V30 COUNTS 58 61 0 0 1
M  V30 BEGIN ATOM
M  V30 1 C 10.749166 7.593420 -9.113397 0
M  V30 2 C 6.022692 5.627174 -13.844802 0 CFG=2
M  V30 3 N 7.221751 5.929504 -12.998780 0 CFG=2 CHG=1
M  V30 4 N 9.318060 5.620088 -10.496851 0
M  V30 5 C 10.173783 2.715756 -17.271791 0
M  V30 6 C 8.854105 4.777236 -18.021902 0
M  V30 7 C 5.680762 7.131197 -15.899686 0
M  V30 8 S 8.231067 3.820506 -15.588090 0
M  V30 9 O 6.383954 7.741631 -11.891668 0
M  V30 10 C 9.834860 6.754777 -8.431180 0
M  V30 11 C 5.571742 4.209727 -13.448349 0
M  V30 12 C 9.060950 5.698617 -9.176848 0
M  V30 13 C 6.039523 4.868224 -10.963193 0
M  V30 14 C 6.208244 5.780109 -15.392721 0 CFG=1
M  V30 15 C 8.679714 4.640709 -11.369390 0
M  V30 16 N 4.612187 7.104657 -16.697201 0
M  V30 17 O 6.234832 8.169266 -15.578812 0
M  V30 18 F 11.981045 9.663141 -6.341249 0
M  V30 19 O 8.263118 4.969301 -8.593694 0
M  V30 20 C 11.469219 8.570126 -8.407128 0
M  V30 21 C 7.611689 5.476421 -15.993628 0 CFG=2
M  V30 22 C 6.233888 3.941087 -12.133171 0 CFG=2
M  V30 23 C 10.376820 7.890079 -6.336064 0
M  V30 24 F 10.512876 2.382927 -18.516955 0
M  V30 25 F 11.136855 3.468966 -16.739269 0
M  V30 26 C 7.275670 4.987043 -11.841092 0 CFG=2
M  V30 27 C 7.500261 7.356522 -12.662332 0
M  V30 28 F 12.338223 9.369270 -9.064243 0
M  V30 29 C 11.285486 8.719189 -7.018836 0
M  V30 30 C 8.825547 3.449744 -17.264336 0 CFG=2
M  V30 31 C 7.643509 5.565469 -17.535302 0
M  V30 32 C 9.651321 6.910198 -7.039097 0
M  V30 33 H 10.900481 7.489586 -10.175869 0
M  V30 34 H 5.211295 6.280414 -13.519993 0
M  V30 35 H 9.989586 6.250605 -10.904555 0
M  V30 36 H 10.122121 1.789535 -16.699631 0
M  V30 37 H 9.765052 5.330143 -17.788356 0
M  V30 38 H 8.833749 4.626124 -19.101681 0
M  V30 39 H 6.634738 7.769309 -10.952470 0
M  V30 40 H 5.900758 3.451248 -14.155077 0
M  V30 41 H 4.488770 4.127593 -13.357901 0
M  V30 42 H 6.170378 4.430278 -9.977217 0
M  V30 43 H 5.249128 5.611427 -11.031644 0
M  V30 44 H 5.548495 5.044502 -15.828537 0
M  V30 45 H 8.656593 3.685924 -10.854861 0
M  V30 46 H 9.317875 4.481136 -12.239064 0
M  V30 47 H 4.184549 6.224881 -16.943720 0
M  V30 48 H 4.234030 7.971512 -17.054995 0
M  V30 49 H 8.348163 6.169301 -15.589385 0
M  V30 50 H 6.430865 2.899920 -11.893663 0
M  V30 51 H 10.234734 8.005496 -5.272512 0
M  V30 52 H 7.588044 7.968745 -13.555152 0
M  V30 53 H 8.420238 7.483055 -12.094693 0
M  V30 54 H 8.072507 2.807367 -17.723520 0
M  V30 55 H 6.742259 5.117091 -17.956007 0
M  V30 56 H 7.676770 6.592688 -17.893260 0
M  V30 57 H 8.952639 6.276620 -6.510687 0
M  V30 58 H 8.000559 5.637964 -13.570712 0
M  V30 END ATOM
M  V30 BEGIN BOND
M  V30 1 1 3 2
M  V30 2 2 10 1
M  V30 3 1 11 2
M  V30 4 1 12 4
M  V30 5 1 12 10
M  V30 6 1 14 2
M  V30 7 1 14 7
M  V30 8 1 15 4
M  V30 9 1 16 7
M  V30 10 2 17 7
M  V30 11 2 19 12
M  V30 12 1 20 1
M  V30 13 1 21 8
M  V30 14 1 21 14
M  V30 15 1 22 11
M  V30 16 1 22 13
M  V30 17 1 24 5
M  V30 18 1 25 5
M  V30 19 1 26 3
M  V30 20 1 26 13
M  V30 21 1 26 15 CFG=1
M  V30 22 1 26 22
M  V30 23 1 27 3
M  V30 24 1 27 9
M  V30 25 1 28 20
M  V30 26 1 29 18
M  V30 27 2 29 20
M  V30 28 1 29 23
M  V30 29 1 30 5
M  V30 30 1 30 6
M  V30 31 1 30 8
M  V30 32 1 31 6
M  V30 33 1 31 21
M  V30 34 1 32 10
M  V30 35 2 32 23
M  V30 36 1 33 1
M  V30 37 1 2 34 CFG=1
M  V30 38 1 35 4
M  V30 39 1 36 5
M  V30 40 1 37 6
M  V30 41 1 38 6
M  V30 42 1 39 9
M  V30 43 1 40 11
M  V30 44 1 41 11
M  V30 45 1 42 13
M  V30 46 1 43 13
M  V30 47 1 14 44 CFG=3
M  V30 48 1 45 15
M  V30 49 1 46 15
M  V30 50 1 47 16
M  V30 51 1 48 16
M  V30 52 1 21 49 CFG=1
M  V30 53 1 22 50 CFG=1
M  V30 54 1 51 23
M  V30 55 1 52 27
M  V30 56 1 53 27
M  V30 57 1 30 54 CFG=3
M  V30 58 1 55 31
M  V30 59 1 56 31
M  V30 60 1 57 32
M  V30 61 1 3 58 CFG=3
M  V30 END BOND
M  V30 END CTAB
M  END
>  <i_epik_Tot_Q>  (1) 
1

>  <i_epik_Tot_abs_Q>  (1) 
1

>  <i_i_glide_confnum>  (1) 
220

>  <i_i_glide_lignum>  (1) 
2

>  <i_i_glide_posenum>  (1) 
345

>  <i_i_glide_rotatable_bonds>  (1) 
10

>  <i_lp_mmshare_version>  (1) 
72125

>  <i_m_source_file_index>  (1) 
1

>  <i_f3d_flags>  (1) 
0

>  <num_sample>  (1) 
50

>  <b_lp_Chiralities_Consistent>  (1) 
1

>  <r_epik_Charging_Adjusted_Penalty>  (1) 
2.6270329568783799

>  <r_epik_Ionization_Penalty>  (1) 
1.3408557112072272

>  <r_epik_Ionization_Penalty_Charging>  (1) 
1.3119003563655398

>  <r_epik_Ionization_Penalty_Neutral>  (1) 
0.028955354841687337

>  <r_epik_State_Penalty>  (1) 
1.3151326005128403

>  <r_glide_ring_energy>  (1) 
0

>  <r_i_docking_score>  (1) 
-5.5965722304545507

>  <r_i_glide_ecoul>  (1) 
-7.6571760206746164

>  <r_i_glide_eff_state_penalty>  (1) 
1.3151326005128403

>  <r_i_glide_einternal>  (1) 
12.245373341824722

>  <r_i_glide_emodel>  (1) 
-57.958667813942881

>  <r_i_glide_emodel_strain>  (1) 
0.10118596906374933

>  <r_i_glide_energy>  (1) 
-43.333882942683495

>  <r_i_glide_erotb>  (1) 
0.53508942527165992

>  <r_i_glide_esite>  (1) 
-0.16376724359388647

>  <r_i_glide_evdw>  (1) 
-35.676706922008876

>  <r_i_glide_gscore>  (1) 
-6.9117048309673912

>  <r_i_glide_gscore_strain>  (1) 
0

>  <r_i_glide_hbond>  (1) 
-0.15761476047678741

>  <r_i_glide_ligand_efficiency>  (1) 
-0.17489288220170471

>  <r_i_glide_ligand_efficiency_ln>  (1) 
-1.2532250791959871

>  <r_i_glide_ligand_efficiency_sa>  (1) 
-0.55525029037747298

>  <r_i_glide_lipo>  (1) 
-2.0328687844345938

>  <r_i_glide_metal>  (1) 
-0

>  <r_i_glide_rewards>  (1) 
-2.160131718532146

>  <r_lp_Energy>  (1) 
13.303457999999999

>  <s_epik_Chemistry_Notes>  (1) 
This compound contains an acetal/aminal-like group ( X-CH(R)-Y where X, Y are N, S, or O) that may be acid/base labile, releasing an aldehyde.

>  <s_epik_cmdline>  (1) 
J2VwaWtfcHl0aG9uJywgJy1waHQnLCAnMS4wJywgJy1waCcsICc3LjQnLCAnLXRuJywgJzgnLCAnLW1hJywgJzUwMCcsICctaW1hZScsICc8aW5maWxlLm1hZT4nLCAnLW9tYWUnLCAnPG91dGZpbGUubWFlPic=

>  <s_epik_input>  (1) 
W2NIXTFbY0hdYyhGKWMoRilbY0hdYzFDKD1PKVtOSF1bQ0gyXVtDQF0yM1tDQEBIXShbQ0gyXTMpW0NIMl1bQ0BASF0oTjJbQ0gyXVtPSF0pW0NAQEhdKEMoPU8pW05IMl0pW0NASF00U1tDQEhdKFtDSF0oRilGKVtDSDJdW0NIMl00

>  <s_glide_docking_method>  (1) 
confgen

>  <s_i_glide_gridfile>  (1) 
gpcr_drd2_6luq_protein_autoprepared_prepared

>  <s_lp_Force_Field>  (1) 
S-OPLS

>  <s_lp_Variant>  (1) 
DiffSBDD_0_num_sample_50-2

>  <s_m_source_file>  (1) 
generated__ligand_DiffSBDD_2026-05-06_prepared.sdf

>  <GenAI_Model>  (1) 
DiffSBDD

>  <Protein>  (1) 
generic_title2

$$$$
DiffSBDD_11_num_sample_50
     RDKit          3D

  0  0  0  0  0  0  0  0  0  0999 V3000
M  V30 BEGIN CTAB
M  V30 COUNTS 69 72 0 0 1
M  V30 BEGIN ATOM
M  V30 1 C 8.042576 4.474548 -14.339376 0
M  V30 2 C 9.034860 5.832286 -8.951714 0
M  V30 3 C 6.378803 6.848815 -14.836403 0 CFG=1
M  V30 4 O 5.320664 8.041664 -22.751979 0
M  V30 5 C 8.228888 6.804226 -12.112740 0
M  V30 6 O 5.434845 7.769556 -15.333457 0
M  V30 7 C 4.831536 8.167210 -20.383712 0
M  V30 8 C 5.272975 8.922533 -21.651429 0 CFG=2
M  V30 9 C 8.360034 3.856253 -11.979147 0
M  V30 10 C 5.256790 11.004321 -22.786873 0
M  V30 11 C 6.904235 4.351536 -15.345926 0
M  V30 12 C 9.469602 6.149722 -7.504952 0
M  V30 13 C 10.028142 7.551697 -7.254354 0
M  V30 14 C 4.347602 10.088834 -21.984416 0
M  V30 15 C 9.441127 6.138953 -11.400251 0 CFG=2
M  V30 16 C 7.034857 6.076354 -17.197950 0
M  V30 17 O 6.405652 5.418469 -18.290619 0
M  V30 18 C 10.602503 7.529372 -9.684727 0
M  V30 19 N 7.495595 4.526339 -12.961787 0 CFG=1 CHG=1
M  V30 20 C 7.047727 5.859163 -12.471150 0 CFG=2
M  V30 21 F 9.013433 8.390053 -7.047540 0
M  V30 22 C 9.648148 4.648866 -11.748112 0
M  V30 23 C 5.850095 7.080785 -19.979206 0
M  V30 24 C 5.334698 6.164418 -18.858627 0
M  V30 25 F 10.792745 7.547709 -6.161376 0
M  V30 26 N 9.665681 6.507504 -9.969824 0
M  V30 27 O 6.500712 9.531983 -21.424495 0
M  V30 28 C 5.960947 6.486440 -13.385769 0
M  V30 29 C 6.672554 10.594807 -22.357712 0
M  V30 30 C 10.803061 8.017896 -8.451907 0
M  V30 31 O 8.184969 4.969299 -9.149318 0
M  V30 32 C 6.352213 5.689800 -15.863647 0 CFG=2
M  V30 33 F 11.735133 8.969268 -8.282660 0
M  V30 34 H 8.634842 3.566610 -14.440504 0
M  V30 35 H 8.717412 5.303391 -14.557089 0
M  V30 36 H 7.350316 7.341548 -14.841827 0
M  V30 37 H 5.971186 7.384039 -22.561740 0
M  V30 38 H 7.861958 7.641478 -11.517406 0
M  V30 39 H 8.603311 7.256399 -13.029758 0
M  V30 40 H 5.456474 8.554502 -14.806337 0
M  V30 41 H 4.730821 8.884136 -19.568139 0
M  V30 42 H 3.836707 7.758612 -20.565210 0
M  V30 43 H 7.772026 3.769312 -11.076179 0
M  V30 44 H 8.590932 2.836545 -12.291674 0
M  V30 45 H 5.035155 12.055690 -22.606643 0
M  V30 46 H 5.127096 10.817281 -23.851939 0
M  V30 47 H 6.108886 3.775538 -14.878094 0
M  V30 48 H 7.225792 3.741812 -16.192298 0
M  V30 49 H 8.640824 5.951121 -6.824379 0
M  V30 50 H 10.242054 5.418866 -7.264748 0
M  V30 51 H 3.457561 9.759195 -22.522066 0
M  V30 52 H 4.037005 10.569308 -21.057614 0
M  V30 53 H 10.289345 6.589791 -11.915351 0
M  V30 54 H 8.084806 5.779746 -17.175131 0
M  V30 55 H 7.031359 7.152706 -17.363585 0
M  V30 56 H 11.144122 7.882917 -10.548655 0
M  V30 57 H 6.542512 5.660598 -11.523157 0
M  V30 58 H 10.234838 4.169305 -10.975012 0
M  V30 59 H 10.234830 4.579508 -12.661539 0
M  V30 60 H 6.121717 6.456590 -20.829857 0
M  V30 61 H 6.771267 7.570875 -19.664308 0
M  V30 62 H 4.789755 6.726802 -18.097749 0
M  V30 63 H 4.629791 5.454994 -19.288509 0
M  V30 64 H 5.088480 5.832728 -13.419749 0
M  V30 65 H 5.615452 7.390137 -12.882087 0
M  V30 66 H 7.224403 11.411189 -21.891850 0
M  V30 67 H 7.251502 10.245337 -23.213901 0
M  V30 68 H 5.302238 5.504385 -16.087938 0
M  V30 69 H 6.662874 3.955323 -12.990408 0
M  V30 END ATOM
M  V30 BEGIN BOND
M  V30 1 1 6 3
M  V30 2 1 8 4 CFG=3
M  V30 3 1 8 7
M  V30 4 1 11 1
M  V30 5 1 12 2
M  V30 6 1 13 12
M  V30 7 1 14 8
M  V30 8 1 14 10
M  V30 9 1 15 5
M  V30 10 1 17 16
M  V30 11 1 19 1
M  V30 12 1 19 9
M  V30 13 1 20 5
M  V30 14 1 20 19
M  V30 15 1 21 13
M  V30 16 1 22 9
M  V30 17 1 22 15
M  V30 18 1 23 7
M  V30 19 1 24 17
M  V30 20 1 24 23
M  V30 21 1 25 13
M  V30 22 1 26 2
M  V30 23 1 26 15
M  V30 24 1 26 18
M  V30 25 1 27 8
M  V30 26 1 28 3
M  V30 27 1 28 20
M  V30 28 1 29 10
M  V30 29 1 29 27
M  V30 30 1 30 13
M  V30 31 2 30 18
M  V30 32 2 31 2
M  V30 33 1 32 3
M  V30 34 1 32 11
M  V30 35 1 32 16
M  V30 36 1 33 30
M  V30 37 1 34 1
M  V30 38 1 35 1
M  V30 39 1 3 36 CFG=1
M  V30 40 1 37 4
M  V30 41 1 38 5
M  V30 42 1 39 5
M  V30 43 1 40 6
M  V30 44 1 41 7
M  V30 45 1 42 7
M  V30 46 1 43 9
M  V30 47 1 44 9
M  V30 48 1 45 10
M  V30 49 1 46 10
M  V30 50 1 47 11
M  V30 51 1 48 11
M  V30 52 1 49 12
M  V30 53 1 50 12
M  V30 54 1 51 14
M  V30 55 1 52 14
M  V30 56 1 15 53 CFG=3
M  V30 57 1 54 16
M  V30 58 1 55 16
M  V30 59 1 56 18
M  V30 60 1 20 57 CFG=1
M  V30 61 1 58 22
M  V30 62 1 59 22
M  V30 63 1 60 23
M  V30 64 1 61 23
M  V30 65 1 62 24
M  V30 66 1 63 24
M  V30 67 1 64 28
M  V30 68 1 65 28
M  V30 69 1 66 29
M  V30 70 1 67 29
M  V30 71 1 32 68 CFG=3
M  V30 72 1 19 69 CFG=3
M  V30 END BOND
M  V30 END CTAB
M  END
>  <i_epik_Tot_Q>  (1) 
1

>  <i_epik_Tot_abs_Q>  (1) 
1

>  <i_i_glide_confnum>  (1) 
96

>  <i_i_glide_lignum>  (1) 
45

>  <i_i_glide_posenum>  (1) 
262

>  <i_i_glide_rotatable_bonds>  (1) 
9

>  <i_lp_mmshare_version>  (1) 
72125

>  <i_m_source_file_index>  (1) 
12

>  <i_f3d_flags>  (1) 
0

>  <num_sample>  (1) 
50

>  <b_lp_Chiralities_Consistent>  (1) 
1

>  <r_epik_Charging_Adjusted_Penalty>  (1) 
0.049597449479403345

>  <r_epik_Ionization_Penalty>  (1) 
0.024799209446341199

>  <r_epik_Ionization_Penalty_Charging>  (1) 
0.024798724739701669

>  <r_epik_Ionization_Penalty_Neutral>  (1) 
4.8470663953020042e-07

>  <r_epik_State_Penalty>  (1) 
0.024798724739701676

>  <r_glide_ring_energy>  (1) 
0.0002774820840286173

>  <r_i_docking_score>  (1) 
-5.5963857641553769

>  <r_i_glide_ecoul>  (1) 
-3.2427924972948481

>  <r_i_glide_eff_state_penalty>  (1) 
0.024798724739701676

>  <r_i_glide_einternal>  (1) 
5.2458536451854245

>  <r_i_glide_emodel>  (1) 
-48.443524426354337

>  <r_i_glide_emodel_strain>  (1) 
0.014831474043660364

>  <r_i_glide_energy>  (1) 
-40.070339324304705

>  <r_i_glide_erotb>  (1) 
0.62180956458355674

>  <r_i_glide_esite>  (1) 
-0.24197571107711255

>  <r_i_glide_evdw>  (1) 
-36.827546827009854

>  <r_i_glide_gscore>  (1) 
-5.6211844888950786

>  <r_i_glide_gscore_strain>  (1) 
0

>  <r_i_glide_hbond>  (1) 
0

>  <r_i_glide_ligand_efficiency>  (1) 
-0.16958744739864778

>  <r_i_glide_ligand_efficiency_ln>  (1) 
-1.2446072174134597

>  <r_i_glide_ligand_efficiency_sa>  (1) 
-0.54395755946752422

>  <r_i_glide_lipo>  (1) 
-1.8079129116666477

>  <r_i_glide_metal>  (1) 
-0

>  <r_i_glide_rewards>  (1) 
-1.8653092147901538

>  <r_lp_Energy>  (1) 
43.003907999999996

>  <s_epik_cmdline>  (1) 
J2VwaWtfcHl0aG9uJywgJy1waHQnLCAnMS4wJywgJy1waCcsICc3LjQnLCAnLXRuJywgJzgnLCAnLW1hJywgJzUwMCcsICctaW1hZScsICc8aW5maWxlLm1hZT4nLCAnLW9tYWUnLCAnPG91dGZpbGUubWFlPic=

>  <s_epik_input>  (1) 
TzFbQ0gyXVtDSDJdW0NIMl1bQ0BdMShbT0hdKVtDSDJdW0NIMl1bQ0gyXU9bQ0gyXVtDQEBIXShbQ0gyXVtDSDJdMilbQ0BASF0oW09IXSlbQ0gyXVtDQEBIXShOMjMpW0NIMl1bQ0BIXShbQ0gyXVtDSDJdMylOKFtDSF09QzRGKUMoPU8pW0NIMl1DNChGKUY=

>  <s_glide_docking_method>  (1) 
confgen

>  <s_i_glide_gridfile>  (1) 
gpcr_drd2_6luq_protein_autoprepared_prepared

>  <s_lp_Force_Field>  (1) 
S-OPLS

>  <s_lp_Variant>  (1) 
DiffSBDD_11_num_sample_50-1

>  <s_m_source_file>  (1) 
generated__ligand_DiffSBDD_2026-05-06_prepared.sdf

>  <GenAI_Model>  (1) 
DiffSBDD

>  <Protein>  (1) 
generic_title2

$$$$
DiffSBDD_13_num_sample_50
     RDKit          3D

  0  0  0  0  0  0  0  0  0  0999 V3000
M  V30 BEGIN CTAB
M  V30 COUNTS 46 50 0 0 1
M  V30 BEGIN ATOM
M  V30 1 C 7.174453 4.238671 -14.067085 0
M  V30 2 N 7.835868 5.769302 -10.909951 0 CFG=1 CHG=1
M  V30 3 C 5.868187 6.209307 -22.059179 0
M  V30 4 C 6.224811 5.859586 -19.638101 0
M  V30 5 C 6.169992 6.393912 -13.502351 0
M  V30 6 C 5.435396 7.048531 -19.423214 0
M  V30 7 C 7.034750 4.537164 -15.433835 0
M  V30 8 C 9.926338 7.959976 -10.032475 0
M  V30 9 C 6.420404 5.469654 -20.991501 0
M  V30 10 C 10.247786 6.941621 -8.926040 0
M  V30 11 O 5.729524 5.135302 -11.015544 0 CHG=-1
M  V30 12 C 8.974162 5.165733 -10.205632 0 CFG=1
M  V30 13 O 4.575762 8.065236 -22.848650 0
M  V30 14 C 6.010929 6.678334 -14.868981 0
M  V30 15 S 5.296541 7.369283 -17.743677 0
M  V30 16 C 9.173744 5.939165 -11.475751 0 CFG=2
M  V30 17 C 6.868966 4.861713 -11.589566 0 CFG=1
M  V30 18 C 6.681332 5.267740 -18.363096 0
M  V30 19 C 6.739882 5.171727 -13.089458 0
M  V30 20 C 5.106661 7.359344 -21.808978 0
M  V30 21 C 6.231910 6.013141 -17.284478 0
M  V30 22 C 9.746007 7.350816 -11.442807 0
M  V30 23 C 6.434792 5.747906 -15.851875 0
M  V30 24 C 9.215358 5.802126 -8.848245 0
M  V30 25 Cl 7.853301 2.718118 -13.600429 0
M  V30 26 C 4.891897 7.779970 -20.492223 0
M  V30 27 H 6.033713 5.886408 -23.077357 0
M  V30 28 H 5.834898 7.108075 -12.763159 0
M  V30 29 H 7.358800 3.816592 -16.168136 0
M  V30 30 H 10.718029 8.708529 -10.066062 0
M  V30 31 H 9.034838 8.512500 -9.753846 0
M  V30 32 H 7.003730 4.586870 -21.206886 0
M  V30 33 H 11.245338 6.541473 -9.091680 0
M  V30 34 H 10.292900 7.451731 -7.963108 0
M  V30 35 H 9.021888 4.083695 -10.281669 0
M  V30 36 H 4.113776 8.847811 -22.591762 0
M  V30 37 H 5.553839 7.610299 -15.161954 0
M  V30 38 H 9.304462 5.382681 -12.401202 0
M  V30 39 H 7.252958 3.857392 -11.470203 0
M  V30 40 H 7.279244 4.372106 -18.295640 0
M  V30 41 H 9.134403 8.005316 -12.064913 0
M  V30 42 H 10.723120 7.304548 -11.924402 0
M  V30 43 H 8.270600 6.169028 -8.441730 0
M  V30 44 H 9.566786 5.036828 -8.155703 0
M  V30 45 H 4.305140 8.664842 -20.294006 0
M  V30 46 H 7.446082 6.593230 -10.442443 0
M  V30 END ATOM
M  V30 BEGIN BOND
M  V30 1 2 6 4
M  V30 2 1 7 1
M  V30 3 2 9 3
M  V30 4 1 9 4
M  V30 5 1 10 8
M  V30 6 1 12 2
M  V30 7 2 14 5
M  V30 8 1 15 6
M  V30 9 1 16 2
M  V30 10 1 16 12
M  V30 11 1 17 2
M  V30 12 1 17 11
M  V30 13 1 18 4
M  V30 14 2 19 1
M  V30 15 1 19 5
M  V30 16 1 19 17
M  V30 17 1 20 3
M  V30 18 1 20 13
M  V30 19 1 21 15
M  V30 20 2 21 18
M  V30 21 1 22 8
M  V30 22 1 22 16
M  V30 23 2 23 7
M  V30 24 1 23 14
M  V30 25 1 23 21
M  V30 26 1 24 10
M  V30 27 1 24 12
M  V30 28 1 25 1
M  V30 29 1 26 6
M  V30 30 2 26 20
M  V30 31 1 27 3
M  V30 32 1 28 5
M  V30 33 1 29 7
M  V30 34 1 30 8
M  V30 35 1 31 8
M  V30 36 1 32 9
M  V30 37 1 33 10
M  V30 38 1 34 10
M  V30 39 1 12 35 CFG=3
M  V30 40 1 36 13
M  V30 41 1 37 14
M  V30 42 1 16 38 CFG=3
M  V30 43 1 17 39 CFG=3
M  V30 44 1 40 18
M  V30 45 1 41 22
M  V30 46 1 42 22
M  V30 47 1 43 24
M  V30 48 1 44 24
M  V30 49 1 45 26
M  V30 50 1 2 46 CFG=1
M  V30 END BOND
M  V30 END CTAB
M  END
>  <i_epik_Tot_Q>  (1) 
0

>  <i_epik_Tot_abs_Q>  (1) 
2

>  <i_i_glide_confnum>  (1) 
2

>  <i_i_glide_lignum>  (1) 
48

>  <i_i_glide_posenum>  (1) 
395

>  <i_i_glide_rotatable_bonds>  (1) 
4

>  <i_lp_mmshare_version>  (1) 
72125

>  <i_m_source_file_index>  (1) 
14

>  <i_f3d_flags>  (1) 
0

>  <num_sample>  (1) 
50

>  <b_lp_Chiralities_Consistent>  (1) 
1

>  <r_epik_Charging_Adjusted_Penalty>  (1) 
0.011735890959206876

>  <r_epik_Ionization_Penalty>  (1) 
0.011735890959206876

>  <r_epik_Ionization_Penalty_Charging>  (1) 
0.0019353161310539371

>  <r_epik_Ionization_Penalty_Neutral>  (1) 
0.009800574828152938

>  <r_epik_State_Penalty>  (1) 
0.0098005748281529397

>  <r_glide_ring_energy>  (1) 
0

>  <r_i_docking_score>  (1) 
-5.5962886127392073

>  <r_i_glide_ecoul>  (1) 
-3.4119292157414018

>  <r_i_glide_eff_state_penalty>  (1) 
0.0098005748281529397

>  <r_i_glide_einternal>  (1) 
7.4189939450650302

>  <r_i_glide_emodel>  (1) 
-46.530878187508378

>  <r_i_glide_emodel_strain>  (1) 
0.51524890403165102

>  <r_i_glide_energy>  (1) 
-37.49052649360496

>  <r_i_glide_erotb>  (1) 
0.39195233306171845

>  <r_i_glide_esite>  (1) 
-0.12464584751843476

>  <r_i_glide_evdw>  (1) 
-34.078597277863558

>  <r_i_glide_gscore>  (1) 
-5.6060891875673606

>  <r_i_glide_gscore_strain>  (1) 
0

>  <r_i_glide_hbond>  (1) 
-0.20000000000000001

>  <r_i_glide_ligand_efficiency>  (1) 
-0.21524186972073875

>  <r_i_glide_ligand_efficiency_ln>  (1) 
-1.3142700177811175

>  <r_i_glide_ligand_efficiency_sa>  (1) 
-0.63765319280434007

>  <r_i_glide_lipo>  (1) 
-1.9717444123084775

>  <r_i_glide_metal>  (1) 
-0

>  <r_i_glide_rewards>  (1) 
-1.4859320145477786

>  <r_lp_Energy>  (1) 
53.532539999999997

>  <s_epik_Chemistry_Notes>  (1) 
This compound contains an acetal/aminal-like group ( X-CH(R)-Y where X, Y are N, S, or O) that may be acid/base labile, releasing an aldehyde.

>  <s_epik_cmdline>  (1) 
J2VwaWtfcHl0aG9uJywgJy1waHQnLCAnMS4wJywgJy1waCcsICc3LjQnLCAnLXRuJywgJzgnLCAnLW1hJywgJzUwMCcsICctaW1hZScsICc8aW5maWxlLm1hZT4nLCAnLW9tYWUnLCAnPG91dGZpbGUubWFlPic=

>  <s_epik_input>  (1) 
W2NIXTFbY0hdYyhbT0hdKVtjSF1jKGMxMilzYyhbY0hdMiktYyhbY0hdYzNDbClbY0hdW2NIXWMzW0NASF0oW09IXSlONFtDQEhdKFtDQEhdNDUpW0NIMl1bQ0gyXVtDSDJdW0NIMl01

>  <s_glide_docking_method>  (1) 
confgen

>  <s_i_glide_gridfile>  (1) 
gpcr_drd2_6luq_protein_autoprepared_prepared

>  <s_lp_Force_Field>  (1) 
S-OPLS

>  <s_lp_Variant>  (1) 
DiffSBDD_13_num_sample_50-1

>  <s_m_source_file>  (1) 
generated__ligand_DiffSBDD_2026-05-06_prepared.sdf

>  <GenAI_Model>  (1) 
DiffSBDD

>  <Protein>  (1) 
generic_title2

$$$$
DiffSBDD_38_num_sample_50
     RDKit          3D

  0  0  0  0  0  0  0  0  0  0999 V3000
M  V30 BEGIN CTAB
M  V30 COUNTS 60 62 0 0 1
M  V30 BEGIN ATOM
M  V30 1 C 7.131431 4.375300 -20.101941 0
M  V30 2 O 5.703185 6.209061 -19.467026 0
M  V30 3 S 10.455219 5.187197 -16.291582 0
M  V30 4 F 11.437133 6.209254 -6.944773 0
M  V30 5 C 10.297818 7.345034 -10.227784 0 CFG=2
M  V30 6 C 5.450417 2.486345 -19.593259 0
M  V30 7 C 9.443295 5.542788 -8.755595 0
M  V30 8 C 8.772790 5.767996 -13.668759 0
M  V30 9 C 6.930934 2.863439 -19.770776 0 CFG=2
M  V30 10 C 8.795215 5.003689 -16.069610 0
M  V30 11 N 6.913143 5.271684 -17.814856 0
M  V30 12 C 8.995435 5.485924 -11.131984 0
M  V30 13 C 6.626383 5.186999 -14.837581 0
M  V30 14 C 6.522042 5.374460 -19.093769 0
M  V30 15 F 12.131013 7.785426 -8.204794 0
M  V30 16 O 7.442896 2.375135 -16.265618 0
M  V30 17 C 8.381602 4.928455 -12.426736 0 CFG=2
M  V30 18 O 9.853976 6.557786 -11.325369 0
M  V30 19 C 8.941019 3.503098 -12.641527 0
M  V30 20 O 11.043357 9.024385 -6.143603 0
M  V30 21 C 8.773501 4.998142 -9.896222 0
M  V30 22 N 9.038361 8.198650 -6.698917 0
M  V30 23 C 6.841983 4.918967 -12.300288 0
M  V30 24 C 7.738120 2.999683 -17.283829 0
M  V30 25 C 10.358855 8.228974 -6.784101 0
M  V30 26 C 7.824191 2.284067 -18.637152 0
M  V30 27 C 10.199485 6.632814 -8.881431 0
M  V30 28 C 8.063591 4.499816 -17.340714 0 CFG=2
M  V30 29 N 8.090771 5.290330 -14.901770 0
M  V30 30 C 6.158064 4.435510 -13.581718 0
M  V30 31 N 9.471376 8.512954 -10.131187 0
M  V30 32 C 11.023443 7.212651 -7.722974 0
M  V30 33 H 8.187198 4.598926 -20.253541 0
M  V30 34 H 6.664783 4.572906 -21.068636 0
M  V30 35 H 11.335442 7.613858 -10.431540 0
M  V30 36 H 5.033963 2.928361 -18.692155 0
M  V30 37 H 4.850204 2.832235 -20.437459 0
M  V30 38 H 5.322567 1.406178 -19.521867 0
M  V30 39 H 9.363988 5.046871 -7.800057 0
M  V30 40 H 8.474828 6.802949 -13.493899 0
M  V30 41 H 9.859932 5.769462 -13.731884 0
M  V30 42 H 7.247639 2.333741 -20.669025 0
M  V30 43 H 6.477021 5.896265 -17.151893 0
M  V30 44 H 6.212896 6.195672 -14.851884 0
M  V30 45 H 6.197030 4.645290 -15.662305 0
M  V30 46 H 8.629802 3.072796 -13.593570 0
M  V30 47 H 10.032079 3.519084 -12.623759 0
M  V30 48 H 8.633109 2.797128 -11.885199 0
M  V30 49 H 8.110130 4.164714 -9.767762 0
M  V30 50 H 8.555671 8.847756 -6.095407 0
M  V30 51 H 8.500517 7.535752 -7.249343 0
M  V30 52 H 6.523897 4.288978 -11.469498 0
M  V30 53 H 6.493603 5.925073 -12.066189 0
M  V30 54 H 8.867339 2.320922 -18.955066 0
M  V30 55 H 8.785545 4.604176 -18.150055 0
M  V30 56 H 5.078039 4.535456 -13.482661 0
M  V30 57 H 6.343805 3.368754 -13.712877 0
M  V30 58 H 9.395519 8.962707 -11.030753 0
M  V30 59 H 8.498367 8.255156 -9.891634 0
M  V30 60 H 7.596304 1.227128 -18.489880 0
M  V30 END ATOM
M  V30 BEGIN BOND
M  V30 1 1 9 1
M  V30 2 1 9 6
M  V30 3 2 10 3
M  V30 4 1 14 1
M  V30 5 2 14 2
M  V30 6 1 14 11
M  V30 7 1 17 8
M  V30 8 1 17 12
M  V30 9 1 18 5
M  V30 10 1 18 12
M  V30 11 1 17 19 CFG=3
M  V30 12 1 21 7
M  V30 13 2 21 12
M  V30 14 1 23 17
M  V30 15 2 24 16
M  V30 16 2 25 20
M  V30 17 1 25 22
M  V30 18 1 26 9
M  V30 19 1 26 24
M  V30 20 1 27 5
M  V30 21 2 27 7
M  V30 22 1 28 10
M  V30 23 1 28 11
M  V30 24 1 28 24
M  V30 25 1 29 8
M  V30 26 1 29 10
M  V30 27 1 29 13
M  V30 28 1 30 13
M  V30 29 1 30 23
M  V30 30 1 31 5
M  V30 31 1 32 4
M  V30 32 1 32 15
M  V30 33 1 32 25
M  V30 34 1 32 27
M  V30 35 1 33 1
M  V30 36 1 34 1
M  V30 37 1 5 35 CFG=3
M  V30 38 1 36 6
M  V30 39 1 37 6
M  V30 40 1 38 6
M  V30 41 1 39 7
M  V30 42 1 40 8
M  V30 43 1 41 8
M  V30 44 1 9 42 CFG=3
M  V30 45 1 43 11
M  V30 46 1 44 13
M  V30 47 1 45 13
M  V30 48 1 46 19
M  V30 49 1 47 19
M  V30 50 1 48 19
M  V30 51 1 49 21
M  V30 52 1 50 22
M  V30 53 1 51 22
M  V30 54 1 52 23
M  V30 55 1 53 23
M  V30 56 1 54 26
M  V30 57 1 28 55 CFG=3
M  V30 58 1 56 30
M  V30 59 1 57 30
M  V30 60 1 58 31
M  V30 61 1 59 31
M  V30 62 1 60 26
M  V30 END BOND
M  V30 END CTAB
M  END
>  <i_epik_Tot_Q>  (1) 
0

>  <i_epik_Tot_abs_Q>  (1) 
0

>  <i_i_glide_confnum>  (1) 
12

>  <i_i_glide_lignum>  (1) 
96

>  <i_i_glide_posenum>  (1) 
369

>  <i_i_glide_rotatable_bonds>  (1) 
5

>  <i_lp_mmshare_version>  (1) 
72125

>  <i_m_source_file_index>  (1) 
39

>  <i_f3d_flags>  (1) 
0

>  <num_sample>  (1) 
50

>  <b_lp_Chiralities_Consistent>  (1) 
1

>  <r_epik_Charging_Adjusted_Penalty>  (1) 
0.0043173356697657605

>  <r_epik_Ionization_Penalty>  (1) 
2.5101429145755949

>  <r_epik_Ionization_Penalty_Charging>  (1) 
0

>  <r_epik_Ionization_Penalty_Neutral>  (1) 
2.5101429145755949

>  <r_epik_State_Penalty>  (1) 
0.0043173356697657605

>  <r_glide_ring_energy>  (1) 
0.02445303134611268

>  <r_i_docking_score>  (1) 
-5.58245661750796

>  <r_i_glide_ecoul>  (1) 
-5.7012097846230692

>  <r_i_glide_eff_state_penalty>  (1) 
0.0043173356697657605

>  <r_i_glide_einternal>  (1) 
4.0804830762666437

>  <r_i_glide_emodel>  (1) 
-53.180119132100835

>  <r_i_glide_emodel_strain>  (1) 
0.87570219946584871

>  <r_i_glide_energy>  (1) 
-42.482290373100682

>  <r_i_glide_erotb>  (1) 
0.36503894659470715

>  <r_i_glide_esite>  (1) 
-0.12201982339262465

>  <r_i_glide_evdw>  (1) 
-36.781080588477614

>  <r_i_glide_gscore>  (1) 
-5.5867739531777261

>  <r_i_glide_gscore_strain>  (1) 
0

>  <r_i_glide_hbond>  (1) 
-0.19543374574254835

>  <r_i_glide_ligand_efficiency>  (1) 
-0.17445176929712375

>  <r_i_glide_ligand_efficiency_ln>  (1) 
-1.2500642086801688

>  <r_i_glide_ligand_efficiency_sa>  (1) 
-0.55384984419993588

>  <r_i_glide_lipo>  (1) 
-1.0036217107594665

>  <r_i_glide_metal>  (1) 
-0

>  <r_i_glide_rewards>  (1) 
-1.9365021227604526

>  <r_lp_Energy>  (1) 
72.958390999999992

>  <r_lp_tautomer_probability>  (1) 
0.99999998000000001

>  <s_epik_Chemistry_Notes>  (1) 
This compound contains an acetal/aminal-like group ( X-CH(R)-Y where X, Y are N, S, or O) that may be acid/base labile, releasing an aldehyde.

>  <s_epik_cmdline>  (1) 
J2VwaWtfcHl0aG9uJywgJy1waHQnLCAnMS4wJywgJy1waCcsICc3LjQnLCAnLXRuJywgJzgnLCAnLW1hJywgJzUwMCcsICctaW1hZScsICc8aW5maWxlLm1hZT4nLCAnLW9tYWUnLCAnPG91dGZpbGUubWFlPic=

>  <s_epik_input>  (1) 
W0NIM11bQ0BASF0xW0NIMl1DKD1PKVtOSF1bQ0BIXShDKD1PKVtDSDJdMSlDKD1TKU4oW0NIMl1bQ0gyXVtDSDJdMilbQ0gyXVtDQEBdMihbQ0gzXSlDKE9bQ0BASF0zW05IMl0pPVtDSF1bQ0hdPUMzQyhGKShGKUMoPU8pW05IMl0=

>  <s_glide_docking_method>  (1) 
confgen

>  <s_i_glide_gridfile>  (1) 
gpcr_drd2_6luq_protein_autoprepared_prepared

>  <s_lp_Force_Field>  (1) 
S-OPLS

>  <s_lp_Variant>  (1) 
DiffSBDD_38_num_sample_50-4

>  <s_m_source_file>  (1) 
generated__ligand_DiffSBDD_2026-05-06_prepared.sdf

>  <GenAI_Model>  (1) 
DiffSBDD

>  <Protein>  (1) 
generic_title2

$$$$
DiffSBDD_44_num_sample_50
     RDKit          3D

  0  0  0  0  0  0  0  0  0  0999 V3000
M  V30 BEGIN CTAB
M  V30 COUNTS 61 64 0 0 1
M  V30 BEGIN ATOM
M  V30 1 C 11.531524 9.571174 -6.741352 0
M  V30 2 C 6.584660 5.114631 -13.720694 0 CFG=1
M  V30 3 C 6.525527 2.575536 -13.886582 0
M  V30 4 C 10.766548 8.121537 -8.672397 0 CFG=1
M  V30 5 C 11.241123 8.420517 -5.792483 0
M  V30 6 C 8.200806 2.952390 -16.422792 0
M  V30 7 C 11.851708 9.092647 -8.184087 0 CFG=2
M  V30 8 O 13.813353 8.281495 -9.490104 0
M  V30 9 N 9.826519 6.804454 -10.520483 0
M  V30 10 C 10.344600 7.344338 -6.441089 0 CFG=2
M  V30 11 C 5.622368 4.998425 -12.497311 0
M  V30 12 O 8.234845 0.981579 -14.659830 0
M  V30 13 C 10.966094 7.596659 -10.092844 0
M  V30 14 C 8.527601 5.378351 -12.042255 0 CFG=2
M  V30 15 O 10.654164 6.368559 -12.571276 0
M  V30 16 C 8.085511 3.830179 -15.418764 0
M  V30 17 C 6.862249 1.293207 -14.233798 0
M  V30 18 C 13.250581 8.455009 -8.207359 0
M  V30 19 C 7.228796 0.931901 -15.432442 0
M  V30 20 O 10.730574 7.014974 -7.771689 0
M  V30 21 C 7.285762 1.798319 -16.640065 0
M  V30 22 C 8.870511 7.736233 -6.443292 0
M  V30 23 F 10.462280 6.288970 -5.643769 0
M  V30 24 C 9.767356 6.234032 -11.730561 0
M  V30 25 C 7.772424 5.984751 -13.237617 0
M  V30 26 C 7.560738 5.194488 -10.851895 0
M  V30 27 C 7.065876 3.768689 -14.348541 0
M  V30 28 C 6.289489 4.427260 -11.226002 0
M  V30 29 C 5.861057 5.924714 -14.815596 0
M  V30 30 H 12.327313 10.202535 -6.343718 0
M  V30 31 H 10.636466 10.169203 -6.691475 0
M  V30 32 H 5.777313 2.649719 -13.123746 0
M  V30 33 H 9.829594 8.670522 -8.716788 0
M  V30 34 H 12.168213 8.007736 -5.418673 0
M  V30 35 H 10.763891 8.812043 -4.894246 0
M  V30 36 H 8.973624 3.097731 -17.163485 0
M  V30 37 H 11.834843 9.957544 -8.847968 0
M  V30 38 H 14.040039 9.147430 -9.822389 0
M  V30 39 H 9.063199 6.674888 -9.869015 0
M  V30 40 H 4.723929 4.435841 -12.749581 0
M  V30 41 H 5.257631 5.994594 -12.241813 0
M  V30 42 H 11.098575 8.440917 -10.765181 0
M  V30 43 H 11.854343 6.969302 -10.157783 0
M  V30 44 H 8.910414 4.397402 -12.329303 0
M  V30 45 H 8.769773 4.661354 -15.414533 0
M  V30 46 H 13.210953 7.479402 -7.731777 0
M  V30 47 H 13.917075 9.083246 -7.624867 0
M  V30 48 H 7.646324 1.203141 -17.478720 0
M  V30 49 H 6.288706 2.150628 -16.903159 0
M  V30 50 H 8.591824 8.515999 -7.142576 0
M  V30 51 H 8.235842 6.870213 -6.631953 0
M  V30 52 H 8.635133 8.169817 -5.492049 0
M  V30 53 H 7.393129 6.964527 -12.936173 0
M  V30 54 H 8.455601 6.202265 -14.055045 0
M  V30 55 H 8.058594 4.714284 -10.007328 0
M  V30 56 H 7.239380 6.169278 -10.516639 0
M  V30 57 H 6.533948 3.377114 -11.338981 0
M  V30 58 H 5.585752 4.475998 -10.395408 0
M  V30 59 H 5.456947 6.860722 -14.426516 0
M  V30 60 H 6.535098 6.189572 -15.630271 0
M  V30 61 H 5.035162 5.370058 -15.246469 0
M  V30 END ATOM
M  V30 BEGIN BOND
M  V30 1 1 5 1
M  V30 2 1 7 1
M  V30 3 1 7 4
M  V30 4 1 10 5
M  V30 5 1 11 2
M  V30 6 1 13 4
M  V30 7 1 13 9
M  V30 8 2 16 6
M  V30 9 1 17 3
M  V30 10 1 17 12
M  V30 11 1 18 7
M  V30 12 1 18 8
M  V30 13 1 19 12
M  V30 14 2 19 17
M  V30 15 1 20 4
M  V30 16 1 20 10
M  V30 17 1 21 6
M  V30 18 1 21 19
M  V30 19 1 22 10
M  V30 20 1 10 23 CFG=1
M  V30 21 1 24 9
M  V30 22 1 24 14
M  V30 23 2 24 15
M  V30 24 1 25 2
M  V30 25 1 25 14
M  V30 26 1 26 14
M  V30 27 1 27 2
M  V30 28 2 27 3
M  V30 29 1 27 16
M  V30 30 1 28 11
M  V30 31 1 28 26
M  V30 32 1 2 29 CFG=3
M  V30 33 1 30 1
M  V30 34 1 31 1
M  V30 35 1 32 3
M  V30 36 1 4 33 CFG=3
M  V30 37 1 34 5
M  V30 38 1 35 5
M  V30 39 1 36 6
M  V30 40 1 7 37 CFG=3
M  V30 41 1 38 8
M  V30 42 1 39 9
M  V30 43 1 40 11
M  V30 44 1 41 11
M  V30 45 1 42 13
M  V30 46 1 43 13
M  V30 47 1 14 44 CFG=3
M  V30 48 1 45 16
M  V30 49 1 46 18
M  V30 50 1 47 18
M  V30 51 1 48 21
M  V30 52 1 49 21
M  V30 53 1 50 22
M  V30 54 1 51 22
M  V30 55 1 52 22
M  V30 56 1 53 25
M  V30 57 1 54 25
M  V30 58 1 55 26
M  V30 59 1 56 26
M  V30 60 1 57 28
M  V30 61 1 58 28
M  V30 62 1 59 29
M  V30 63 1 60 29
M  V30 64 1 61 29
M  V30 END BOND
M  V30 END CTAB
M  END
>  <i_epik_Tot_Q>  (1) 
0

>  <i_epik_Tot_abs_Q>  (1) 
0

>  <i_i_glide_confnum>  (1) 
152

>  <i_i_glide_lignum>  (1) 
111

>  <i_i_glide_posenum>  (1) 
310

>  <i_i_glide_rotatable_bonds>  (1) 
7

>  <i_lp_mmshare_version>  (1) 
72125

>  <i_m_source_file_index>  (1) 
45

>  <i_f3d_flags>  (1) 
0

>  <num_sample>  (1) 
50

>  <b_lp_Chiralities_Consistent>  (1) 
1

>  <r_epik_Charging_Adjusted_Penalty>  (1) 
0

>  <r_epik_Ionization_Penalty>  (1) 
7.6933096193548639e-08

>  <r_epik_Ionization_Penalty_Charging>  (1) 
0

>  <r_epik_Ionization_Penalty_Neutral>  (1) 
7.6933096193548639e-08

>  <r_epik_State_Penalty>  (1) 
-0

>  <r_glide_ring_energy>  (1) 
0

>  <r_i_docking_score>  (1) 
-5.5753322175517432

>  <r_i_glide_ecoul>  (1) 
-4.4906132844971678

>  <r_i_glide_eff_state_penalty>  (1) 
-0

>  <r_i_glide_einternal>  (1) 
6.635923564241736

>  <r_i_glide_emodel>  (1) 
-30.455232148166935

>  <r_i_glide_emodel_strain>  (1) 
0.053806585588858979

>  <r_i_glide_energy>  (1) 
-25.715095385194225

>  <r_i_glide_erotb>  (1) 
0.71709703680073922

>  <r_i_glide_esite>  (1) 
-0.071229623656298369

>  <r_i_glide_evdw>  (1) 
-21.224482100697056

>  <r_i_glide_gscore>  (1) 
-5.5753322175517432

>  <r_i_glide_gscore_strain>  (1) 
0

>  <r_i_glide_hbond>  (1) 
-0.32000000000000001

>  <r_i_glide_ligand_efficiency>  (1) 
-0.19225283508799115

>  <r_i_glide_ligand_efficiency_ln>  (1) 
-1.2766096995927592

>  <r_i_glide_ligand_efficiency_sa>  (1) 
-0.59066162002664169

>  <r_i_glide_lipo>  (1) 
-2.397716832450508

>  <r_i_glide_metal>  (1) 
-0

>  <r_i_glide_rewards>  (1) 
-1.768666700536248

>  <r_lp_Energy>  (1) 
41.791146999999995

>  <r_lp_tautomer_probability>  (1) 
1

>  <s_epik_cmdline>  (1) 
J2VwaWtfcHl0aG9uJywgJy1waHQnLCAnMS4wJywgJy1waCcsICc3LjQnLCAnLXRuJywgJzgnLCAnLW1hJywgJzUwMCcsICctaW1hZScsICc8aW5maWxlLm1hZT4nLCAnLW9tYWUnLCAnPG91dGZpbGUubWFlPic=

>  <s_epik_input>  (1) 
W0NIM11bQ0BdMShGKVtDSDJdW0NIMl1bQ0BIXShbQ0gyXVtPSF0pW0NASF0oTzEpW0NIMl1bTkhdQyg9TylbQ0BIXShbQ0gyXTIpW0NIMl1bQ0gyXVtDSDJdW0NAXTIoW0NIM10pQyg9W0NIXTMpW0NIXT1bQ0hdW0NIMl1DKE80KT1DMzQ=

>  <s_glide_docking_method>  (1) 
confgen

>  <s_i_glide_gridfile>  (1) 
gpcr_drd2_6luq_protein_autoprepared_prepared

>  <s_lp_Force_Field>  (1) 
S-OPLS

>  <s_lp_Variant>  (1) 
DiffSBDD_44_num_sample_50-2

>  <s_m_source_file>  (1) 
generated__ligand_DiffSBDD_2026-05-06_prepared.sdf

>  <GenAI_Model>  (1) 
DiffSBDD

>  <Protein>  (1) 
generic_title2

$$$$
DiffSBDD_37_num_sample_50
     RDKit          3D

  0  0  0  0  0  0  0  0  0  0999 V3000
M  V30 BEGIN CTAB
M  V30 COUNTS 43 45 0 0 1
M  V30 BEGIN ATOM
M  V30 1 C 12.391464 9.671972 -5.891218 0
M  V30 2 N 10.560734 7.522657 -8.359432 0
M  V30 3 N 8.486402 5.249469 -13.648556 0 CHG=1
M  V30 4 C 12.195375 8.962067 -4.691827 0
M  V30 5 C 11.434836 7.774836 -4.706621 0
M  V30 6 C 10.877572 7.301479 -5.905628 0
M  V30 7 C 6.743703 6.782049 -14.638077 0
M  V30 8 C 12.775426 8.569865 -2.380538 0
M  V30 9 C 7.282307 6.065634 -13.392175 0 CFG=2
M  V30 10 C 10.186724 7.771558 -10.576418 0
M  V30 11 C 9.228817 5.115304 -12.373102 0 CFG=2
M  V30 12 S 9.437079 6.130692 -8.650645 0
M  V30 13 C 11.087987 8.004108 -7.122786 0
M  V30 14 N 10.833443 8.223300 -9.509954 0
M  V30 15 C 7.702780 6.994782 -12.259242 0
M  V30 16 C 9.219766 3.660344 -11.893668 0
M  V30 17 O 12.759597 9.424208 -3.521834 0
M  V30 18 C 11.843806 9.196883 -7.097720 0
M  V30 19 O 10.148105 6.169367 -5.881404 0
M  V30 20 C 9.423600 6.721252 -10.359258 0
M  V30 21 C 8.517756 6.044283 -11.375569 0 CFG=2
M  V30 22 H 12.976798 10.569652 -5.893397 0
M  V30 23 H 8.242439 4.344295 -14.024089 0
M  V30 24 H 11.275199 7.217328 -3.798596 0
M  V30 25 H 5.812857 7.301802 -14.408813 0
M  V30 26 H 7.435904 7.529556 -15.017805 0
M  V30 27 H 6.531822 6.076300 -15.441586 0
M  V30 28 H 13.436579 8.969392 -1.614550 0
M  V30 29 H 11.781136 8.483055 -1.940897 0
M  V30 30 H 13.153254 7.576156 -2.625570 0
M  V30 31 H 6.509364 5.389488 -13.020206 0
M  V30 32 H 10.312000 8.307887 -11.498500 0
M  V30 33 H 10.254610 5.444788 -12.541570 0
M  V30 34 H 11.404898 9.054883 -9.487849 0
M  V30 35 H 6.851756 7.435307 -11.739550 0
M  V30 36 H 8.316981 7.809810 -12.643970 0
M  V30 37 H 9.585395 3.582538 -10.870516 0
M  V30 38 H 8.209882 3.253740 -11.899344 0
M  V30 39 H 9.835072 3.023282 -12.526877 0
M  V30 40 H 12.009731 9.748282 -8.006208 0
M  V30 41 H 9.715294 6.016759 -6.708093 0
M  V30 42 H 7.792573 5.460293 -10.804055 0
M  V30 43 H 9.079690 5.739788 -14.302608 0
M  V30 END ATOM
M  V30 BEGIN BOND
M  V30 1 1 4 1
M  V30 2 2 5 4
M  V30 3 1 6 5
M  V30 4 1 9 3
M  V30 5 1 9 7
M  V30 6 1 11 3
M  V30 7 1 12 2
M  V30 8 1 13 2
M  V30 9 2 13 6
M  V30 10 1 14 2
M  V30 11 1 14 10
M  V30 12 1 15 9
M  V30 13 1 16 11
M  V30 14 1 17 4
M  V30 15 1 17 8
M  V30 16 2 18 1
M  V30 17 1 18 13
M  V30 18 1 19 6
M  V30 19 2 20 10
M  V30 20 1 20 12
M  V30 21 1 21 11
M  V30 22 1 21 15
M  V30 23 1 21 20
M  V30 24 1 22 1
M  V30 25 1 23 3
M  V30 26 1 24 5
M  V30 27 1 25 7
M  V30 28 1 26 7
M  V30 29 1 27 7
M  V30 30 1 28 8
M  V30 31 1 29 8
M  V30 32 1 30 8
M  V30 33 1 9 31 CFG=1
M  V30 34 1 32 10
M  V30 35 1 11 33 CFG=3
M  V30 36 1 34 14
M  V30 37 1 35 15
M  V30 38 1 36 15
M  V30 39 1 37 16
M  V30 40 1 38 16
M  V30 41 1 39 16
M  V30 42 1 40 18
M  V30 43 1 41 19
M  V30 44 1 21 42 CFG=1
M  V30 45 1 43 3
M  V30 END BOND
M  V30 END CTAB
M  END
>  <i_epik_Tot_Q>  (1) 
1

>  <i_epik_Tot_abs_Q>  (1) 
1

>  <i_i_glide_confnum>  (1) 
1

>  <i_i_glide_lignum>  (1) 
92

>  <i_i_glide_posenum>  (1) 
65

>  <i_i_glide_rotatable_bonds>  (1) 
4

>  <i_lp_mmshare_version>  (1) 
72125

>  <i_m_source_file_index>  (1) 
38

>  <i_f3d_flags>  (1) 
0

>  <num_sample>  (1) 
50

>  <b_lp_Chiralities_Consistent>  (1) 
1

>  <r_epik_Charging_Adjusted_Penalty>  (1) 
0.0014043227577044803

>  <r_epik_Ionization_Penalty>  (1) 
0.0059697486383219651

>  <r_epik_Ionization_Penalty_Charging>  (1) 
0.0014043227577044803

>  <r_epik_Ionization_Penalty_Neutral>  (1) 
0.0045654258806174849

>  <r_epik_State_Penalty>  (1) 
-0

>  <r_glide_ring_energy>  (1) 
0

>  <r_i_docking_score>  (1) 
-5.5730117869232032

>  <r_i_glide_ecoul>  (1) 
-1.4318339059563159

>  <r_i_glide_eff_state_penalty>  (1) 
-0

>  <r_i_glide_einternal>  (1) 
0.88568604592341238

>  <r_i_glide_emodel>  (1) 
-43.920150585308498

>  <r_i_glide_emodel_strain>  (1) 
0.39349810414961439

>  <r_i_glide_energy>  (1) 
-31.525979713791841

>  <r_i_glide_erotb>  (1) 
0.38898511058673108

>  <r_i_glide_esite>  (1) 
-0.025599572188691546

>  <r_i_glide_evdw>  (1) 
-30.094145807835524

>  <r_i_glide_gscore>  (1) 
-5.5730117869232032

>  <r_i_glide_gscore_strain>  (1) 
0

>  <r_i_glide_hbond>  (1) 
0

>  <r_i_glide_ligand_efficiency>  (1) 
-0.26538151366300966

>  <r_i_glide_ligand_efficiency_ln>  (1) 
-1.3779159029860977

>  <r_i_glide_ligand_efficiency_sa>  (1) 
-0.73216747400949422

>  <r_i_glide_lipo>  (1) 
-2.3860646949581006

>  <r_i_glide_metal>  (1) 
-0

>  <r_i_glide_rewards>  (1) 
-1.830850254077917

>  <r_lp_Energy>  (1) 
16.995556000000001

>  <r_lp_tautomer_probability>  (1) 
1

>  <s_epik_Chemistry_Notes>  (1) 
This compound has a N-S or N-O group and may undergo hydrolysis at high or low pH.

>  <s_epik_cmdline>  (1) 
J2VwaWtfcHl0aG9uJywgJy1waHQnLCAnMS4wJywgJy1waCcsICc3LjQnLCAnLXRuJywgJzgnLCAnLW1hJywgJzUwMCcsICctaW1hZScsICc8aW5maWxlLm1hZT4nLCAnLW9tYWUnLCAnPG91dGZpbGUubWFlPic=

>  <s_epik_input>  (1) 
W0NIM11PYzFbY0hdW2NIXWMoYyhbY0hdMSlbT0hdKU4yU0MoPVtDSF1bTkhdMilbQ0BASF0oW0NIMl0zKVtDQEBIXShbQ0gzXSlbTkhdW0NAQEhdM1tDSDNd

>  <s_glide_docking_method>  (1) 
confgen

>  <s_i_glide_gridfile>  (1) 
gpcr_drd2_6luq_protein_autoprepared_prepared

>  <s_lp_Force_Field>  (1) 
S-OPLS

>  <s_lp_Variant>  (1) 
DiffSBDD_37_num_sample_50-1

>  <s_m_source_file>  (1) 
generated__ligand_DiffSBDD_2026-05-06_prepared.sdf

>  <GenAI_Model>  (1) 
DiffSBDD

>  <Protein>  (1) 
generic_title2

$$$$
DiffSBDD_23_num_sample_50
     RDKit          3D

  0  0  0  0  0  0  0  0  0  0999 V3000
M  V30 BEGIN CTAB
M  V30 COUNTS 68 70 0 0 1
M  V30 BEGIN ATOM
M  V30 1 C 10.016590 6.949460 -10.874823 0
M  V30 2 C 8.872481 5.887859 -8.367569 0
M  V30 3 C 11.834479 9.217213 -3.911168 0
M  V30 4 C 11.834837 6.792887 -3.628900 0
M  V30 5 C 9.877536 7.869889 -9.656155 0
M  V30 6 C 12.163741 6.952275 -2.275639 0
M  V30 7 C 8.748125 5.571405 -13.370433 0 CFG=1
M  V30 8 O 10.960495 3.088682 -17.492203 0 CHG=-1
M  V30 9 C 9.806380 7.118928 -8.313596 0 CFG=2
M  V30 10 O 11.362414 7.807577 -5.785930 0
M  V30 11 C 10.497801 4.240911 -17.338826 0
M  V30 12 C 9.036832 5.033722 -9.623658 0
M  V30 13 C 8.956510 4.378466 -17.196593 0
M  V30 14 N 9.034185 5.827130 -10.875513 0 CFG=2 CHG=1
M  V30 15 O 11.169206 5.296063 -17.294058 0
M  V30 16 C 7.268453 5.959448 -13.360023 0
M  V30 17 C 9.180874 4.921496 -12.048468 0
M  V30 18 C 7.141892 5.692804 -15.858969 0
M  V30 19 C 8.286455 2.981088 -17.117723 0
M  V30 20 C 12.141172 9.369386 -2.552573 0
M  V30 21 C 11.202599 6.709057 -7.852435 0
M  V30 22 C 11.320110 6.514636 -6.353680 0
M  V30 23 C 8.476716 5.063714 -18.499864 0
M  V30 24 C 9.075601 4.672982 -14.579536 0
M  V30 25 C 5.434833 7.065243 -14.643932 0
M  V30 26 C 8.619281 5.258796 -15.939062 0 CFG=1
M  V30 27 C 6.888894 6.639973 -14.678500 0 CFG=1
M  V30 28 C 11.676871 7.933785 -4.456804 0
M  V30 29 C 12.316249 8.242057 -1.737470 0
M  V30 30 H 11.031053 6.569310 -10.936722 0
M  V30 31 H 9.886766 7.570854 -11.758706 0
M  V30 32 H 9.015076 5.258725 -7.490877 0
M  V30 33 H 7.834848 6.169420 -8.306941 0
M  V30 34 H 11.704570 10.087774 -4.536133 0
M  V30 35 H 11.712153 5.799206 -4.030448 0
M  V30 36 H 9.014537 8.507621 -9.780638 0
M  V30 37 H 10.706828 8.577614 -9.646871 0
M  V30 38 H 12.291091 6.084436 -1.645631 0
M  V30 39 H 9.320727 6.479160 -13.491626 0
M  V30 40 H 9.406894 7.818090 -7.578058 0
M  V30 41 H 9.935815 4.428627 -9.553336 0
M  V30 42 H 8.198217 4.338700 -9.665713 0
M  V30 43 H 6.652289 5.072019 -13.201696 0
M  V30 44 H 7.059175 6.639201 -12.531652 0
M  V30 45 H 10.218857 4.589023 -12.116472 0
M  V30 46 H 8.587698 4.017168 -11.896902 0
M  V30 47 H 6.842565 6.201470 -16.774245 0
M  V30 48 H 6.499461 4.818077 -15.761288 0
M  V30 49 H 7.208336 3.056975 -16.982732 0
M  V30 50 H 8.447720 2.413786 -18.035846 0
M  V30 51 H 8.680728 2.378562 -16.298515 0
M  V30 52 H 12.234883 10.356513 -2.131038 0
M  V30 53 H 11.964857 7.417149 -8.177816 0
M  V30 54 H 11.434399 5.769426 -8.317737 0
M  V30 55 H 12.233948 5.955661 -6.153060 0
M  V30 56 H 10.480155 5.948139 -5.953588 0
M  V30 57 H 7.393399 5.017105 -18.608361 0
M  V30 58 H 8.772722 6.112609 -18.539475 0
M  V30 59 H 8.892203 4.576623 -19.382903 0
M  V30 60 H 10.159380 4.569302 -14.604261 0
M  V30 61 H 8.634790 3.688871 -14.424050 0
M  V30 62 H 4.831328 6.169318 -14.504939 0
M  V30 63 H 5.233845 7.755890 -13.823274 0
M  V30 64 H 5.134153 7.552616 -15.572872 0
M  V30 65 H 9.195235 6.169318 -16.047608 0
M  V30 66 H 7.491835 7.539173 -14.802115 0
M  V30 67 H 12.561211 8.368717 -0.694104 0
M  V30 68 H 8.119907 6.259544 -10.919980 0
M  V30 END ATOM
M  V30 BEGIN BOND
M  V30 1 1 5 1
M  V30 2 1 6 4
M  V30 3 1 9 2
M  V30 4 1 9 5
M  V30 5 1 11 8
M  V30 6 1 12 2
M  V30 7 1 13 11
M  V30 8 1 14 1
M  V30 9 1 14 12
M  V30 10 2 15 11
M  V30 11 1 16 7
M  V30 12 1 17 7
M  V30 13 1 17 14
M  V30 14 1 19 13
M  V30 15 2 20 3
M  V30 16 1 21 9
M  V30 17 1 22 10
M  V30 18 1 22 21
M  V30 19 1 23 13
M  V30 20 1 24 7
M  V30 21 1 26 13
M  V30 22 1 26 18
M  V30 23 1 26 24
M  V30 24 1 27 16
M  V30 25 1 27 18
M  V30 26 1 27 25
M  V30 27 1 28 3
M  V30 28 2 28 4
M  V30 29 1 28 10
M  V30 30 2 29 6
M  V30 31 1 29 20
M  V30 32 1 30 1
M  V30 33 1 31 1
M  V30 34 1 32 2
M  V30 35 1 33 2
M  V30 36 1 34 3
M  V30 37 1 35 4
M  V30 38 1 36 5
M  V30 39 1 37 5
M  V30 40 1 38 6
M  V30 41 1 7 39 CFG=3
M  V30 42 1 9 40 CFG=1
M  V30 43 1 41 12
M  V30 44 1 42 12
M  V30 45 1 43 16
M  V30 46 1 44 16
M  V30 47 1 45 17
M  V30 48 1 46 17
M  V30 49 1 47 18
M  V30 50 1 48 18
M  V30 51 1 49 19
M  V30 52 1 50 19
M  V30 53 1 51 19
M  V30 54 1 52 20
M  V30 55 1 53 21
M  V30 56 1 54 21
M  V30 57 1 55 22
M  V30 58 1 56 22
M  V30 59 1 57 23
M  V30 60 1 58 23
M  V30 61 1 59 23
M  V30 62 1 60 24
M  V30 63 1 61 24
M  V30 64 1 62 25
M  V30 65 1 63 25
M  V30 66 1 64 25
M  V30 67 1 26 65 CFG=3
M  V30 68 1 27 66 CFG=3
M  V30 69 1 67 29
M  V30 70 1 14 68 CFG=3
M  V30 END BOND
M  V30 END CTAB
M  END
>  <i_epik_Tot_Q>  (1) 
0

>  <i_epik_Tot_abs_Q>  (1) 
2

>  <i_i_glide_confnum>  (1) 
144

>  <i_i_glide_lignum>  (1) 
63

>  <i_i_glide_posenum>  (1) 
141

>  <i_i_glide_rotatable_bonds>  (1) 
8

>  <i_lp_mmshare_version>  (1) 
72125

>  <i_m_source_file_index>  (1) 
24

>  <i_f3d_flags>  (1) 
0

>  <num_sample>  (1) 
50

>  <b_lp_Chiralities_Consistent>  (1) 
1

>  <r_epik_Charging_Adjusted_Penalty>  (1) 
0.003094722008017318

>  <r_epik_Ionization_Penalty>  (1) 
0.003094722008017318

>  <r_epik_Ionization_Penalty_Charging>  (1) 
0.003094722008017318

>  <r_epik_Ionization_Penalty_Neutral>  (1) 
0

>  <r_epik_State_Penalty>  (1) 
-0

>  <r_glide_ring_energy>  (1) 
0

>  <r_i_docking_score>  (1) 
-5.5640562058198686

>  <r_i_glide_ecoul>  (1) 
-2.9227830947034006

>  <r_i_glide_eff_state_penalty>  (1) 
-0

>  <r_i_glide_einternal>  (1) 
12.608273497892721

>  <r_i_glide_emodel>  (1) 
-32.574174422418096

>  <r_i_glide_emodel_strain>  (1) 
0.053079747335111449

>  <r_i_glide_energy>  (1) 
-28.726031314171586

>  <r_i_glide_erotb>  (1) 
0.72975461734148295

>  <r_i_glide_esite>  (1) 
-0.052497835608810273

>  <r_i_glide_evdw>  (1) 
-25.803248219468184

>  <r_i_glide_gscore>  (1) 
-5.5640562058198686

>  <r_i_glide_gscore_strain>  (1) 
0

>  <r_i_glide_hbond>  (1) 
0

>  <r_i_glide_ligand_efficiency>  (1) 
-0.19186400709723686

>  <r_i_glide_ligand_efficiency_ln>  (1) 
-1.2740277788411463

>  <r_i_glide_ligand_efficiency_sa>  (1) 
-0.58946701724834971

>  <r_i_glide_lipo>  (1) 
-2.8840601199513585

>  <r_i_glide_metal>  (1) 
-0

>  <r_i_glide_rewards>  (1) 
-1.6286729924222623

>  <r_lp_Energy>  (1) 
51.626332999999995

>  <r_lp_tautomer_probability>  (1) 
1

>  <s_epik_cmdline>  (1) 
J2VwaWtfcHl0aG9uJywgJy1waHQnLCAnMS4wJywgJy1waCcsICc3LjQnLCAnLXRuJywgJzgnLCAnLW1hJywgJzUwMCcsICctaW1hZScsICc8aW5maWxlLm1hZT4nLCAnLW9tYWUnLCAnPG91dGZpbGUubWFlPic=

>  <s_epik_input>  (1) 
W09IXUMoPU8pQyhbQ0gzXSkoW0NIM10pW0NASF0oW0NIMl0xKVtDSDJdW0NAQEhdKFtDSDNdKVtDSDJdW0NASF0xW0NIMl1OKFtDSDJdW0NIMl0yKVtDSDJdW0NIMl1bQ0hdMltDSDJdW0NIMl1PYzNbY0hdW2NIXVtjSF1bY0hdW2NIXTM=

>  <s_glide_docking_method>  (1) 
confgen

>  <s_i_glide_gridfile>  (1) 
gpcr_drd2_6luq_protein_autoprepared_prepared

>  <s_lp_Force_Field>  (1) 
S-OPLS

>  <s_lp_Variant>  (1) 
DiffSBDD_23_num_sample_50-2

>  <s_m_source_file>  (1) 
generated__ligand_DiffSBDD_2026-05-06_prepared.sdf

>  <GenAI_Model>  (1) 
DiffSBDD

>  <Protein>  (1) 
generic_title2

$$$$
DiffSBDD_0_num_sample_50
     RDKit          3D

  0  0  0  0  0  0  0  0  0  0999 V3000
M  V30 BEGIN CTAB
M  V30 COUNTS 57 60 0 0 1
M  V30 BEGIN ATOM
M  V30 1 C 11.135875 7.469890 -4.772852 0
M  V30 2 C 8.479698 6.241510 -12.680644 0 CFG=2
M  V30 3 N 8.821857 5.497251 -11.456620 0
M  V30 4 N 10.190003 7.030694 -8.287315 0
M  V30 5 C 7.719086 5.489761 -18.593684 0
M  V30 6 C 5.870623 6.242367 -16.964906 0
M  V30 7 C 5.950128 6.240983 -12.403731 0
M  V30 8 S 8.155414 5.369286 -15.842538 0
M  V30 9 O 8.671297 3.330299 -12.291798 0
M  V30 10 C 10.950180 7.786880 -6.133228 0
M  V30 11 C 8.557556 7.733144 -12.263792 0
M  V30 12 C 10.044971 6.930545 -6.965118 0
M  V30 13 C 10.909148 7.036101 -11.269672 0
M  V30 14 C 7.119369 5.832921 -13.315822 0 CFG=1
M  V30 15 C 9.459015 6.155375 -9.193792 0
M  V30 16 N 5.546903 5.343077 -11.503363 0
M  V30 17 O 5.434842 7.349096 -12.513041 0
M  V30 18 F 13.434901 10.118669 -3.747757 0
M  V30 19 O 9.251711 6.169305 -6.435698 0
M  V30 20 C 11.973647 8.258049 -3.970143 0
M  V30 21 C 7.034881 6.339688 -14.781316 0 CFG=2
M  V30 22 C 9.601154 7.789991 -11.209274 0 CFG=2
M  V30 23 C 12.447722 9.700027 -5.877832 0
M  V30 24 F 6.862624 5.289912 -19.594835 0
M  V30 25 F 8.230848 6.716765 -18.692511 0
M  V30 26 C 9.659910 6.404787 -10.669891 0 CFG=2
M  V30 27 C 9.548038 4.249643 -11.688920 0
M  V30 28 F 12.150718 7.944034 -2.664953 0
M  V30 29 C 12.628304 9.369330 -4.520020 0
M  V30 30 C 7.018246 5.265130 -17.244711 0 CFG=2
M  V30 31 C 5.653035 6.269800 -15.449438 0
M  V30 32 C 11.614063 8.906708 -6.691345 0
M  V30 33 H 10.632648 6.613464 -4.343811 0
M  V30 34 H 9.281899 6.063046 -13.396206 0
M  V30 35 H 10.857970 7.675748 -8.675108 0
M  V30 36 H 8.539400 4.783869 -18.729047 0
M  V30 37 H 6.142639 7.243593 -17.303112 0
M  V30 38 H 4.962994 5.960345 -17.498971 0
M  V30 39 H 8.879422 2.468903 -11.953532 0
M  V30 40 H 7.655433 8.110479 -11.790052 0
M  V30 41 H 8.756693 8.393810 -13.091602 0
M  V30 42 H 11.695842 7.367692 -10.595775 0
M  V30 43 H 11.252297 6.702430 -12.247466 0
M  V30 44 H 7.055466 4.750475 -13.397885 0
M  V30 45 H 8.389562 6.169332 -8.970349 0
M  V30 46 H 9.782782 5.137569 -8.973515 0
M  V30 47 H 6.014571 4.450988 -11.439208 0
M  V30 48 H 4.797720 5.571596 -10.867527 0
M  V30 49 H 7.371809 7.376028 -14.832137 0
M  V30 50 H 9.516964 8.605364 -10.495355 0
M  V30 51 H 12.953446 10.556960 -6.291658 0
M  V30 52 H 9.834842 3.818904 -10.731259 0
M  V30 53 H 10.443051 4.394478 -12.291549 0
M  V30 54 H 6.634961 4.245851 -17.228139 0
M  V30 55 H 5.133795 5.369291 -15.129277 0
M  V30 56 H 5.034828 7.120607 -15.163836 0
M  V30 57 H 11.478390 9.162675 -7.731471 0
M  V30 END ATOM
M  V30 BEGIN BOND
M  V30 1 1 3 2
M  V30 2 2 10 1
M  V30 3 1 11 2
M  V30 4 1 12 4
M  V30 5 1 12 10
M  V30 6 1 14 2
M  V30 7 1 14 7
M  V30 8 1 15 4
M  V30 9 1 16 7
M  V30 10 2 17 7
M  V30 11 2 19 12
M  V30 12 1 20 1
M  V30 13 1 21 8
M  V30 14 1 21 14
M  V30 15 1 22 11
M  V30 16 1 22 13
M  V30 17 1 24 5
M  V30 18 1 25 5
M  V30 19 1 26 3
M  V30 20 1 26 13
M  V30 21 1 26 15 CFG=1
M  V30 22 1 26 22
M  V30 23 1 27 3
M  V30 24 1 27 9
M  V30 25 1 28 20
M  V30 26 1 29 18
M  V30 27 2 29 20
M  V30 28 1 29 23
M  V30 29 1 30 5
M  V30 30 1 30 6
M  V30 31 1 30 8
M  V30 32 1 31 6
M  V30 33 1 31 21
M  V30 34 1 32 10
M  V30 35 2 32 23
M  V30 36 1 33 1
M  V30 37 1 2 34 CFG=3
M  V30 38 1 35 4
M  V30 39 1 36 5
M  V30 40 1 37 6
M  V30 41 1 38 6
M  V30 42 1 39 9
M  V30 43 1 40 11
M  V30 44 1 41 11
M  V30 45 1 42 13
M  V30 46 1 43 13
M  V30 47 1 14 44 CFG=3
M  V30 48 1 45 15
M  V30 49 1 46 15
M  V30 50 1 47 16
M  V30 51 1 48 16
M  V30 52 1 21 49 CFG=1
M  V30 53 1 22 50 CFG=1
M  V30 54 1 51 23
M  V30 55 1 52 27
M  V30 56 1 53 27
M  V30 57 1 30 54 CFG=3
M  V30 58 1 55 31
M  V30 59 1 56 31
M  V30 60 1 57 32
M  V30 END BOND
M  V30 END CTAB
M  END
>  <i_epik_Tot_Q>  (1) 
0

>  <i_epik_Tot_abs_Q>  (1) 
0

>  <i_i_glide_confnum>  (1) 
157

>  <i_i_glide_lignum>  (1) 
1

>  <i_i_glide_posenum>  (1) 
78

>  <i_i_glide_rotatable_bonds>  (1) 
10

>  <i_lp_mmshare_version>  (1) 
72125

>  <i_m_source_file_index>  (1) 
1

>  <i_f3d_flags>  (1) 
0

>  <num_sample>  (1) 
50

>  <b_lp_Chiralities_Consistent>  (1) 
1

>  <r_epik_Charging_Adjusted_Penalty>  (1) 
0.071769471723160352

>  <r_epik_Ionization_Penalty>  (1) 
0.068537577392677768

>  <r_epik_Ionization_Penalty_Charging>  (1) 
0

>  <r_epik_Ionization_Penalty_Neutral>  (1) 
0.068537577392677768

>  <r_epik_State_Penalty>  (1) 
0.071769471723160352

>  <r_glide_ring_energy>  (1) 
0

>  <r_i_docking_score>  (1) 
-5.5534245766172097

>  <r_i_glide_ecoul>  (1) 
-1.3412871851832255

>  <r_i_glide_eff_state_penalty>  (1) 
0.071769471723160352

>  <r_i_glide_einternal>  (1) 
5.5602129978268096

>  <r_i_glide_emodel>  (1) 
-45.587451421750629

>  <r_i_glide_emodel_strain>  (1) 
0.59761098086543285

>  <r_i_glide_energy>  (1) 
-35.495169041793872

>  <r_i_glide_erotb>  (1) 
0.5371628550043247

>  <r_i_glide_esite>  (1) 
-0.13651232252683809

>  <r_i_glide_evdw>  (1) 
-34.153881856610646

>  <r_i_glide_gscore>  (1) 
-5.6251940483403704

>  <r_i_glide_gscore_strain>  (1) 
0

>  <r_i_glide_hbond>  (1) 
-0.077300453865391555

>  <r_i_glide_ligand_efficiency>  (1) 
-0.1735445180192878

>  <r_i_glide_ligand_efficiency_ln>  (1) 
-1.2435631433411842

>  <r_i_glide_ligand_efficiency_sa>  (1) 
-0.55096950093426333

>  <r_i_glide_lipo>  (1) 
-2.333883453188792

>  <r_i_glide_metal>  (1) 
-0

>  <r_i_glide_rewards>  (1) 
-1.7057735031556565

>  <r_lp_Energy>  (1) 
1.918968

>  <s_epik_Chemistry_Notes>  (1) 
This compound contains an acetal/aminal-like group ( X-CH(R)-Y where X, Y are N, S, or O) that may be acid/base labile, releasing an aldehyde.

>  <s_epik_cmdline>  (1) 
J2VwaWtfcHl0aG9uJywgJy1waHQnLCAnMS4wJywgJy1waCcsICc3LjQnLCAnLXRuJywgJzgnLCAnLW1hJywgJzUwMCcsICctaW1hZScsICc8aW5maWxlLm1hZT4nLCAnLW9tYWUnLCAnPG91dGZpbGUubWFlPic=

>  <s_epik_input>  (1) 
W2NIXTFbY0hdYyhGKWMoRilbY0hdYzFDKD1PKVtOSF1bQ0gyXVtDQF0yM1tDQEBIXShbQ0gyXTMpW0NIMl1bQ0BASF0oTjJbQ0gyXVtPSF0pW0NAQEhdKEMoPU8pW05IMl0pW0NASF00U1tDQEhdKFtDSF0oRilGKVtDSDJdW0NIMl00

>  <s_glide_docking_method>  (1) 
confgen

>  <s_i_glide_gridfile>  (1) 
gpcr_drd2_6luq_protein_autoprepared_prepared

>  <s_lp_Force_Field>  (1) 
S-OPLS

>  <s_lp_Variant>  (1) 
DiffSBDD_0_num_sample_50-1

>  <s_m_source_file>  (1) 
generated__ligand_DiffSBDD_2026-05-06_prepared.sdf

>  <GenAI_Model>  (1) 
DiffSBDD

>  <Protein>  (1) 
generic_title2

$$$$
DiffSBDD_37_num_sample_50
     RDKit          3D

  0  0  0  0  0  0  0  0  0  0999 V3000
M  V30 BEGIN CTAB
M  V30 COUNTS 43 45 0 0 1
M  V30 BEGIN ATOM
M  V30 1 C 11.178359 7.413944 -4.880404 0
M  V30 2 N 10.121875 6.532821 -8.359629 0
M  V30 3 N 6.741838 7.222013 -11.891667 0 CHG=1
M  V30 4 C 11.795715 8.670721 -5.073121 0
M  V30 5 C 11.871294 9.216371 -6.367289 0
M  V30 6 C 11.336861 8.517643 -7.470610 0
M  V30 7 C 4.693225 6.517354 -10.681963 0
M  V30 8 C 12.457092 8.720301 -2.749664 0
M  V30 9 C 5.774340 6.138916 -11.693933 0 CFG=2
M  V30 10 C 8.629951 4.992552 -9.085598 0
M  V30 11 C 7.949024 6.588648 -12.445196 0 CFG=2
M  V30 12 S 9.994617 7.010513 -10.099950 0
M  V30 13 C 10.696776 7.257180 -7.274592 0
M  V30 14 N 9.337483 5.444308 -8.061168 0
M  V30 15 C 6.626617 4.904939 -11.344729 0
M  V30 16 C 7.803345 6.217874 -13.939054 0
M  V30 17 O 12.335769 9.367691 -4.011397 0
M  V30 18 C 10.630254 6.719618 -5.966791 0
M  V30 19 O 11.438577 9.062687 -8.712685 0
M  V30 20 C 8.812923 5.637905 -10.219542 0
M  V30 21 C 8.105062 5.345588 -11.548922 0 CFG=2
M  V30 22 H 11.116409 6.980738 -3.895417 0
M  V30 23 H 6.374782 7.963764 -12.467798 0
M  V30 24 H 12.351138 10.172352 -6.517075 0
M  V30 25 H 3.914944 5.770228 -10.684679 0
M  V30 26 H 5.035115 6.565804 -9.657490 0
M  V30 27 H 4.252071 7.484095 -10.917850 0
M  V30 28 H 12.983728 9.368075 -2.055950 0
M  V30 29 H 11.482872 8.515349 -2.306291 0
M  V30 30 H 13.032448 7.795602 -2.817366 0
M  V30 31 H 5.282314 5.964097 -12.651342 0
M  V30 32 H 7.965197 4.169068 -8.900995 0
M  V30 33 H 8.777971 7.290524 -12.388676 0
M  V30 34 H 9.226216 5.135759 -7.105971 0
M  V30 35 H 6.379046 4.087841 -12.022609 0
M  V30 36 H 6.400313 4.541870 -10.343282 0
M  V30 37 H 8.733247 5.782453 -14.310810 0
M  V30 38 H 7.022691 5.477313 -14.118642 0
M  V30 39 H 7.580866 7.092441 -14.552032 0
M  V30 40 H 10.156620 5.769292 -5.794326 0
M  V30 41 H 10.990380 8.528393 -9.349920 0
M  V30 42 H 8.677045 4.566356 -12.055190 0
M  V30 43 H 6.953805 7.571235 -10.943693 0
M  V30 END ATOM
M  V30 BEGIN BOND
M  V30 1 1 4 1
M  V30 2 2 5 4
M  V30 3 1 6 5
M  V30 4 1 9 3
M  V30 5 1 9 7
M  V30 6 1 11 3
M  V30 7 1 12 2
M  V30 8 1 13 2
M  V30 9 2 13 6
M  V30 10 1 14 2
M  V30 11 1 14 10
M  V30 12 1 15 9
M  V30 13 1 16 11
M  V30 14 1 17 4
M  V30 15 1 17 8
M  V30 16 2 18 1
M  V30 17 1 18 13
M  V30 18 1 19 6
M  V30 19 2 20 10
M  V30 20 1 20 12
M  V30 21 1 21 11
M  V30 22 1 21 15
M  V30 23 1 21 20
M  V30 24 1 22 1
M  V30 25 1 23 3
M  V30 26 1 24 5
M  V30 27 1 25 7
M  V30 28 1 26 7
M  V30 29 1 27 7
M  V30 30 1 28 8
M  V30 31 1 29 8
M  V30 32 1 30 8
M  V30 33 1 9 31 CFG=3
M  V30 34 1 32 10
M  V30 35 1 11 33 CFG=3
M  V30 36 1 34 14
M  V30 37 1 35 15
M  V30 38 1 36 15
M  V30 39 1 37 16
M  V30 40 1 38 16
M  V30 41 1 39 16
M  V30 42 1 40 18
M  V30 43 1 41 19
M  V30 44 1 21 42 CFG=3
M  V30 45 1 43 3
M  V30 END BOND
M  V30 END CTAB
M  END
>  <i_epik_Tot_Q>  (1) 
1

>  <i_epik_Tot_abs_Q>  (1) 
1

>  <i_i_glide_confnum>  (1) 
3

>  <i_i_glide_lignum>  (1) 
92

>  <i_i_glide_posenum>  (1) 
324

>  <i_i_glide_rotatable_bonds>  (1) 
4

>  <i_lp_mmshare_version>  (1) 
72125

>  <i_m_source_file_index>  (1) 
38

>  <i_f3d_flags>  (1) 
0

>  <num_sample>  (1) 
50

>  <b_lp_Chiralities_Consistent>  (1) 
1

>  <r_epik_Charging_Adjusted_Penalty>  (1) 
0.0014043227577044803

>  <r_epik_Ionization_Penalty>  (1) 
0.0059697486383219651

>  <r_epik_Ionization_Penalty_Charging>  (1) 
0.0014043227577044803

>  <r_epik_Ionization_Penalty_Neutral>  (1) 
0.0045654258806174849

>  <r_epik_State_Penalty>  (1) 
-0

>  <r_glide_ring_energy>  (1) 
0

>  <r_i_docking_score>  (1) 
-5.535864310951351

>  <r_i_glide_ecoul>  (1) 
-6.4361204167542656

>  <r_i_glide_eff_state_penalty>  (1) 
-0

>  <r_i_glide_einternal>  (1) 
8.0616641846091692

>  <r_i_glide_emodel>  (1) 
-43.096727250055828

>  <r_i_glide_emodel_strain>  (1) 
0.39574533246555177

>  <r_i_glide_energy>  (1) 
-34.380981997404447

>  <r_i_glide_erotb>  (1) 
0.38898511058673108

>  <r_i_glide_esite>  (1) 
-0.15095131292482999

>  <r_i_glide_evdw>  (1) 
-27.94486158065018

>  <r_i_glide_gscore>  (1) 
-5.535864310951351

>  <r_i_glide_gscore_strain>  (1) 
0

>  <r_i_glide_hbond>  (1) 
-0.197558427722829

>  <r_i_glide_ligand_efficiency>  (1) 
-0.2636125862357786

>  <r_i_glide_ligand_efficiency_ln>  (1) 
-1.3687312646156005

>  <r_i_glide_ligand_efficiency_sa>  (1) 
-0.72728713736424278

>  <r_i_glide_lipo>  (1) 
-1.7057061056123834

>  <r_i_glide_metal>  (1) 
-0

>  <r_i_glide_rewards>  (1) 
-1.5079724337323919

>  <r_lp_Energy>  (1) 
16.995556000000001

>  <r_lp_tautomer_probability>  (1) 
1

>  <s_epik_Chemistry_Notes>  (1) 
This compound has a N-S or N-O group and may undergo hydrolysis at high or low pH.

>  <s_epik_cmdline>  (1) 
J2VwaWtfcHl0aG9uJywgJy1waHQnLCAnMS4wJywgJy1waCcsICc3LjQnLCAnLXRuJywgJzgnLCAnLW1hJywgJzUwMCcsICctaW1hZScsICc8aW5maWxlLm1hZT4nLCAnLW9tYWUnLCAnPG91dGZpbGUubWFlPic=

>  <s_epik_input>  (1) 
W0NIM11PYzFbY0hdW2NIXWMoYyhbY0hdMSlbT0hdKU4yU0MoPVtDSF1bTkhdMilbQ0BASF0oW0NIMl0zKVtDQEBIXShbQ0gzXSlbTkhdW0NAQEhdM1tDSDNd

>  <s_glide_docking_method>  (1) 
confgen

>  <s_i_glide_gridfile>  (1) 
gpcr_drd2_6luq_protein_autoprepared_prepared

>  <s_lp_Force_Field>  (1) 
S-OPLS

>  <s_lp_Variant>  (1) 
DiffSBDD_37_num_sample_50-1

>  <s_m_source_file>  (1) 
generated__ligand_DiffSBDD_2026-05-06_prepared.sdf

>  <GenAI_Model>  (1) 
DiffSBDD

>  <Protein>  (1) 
generic_title2

$$$$
DiffSBDD_7_num_sample_50
     RDKit          3D

  0  0  0  0  0  0  0  0  0  0999 V3000
M  V30 BEGIN CTAB
M  V30 COUNTS 63 67 0 0 1
M  V30 BEGIN ATOM
M  V30 1 C 9.880813 7.099798 -6.966354 0 CFG=1
M  V30 2 C 4.826444 7.368150 -18.549140 0
M  V30 3 C 5.303943 7.601282 -19.854140 0
M  V30 4 C 11.063643 8.874240 -8.143024 0
M  V30 5 C 6.129327 5.520942 -13.138685 0 CFG=2
M  V30 6 C 6.540604 7.061995 -20.258954 0
M  V30 7 C 8.875151 5.342683 -9.279628 0
M  V30 8 C 7.333806 4.589878 -12.872842 0 CFG=2
M  V30 9 C 8.351753 5.073069 -11.796111 0 CFG=2
M  V30 10 C 7.034747 7.480063 -14.900084 0
M  V30 11 C 5.063762 6.337650 -16.244526 0
M  V30 12 C 7.300622 6.289854 -19.358113 0
M  V30 13 C 8.276836 5.387257 -7.889558 0
M  V30 14 C 11.269415 6.620171 -7.272310 0 CFG=2
M  V30 15 C 10.913468 6.996209 -5.857183 0
M  V30 16 O 9.435158 4.168474 -11.765848 0
M  V30 17 C 6.824247 6.057605 -18.052770 0
M  V30 18 C 6.176847 6.799340 -13.917161 0 CFG=1
M  V30 19 C 8.001690 4.122295 -14.198798 0
M  V30 20 C 9.669166 8.417767 -7.684257 0
M  V30 21 C 11.906503 7.597598 -8.229687 0
M  V30 22 C 5.509899 7.308710 -15.162878 0 CFG=1
M  V30 23 C 7.800955 5.058539 -10.351915 0
M  V30 24 C 8.724741 6.168735 -6.887134 0
M  V30 25 C 7.254024 2.982811 -14.888572 0
M  V30 26 C 5.586136 6.599164 -17.645924 0
M  V30 27 C 5.965230 6.944812 -12.469905 0
M  V30 28 H 3.876921 7.780650 -18.241726 0
M  V30 29 H 4.720740 8.192571 -20.544177 0
M  V30 30 H 11.035730 9.402670 -9.095226 0
M  V30 31 H 11.494869 9.539830 -7.393917 0
M  V30 32 H 5.208165 4.959723 -13.284771 0
M  V30 33 H 6.905814 7.239688 -21.260753 0
M  V30 34 H 9.633185 4.559814 -9.277525 0
M  V30 35 H 9.388207 6.272326 -9.514896 0
M  V30 36 H 6.897919 3.689130 -12.436704 0
M  V30 37 H 8.742034 6.058845 -12.050921 0
M  V30 38 H 7.699956 6.867818 -15.489668 0
M  V30 39 H 7.406221 8.473075 -14.657390 0
M  V30 40 H 3.976486 6.273410 -16.291879 0
M  V30 41 H 5.433256 5.370699 -15.940751 0
M  V30 42 H 8.247876 5.874730 -19.668742 0
M  V30 43 H 7.434861 4.739955 -7.713169 0
M  V30 44 H 11.420670 5.563472 -7.477477 0
M  V30 45 H 10.812989 6.182056 -5.142116 0
M  V30 46 H 11.327532 7.916941 -5.450354 0
M  V30 47 H 9.118158 3.315062 -11.508261 0
M  V30 48 H 7.406591 5.462632 -17.364918 0
M  V30 49 H 8.122330 4.944543 -14.891384 0
M  V30 50 H 9.016875 3.769905 -14.048775 0
M  V30 51 H 9.034815 8.266490 -8.555423 0
M  V30 52 H 9.173904 9.139216 -7.039681 0
M  V30 53 H 12.954883 7.769984 -7.983973 0
M  V30 54 H 11.847855 7.182390 -9.235986 0
M  V30 55 H 4.934379 8.229365 -15.105211 0
M  V30 56 H 7.337424 4.098946 -10.139614 0
M  V30 57 H 6.985571 5.769420 -10.253830 0
M  V30 58 H 8.218412 6.125527 -5.936880 0
M  V30 59 H 7.724013 2.714122 -15.835378 0
M  V30 60 H 6.234839 3.281597 -15.093117 0
M  V30 61 H 7.227092 2.092003 -14.259572 0
M  V30 62 H 4.980150 7.249495 -12.133255 0
M  V30 63 H 6.789554 7.380371 -11.909503 0
M  V30 END ATOM
M  V30 BEGIN BOND
M  V30 1 1 3 2
M  V30 2 2 6 3
M  V30 3 1 8 5
M  V30 4 1 9 8
M  V30 5 1 12 6
M  V30 6 1 13 7
M  V30 7 1 14 1
M  V30 8 1 15 1
M  V30 9 1 15 14
M  V30 10 1 16 9
M  V30 11 2 17 12
M  V30 12 1 18 5
M  V30 13 1 18 10 CFG=1
M  V30 14 1 19 8
M  V30 15 1 20 1
M  V30 16 1 20 4
M  V30 17 1 21 4
M  V30 18 1 21 14
M  V30 19 1 22 10
M  V30 20 1 22 11
M  V30 21 1 22 18
M  V30 22 1 23 7
M  V30 23 1 23 9
M  V30 24 1 1 24 CFG=1
M  V30 25 2 24 13
M  V30 26 1 25 19
M  V30 27 2 26 2
M  V30 28 1 26 11
M  V30 29 1 26 17
M  V30 30 1 27 5
M  V30 31 1 27 18
M  V30 32 1 28 2
M  V30 33 1 29 3
M  V30 34 1 30 4
M  V30 35 1 31 4
M  V30 36 1 5 32 CFG=3
M  V30 37 1 33 6
M  V30 38 1 34 7
M  V30 39 1 35 7
M  V30 40 1 8 36 CFG=1
M  V30 41 1 9 37 CFG=3
M  V30 42 1 38 10
M  V30 43 1 39 10
M  V30 44 1 40 11
M  V30 45 1 41 11
M  V30 46 1 42 12
M  V30 47 1 43 13
M  V30 48 1 14 44 CFG=1
M  V30 49 1 45 15
M  V30 50 1 46 15
M  V30 51 1 47 16
M  V30 52 1 48 17
M  V30 53 1 49 19
M  V30 54 1 50 19
M  V30 55 1 51 20
M  V30 56 1 52 20
M  V30 57 1 53 21
M  V30 58 1 54 21
M  V30 59 1 22 55 CFG=1
M  V30 60 1 56 23
M  V30 61 1 57 23
M  V30 62 1 58 24
M  V30 63 1 59 25
M  V30 64 1 60 25
M  V30 65 1 61 25
M  V30 66 1 62 27
M  V30 67 1 63 27
M  V30 END BOND
M  V30 END CTAB
M  END
>  <i_epik_Tot_Q>  (1) 
0

>  <i_epik_Tot_abs_Q>  (1) 
0

>  <i_i_glide_confnum>  (1) 
138

>  <i_i_glide_lignum>  (1) 
16

>  <i_i_glide_posenum>  (1) 
84

>  <i_i_glide_rotatable_bonds>  (1) 
10

>  <i_lp_mmshare_version>  (1) 
72125

>  <i_m_source_file_index>  (1) 
8

>  <i_f3d_flags>  (1) 
0

>  <num_sample>  (1) 
50

>  <b_lp_Chiralities_Consistent>  (1) 
1

>  <r_epik_Charging_Adjusted_Penalty>  (1) 
0

>  <r_epik_Ionization_Penalty>  (1) 
5.611789062664276e-07

>  <r_epik_Ionization_Penalty_Charging>  (1) 
0

>  <r_epik_Ionization_Penalty_Neutral>  (1) 
5.611789062664276e-07

>  <r_epik_State_Penalty>  (1) 
-0

>  <r_glide_ring_energy>  (1) 
0

>  <r_i_docking_score>  (1) 
-5.5149660670783769

>  <r_i_glide_ecoul>  (1) 
-0.5621762387124305

>  <r_i_glide_eff_state_penalty>  (1) 
-0

>  <r_i_glide_einternal>  (1) 
15.221236893041214

>  <r_i_glide_emodel>  (1) 
-36.080048186230655

>  <r_i_glide_emodel_strain>  (1) 
0.65281158475805512

>  <r_i_glide_energy>  (1) 
-33.744724417093757

>  <r_i_glide_erotb>  (1) 
1.0125554383439441

>  <r_i_glide_esite>  (1) 
0

>  <r_i_glide_evdw>  (1) 
-33.182548178381325

>  <r_i_glide_gscore>  (1) 
-5.5149660670783769

>  <r_i_glide_gscore_strain>  (1) 
0

>  <r_i_glide_hbond>  (1) 
0

>  <r_i_glide_ligand_efficiency>  (1) 
-0.20425800248438433

>  <r_i_glide_ligand_efficiency_ln>  (1) 
-1.2837931790943431

>  <r_i_glide_ligand_efficiency_sa>  (1) 
-0.61277400745315314

>  <r_i_glide_lipo>  (1) 
-2.9607237061509339

>  <r_i_glide_metal>  (1) 
-0

>  <r_i_glide_rewards>  (1) 
-1.8233439545454555

>  <r_lp_Energy>  (1) 
25.483521999999997

>  <r_lp_tautomer_probability>  (1) 
1

>  <s_epik_cmdline>  (1) 
J2VwaWtfcHl0aG9uJywgJy1waHQnLCAnMS4wJywgJy1waCcsICc3LjQnLCAnLXRuJywgJzgnLCAnLW1hJywgJzUwMCcsICctaW1hZScsICc8aW5maWxlLm1hZT4nLCAnLW9tYWUnLCAnPG91dGZpbGUubWFlPic=

>  <s_epik_input>  (1) 
W0NIMl0xW0NIMl1bQ0gyXVtDQEBIXShbQ0gyXTIpW0NAXTEyL1tDSF09W0NIXVxbQ0gyXVtDSDJdW0NAQEhdKFtPSF0pW0NASF0oW0NIMl1bQ0gzXSlbQ0BASF0oW0NIMl0zKVtDQF0zNFtDSDJdW0NASF00W0NIMl1jNVtjSF1bY0hdW2NIXVtjSF1bY0hdNQ==

>  <s_glide_docking_method>  (1) 
confgen

>  <s_i_glide_gridfile>  (1) 
gpcr_drd2_6luq_protein_autoprepared_prepared

>  <s_lp_Force_Field>  (1) 
S-OPLS

>  <s_lp_Variant>  (1) 
DiffSBDD_7_num_sample_50-1

>  <s_m_source_file>  (1) 
generated__ligand_DiffSBDD_2026-05-06_prepared.sdf

>  <GenAI_Model>  (1) 
DiffSBDD

>  <Protein>  (1) 
generic_title2

$$$$
DiffSBDD_34_num_sample_50
     RDKit          3D

  0  0  0  0  0  0  0  0  0  0999 V3000
M  V30 BEGIN CTAB
M  V30 COUNTS 109 114 0 0 1
M  V30 BEGIN ATOM
M  V30 1 C 8.591932 3.262716 -19.791263 0
M  V30 2 C 5.065882 6.282671 -16.881806 0
M  V30 3 C 6.536959 7.256437 -14.988534 0
M  V30 4 C 11.442106 2.809733 -17.957565 0
M  V30 5 C 8.627324 4.272007 -12.297327 0
M  V30 6 C 15.718516 6.337633 -18.880985 0 CFG=2
M  V30 7 C 4.832260 7.454800 -17.860167 0 CFG=2
M  V30 8 C 5.539739 7.013226 -13.822204 0
M  V30 9 O 10.736174 4.540298 -19.995789 0
M  V30 10 C 14.844316 1.952972 -18.046082 0 CFG=1
M  V30 11 N 15.850190 8.463423 -20.165713 0 CHG=1
M  V30 12 C 11.537640 3.445650 -20.416199 0 CFG=1
M  V30 13 O 6.802391 5.745514 -21.233200 0
M  V30 14 C 6.442449 6.258170 -16.168243 0 CFG=1
M  V30 15 C 8.833629 5.897555 -19.931361 0
M  V30 16 F 11.711153 4.115810 -22.663099 0
M  V30 17 C 13.315837 5.017766 -21.213867 0
M  V30 18 C 9.553803 4.777174 -9.957822 0
M  V30 19 O 14.534750 6.088032 -19.616983 0
M  V30 20 C 6.845553 4.837000 -15.732042 0
M  V30 21 C 3.327574 7.759783 -17.925644 0
M  V30 22 C 5.423626 7.166882 -19.257601 0
M  V30 23 C 9.699961 4.948407 -11.488775 0 CFG=2
M  V30 24 C 10.197263 1.937894 -18.185972 0
M  V30 25 O 8.532435 8.442989 -12.291263 0
M  V30 26 O 6.757683 6.878037 -19.211096 0
M  V30 27 C 8.611337 3.691559 -17.197685 0
M  V30 28 C 8.508244 7.221255 -12.124735 0
M  V30 29 C 12.445172 3.827289 -21.588659 0 CFG=1
M  V30 30 C 12.360129 3.028227 -19.185234 0 CFG=1
M  V30 31 C 7.354423 6.160477 -20.210909 0
M  V30 32 O 4.732356 7.209080 -20.279385 0
M  V30 33 O 10.927578 6.969272 -11.891623 0
M  V30 34 C 7.321309 4.989470 -12.032085 0
M  V30 35 C 8.873325 2.714277 -18.362732 0 CFG=1
M  V30 36 C 15.652767 5.720344 -17.473478 0
M  V30 37 C 14.479783 3.407916 -17.748996 0 CFG=1
M  V30 38 C 15.783904 4.195087 -17.502271 0
M  V30 39 C 5.035769 6.654562 -11.295871 0
M  V30 40 C 14.212216 4.749151 -19.990329 0 CFG=1
M  V30 41 C 15.826168 7.870866 -18.814112 0
M  V30 42 O 15.434836 1.240369 -16.952559 0
M  V30 43 C 6.058364 7.113902 -12.361821 0 CFG=1
M  V30 44 C 9.824456 6.423613 -11.846499 0
M  V30 45 C 13.497937 4.036272 -18.798808 0 CFG=1
M  V30 46 N 7.359613 6.461376 -12.168065 0
M  V30 47 C 9.360942 4.507013 -20.346689 0 CFG=2
M  V30 48 C 7.125900 3.862038 -16.893875 0
M  V30 49 C 14.189904 0.732820 -17.428470 0
M  V30 50 H 8.756799 2.435920 -20.482375 0
M  V30 51 H 7.521321 3.439683 -19.882953 0
M  V30 52 H 4.914532 5.369979 -17.453803 0
M  V30 53 H 4.274791 6.246767 -16.136199 0
M  V30 54 H 6.394873 8.269448 -15.366370 0
M  V30 55 H 7.565240 7.246239 -14.640667 0
M  V30 56 H 11.157727 3.777148 -17.548395 0
M  V30 57 H 12.004359 2.355574 -17.150113 0
M  V30 58 H 8.553845 3.216360 -12.036085 0
M  V30 59 H 8.889318 4.308862 -13.354101 0
M  V30 60 H 16.578036 5.946049 -19.427808 0
M  V30 61 H 5.333871 8.342872 -17.478031 0
M  V30 62 H 5.036387 6.054833 -13.944154 0
M  V30 63 H 4.774676 7.777470 -13.934533 0
M  V30 64 H 15.351984 1.795165 -18.996392 0
M  V30 65 H 15.829150 9.472465 -20.104216 0
M  V30 66 H 16.680111 8.169030 -20.660092 0
M  V30 67 H 10.936946 2.599147 -20.744132 0
M  V30 68 H 7.208522 6.566843 -16.872620 0
M  V30 69 H 9.023568 6.075593 -18.875757 0
M  V30 70 H 9.403536 6.661838 -20.459195 0
M  V30 71 H 13.934002 5.308262 -22.063738 0
M  V30 72 H 12.660881 5.868626 -21.017645 0
M  V30 73 H 10.224089 5.448778 -9.416331 0
M  V30 74 H 8.550092 4.979413 -9.586778 0
M  V30 75 H 9.834839 3.769398 -9.659367 0
M  V30 76 H 7.732703 4.896845 -15.105702 0
M  V30 77 H 6.071756 4.417915 -15.091448 0
M  V30 78 H 3.071712 8.475016 -18.707851 0
M  V30 79 H 2.768108 6.846713 -18.119683 0
M  V30 80 H 2.970759 8.169653 -16.979514 0
M  V30 81 H 10.634781 4.493709 -11.809049 0
M  V30 82 H 10.078638 1.311375 -17.300255 0
M  V30 83 H 10.352417 1.227708 -18.997697 0
M  V30 84 H 9.080785 4.656016 -17.372493 0
M  V30 85 H 9.081887 3.301171 -16.294510 0
M  V30 86 H 13.070142 2.980198 -21.873353 0
M  V30 87 H 12.795852 2.072146 -19.469656 0
M  V30 88 H 6.950228 4.737229 -11.039167 0
M  V30 89 H 6.574744 4.588473 -12.717309 0
M  V30 90 H 8.128706 1.925158 -18.246145 0
M  V30 91 H 16.487247 6.115374 -16.891600 0
M  V30 92 H 14.748256 6.027589 -16.946514 0
M  V30 93 H 13.952208 3.406008 -16.794236 0
M  V30 94 H 16.528620 3.921557 -18.250904 0
M  V30 95 H 16.191802 3.870046 -16.543668 0
M  V30 96 H 4.234851 7.383169 -11.201682 0
M  V30 97 H 4.635207 5.667502 -11.507746 0
M  V30 98 H 5.435401 6.569286 -10.292544 0
M  V30 99 H 15.090536 4.188572 -20.314460 0
M  V30 100 H 14.976412 8.284317 -18.268259 0
M  V30 101 H 16.728396 8.170831 -18.279138 0
M  V30 102 H 6.168957 8.169302 -12.140836 0
M  V30 103 H 12.986658 4.853332 -18.286942 0
M  V30 104 H 9.303200 4.463862 -21.435922 0
M  V30 105 H 6.724991 2.882231 -16.628007 0
M  V30 106 H 6.617746 4.158852 -17.809053 0
M  V30 107 H 13.398062 0.820486 -16.691634 0
M  V30 108 H 14.269634 -0.223059 -17.941728 0
M  V30 109 H 15.031990 8.141786 -20.666455 0
M  V30 END ATOM
M  V30 BEGIN BOND
M  V30 1 1 7 2
M  V30 2 1 8 3
M  V30 3 1 12 9
M  V30 4 1 14 2
M  V30 5 1 14 3
M  V30 6 1 19 6
M  V30 7 1 20 14
M  V30 8 1 21 7
M  V30 9 1 22 7
M  V30 10 1 23 5
M  V30 11 1 23 18
M  V30 12 1 24 4
M  V30 13 1 26 22
M  V30 14 2 28 25
M  V30 15 1 29 12
M  V30 16 1 29 16
M  V30 17 1 29 17
M  V30 18 1 30 4
M  V30 19 1 30 12
M  V30 20 2 31 13
M  V30 21 1 31 15
M  V30 22 1 31 26
M  V30 23 2 32 22
M  V30 24 1 34 5
M  V30 25 1 35 1
M  V30 26 1 35 24
M  V30 27 1 35 27
M  V30 28 1 36 6
M  V30 29 1 37 10
M  V30 30 1 38 36
M  V30 31 1 38 37
M  V30 32 1 40 17
M  V30 33 1 40 19
M  V30 34 1 41 6
M  V30 35 1 41 11
M  V30 36 1 42 10
M  V30 37 1 43 8
M  V30 38 1 43 39
M  V30 39 1 44 23
M  V30 40 1 44 28
M  V30 41 2 44 33
M  V30 42 1 45 30
M  V30 43 1 45 37
M  V30 44 1 45 40
M  V30 45 1 46 28
M  V30 46 1 46 34
M  V30 47 1 46 43
M  V30 48 1 47 1
M  V30 49 1 47 9
M  V30 50 1 47 15
M  V30 51 1 48 20
M  V30 52 1 48 27
M  V30 53 1 49 10
M  V30 54 1 49 42
M  V30 55 1 50 1
M  V30 56 1 51 1
M  V30 57 1 52 2
M  V30 58 1 53 2
M  V30 59 1 54 3
M  V30 60 1 55 3
M  V30 61 1 56 4
M  V30 62 1 57 4
M  V30 63 1 58 5
M  V30 64 1 59 5
M  V30 65 1 6 60 CFG=3
M  V30 66 1 7 61 CFG=1
M  V30 67 1 62 8
M  V30 68 1 63 8
M  V30 69 1 10 64 CFG=3
M  V30 70 1 65 11
M  V30 71 1 66 11
M  V30 72 1 12 67 CFG=3
M  V30 73 1 14 68 CFG=3
M  V30 74 1 69 15
M  V30 75 1 70 15
M  V30 76 1 71 17
M  V30 77 1 72 17
M  V30 78 1 73 18
M  V30 79 1 74 18
M  V30 80 1 75 18
M  V30 81 1 76 20
M  V30 82 1 77 20
M  V30 83 1 78 21
M  V30 84 1 79 21
M  V30 85 1 80 21
M  V30 86 1 23 81 CFG=3
M  V30 87 1 82 24
M  V30 88 1 83 24
M  V30 89 1 84 27
M  V30 90 1 85 27
M  V30 91 1 29 86 CFG=3
M  V30 92 1 30 87 CFG=3
M  V30 93 1 88 34
M  V30 94 1 89 34
M  V30 95 1 35 90 CFG=1
M  V30 96 1 91 36
M  V30 97 1 92 36
M  V30 98 1 37 93 CFG=1
M  V30 99 1 94 38
M  V30 100 1 95 38
M  V30 101 1 96 39
M  V30 102 1 97 39
M  V30 103 1 98 39
M  V30 104 1 40 99 CFG=3
M  V30 105 1 100 41
M  V30 106 1 101 41
M  V30 107 1 43 102 CFG=1
M  V30 108 1 45 103 CFG=1
M  V30 109 1 47 104 CFG=3
M  V30 110 1 105 48
M  V30 111 1 106 48
M  V30 112 1 107 49
M  V30 113 1 108 49
M  V30 114 1 109 11
M  V30 END BOND
M  V30 END CTAB
M  END
>  <i_epik_Tot_Q>  (1) 
1

>  <i_epik_Tot_abs_Q>  (1) 
1

>  <i_i_glide_confnum>  (1) 
153

>  <i_i_glide_lignum>  (1) 
87

>  <i_i_glide_posenum>  (1) 
56

>  <i_i_glide_rotatable_bonds>  (1) 
6

>  <i_lp_mmshare_version>  (1) 
72125

>  <i_m_source_file_index>  (1) 
35

>  <i_f3d_flags>  (1) 
0

>  <num_sample>  (1) 
50

>  <b_lp_Chiralities_Consistent>  (1) 
1

>  <r_epik_Charging_Adjusted_Penalty>  (1) 
0.0091647518509246212

>  <r_epik_Ionization_Penalty>  (1) 
0.0045823761218381463

>  <r_epik_Ionization_Penalty_Charging>  (1) 
0.0045823759254623037

>  <r_epik_Ionization_Penalty_Neutral>  (1) 
1.9637584269267853e-10

>  <r_epik_State_Penalty>  (1) 
0.0045823759254623184

>  <r_glide_ring_energy>  (1) 
0.075723670429018577

>  <r_i_docking_score>  (1) 
-5.5148774507716984

>  <r_i_glide_ecoul>  (1) 
-4.7850953539229923

>  <r_i_glide_eff_state_penalty>  (1) 
0.0045823759254623184

>  <r_i_glide_einternal>  (1) 
10.386693850117735

>  <r_i_glide_emodel>  (1) 
-45.586897965872488

>  <r_i_glide_emodel_strain>  (1) 
1.4999473216590076

>  <r_i_glide_energy>  (1) 
-37.696599087061074

>  <r_i_glide_erotb>  (1) 
0.051949520036259446

>  <r_i_glide_esite>  (1) 
-0.12711328692805185

>  <r_i_glide_evdw>  (1) 
-32.911503733138083

>  <r_i_glide_gscore>  (1) 
-5.5194598266971608

>  <r_i_glide_gscore_strain>  (1) 
0

>  <r_i_glide_hbond>  (1) 
-0.13344346145556904

>  <r_i_glide_ligand_efficiency>  (1) 
-0.11254851940350405

>  <r_i_glide_ligand_efficiency_ln>  (1) 
-1.1273671383435151

>  <r_i_glide_ligand_efficiency_sa>  (1) 
-0.41184943970787363

>  <r_i_glide_lipo>  (1) 
-1.9595359352846557

>  <r_i_glide_metal>  (1) 
-0

>  <r_i_glide_rewards>  (1) 
-0.98797717331979196

>  <r_lp_Energy>  (1) 
81.194295999999994

>  <r_lp_tautomer_probability>  (1) 
0.99995000000000001

>  <s_epik_cmdline>  (1) 
J2VwaWtfcHl0aG9uJywgJy1waHQnLCAnMS4wJywgJy1waCcsICc3LjQnLCAnLXRuJywgJzgnLCAnLW1hJywgJzUwMCcsICctaW1hZScsICc8aW5maWxlLm1hZT4nLCAnLW9tYWUnLCAnPG91dGZpbGUubWFlPic=

>  <s_epik_input>  (1) 
W0NIMl0xT1tDQEBIXTFbQ0BIXTJbQ0gyXVtDSDJdW0NASF0oW0NIMl1bTkgyXSlPW0NASF0oW0NIMl1bQ0BASF0zRilbQ0BIXTJbQ0BIXShbQ0BIXTM0KVtDSDJdW0NIMl1bQ0BASF01W0NIMl1bQ0BIXShPNClbQ0gyXUMoPU8pT0MoPU8pW0NAQEhdKFtDSDNdKVtDSDJdW0NASF0oW0NIMl1bQ0gyXVtDSDJdNSlbQ0gyXVtDSDJdW0NAQEhdKFtDSDNdKU4oQyg9TylDNj1PKVtDSDJdW0NIMl1bQ0BASF02W0NIM10=

>  <s_glide_docking_method>  (1) 
confgen

>  <s_i_glide_gridfile>  (1) 
gpcr_drd2_6luq_protein_autoprepared_prepared

>  <s_lp_Force_Field>  (1) 
S-OPLS

>  <s_lp_Variant>  (1) 
DiffSBDD_34_num_sample_50-1

>  <s_m_source_file>  (1) 
generated__ligand_DiffSBDD_2026-05-06_prepared.sdf

>  <GenAI_Model>  (1) 
DiffSBDD

>  <Protein>  (1) 
generic_title2

$$$$
DiffSBDD_29_num_sample_50
     RDKit          3D

  0  0  0  0  0  0  0  0  0  0999 V3000
M  V30 BEGIN CTAB
M  V30 COUNTS 64 67 0 0 1
M  V30 BEGIN ATOM
M  V30 1 C 11.021889 7.741467 -5.274587 0
M  V30 2 O 7.723441 5.261819 -11.644063 0
M  V30 3 C 7.182897 6.489920 -15.097658 0
M  V30 4 C 10.235987 6.467977 -5.285007 0
M  V30 5 O 7.876770 3.050236 -13.712070 0
M  V30 6 N 9.307038 6.159672 -9.137577 0 CFG=1 CHG=1
M  V30 7 C 7.941713 5.296145 -14.486280 0
M  V30 8 C 5.802665 6.969293 -12.964229 0
M  V30 9 C 5.034809 5.828329 -10.822255 0
M  V30 10 C 12.629178 9.331354 -4.491086 0
M  V30 11 C 9.623896 5.682767 -7.761033 0
M  V30 12 C 10.061338 7.390632 -9.471727 0
M  V30 13 C 7.143374 1.840671 -13.580572 0
M  V30 14 C 6.652832 4.641239 -12.336881 0 CFG=1
M  V30 15 C 10.784789 8.543384 -6.318928 0
M  V30 16 C 9.727438 8.532689 -8.515412 0
M  V30 17 C 9.381322 6.741684 -6.665971 0 CFG=2
M  V30 18 C 5.483475 5.623253 -12.283685 0 CFG=2
M  V30 19 C 11.953591 8.115134 -4.292069 0
M  V30 20 C 8.308424 4.421255 -10.683506 0
M  V30 21 N 11.431061 9.686649 -6.585777 0
M  V30 22 C 7.087264 4.232821 -13.769010 0 CFG=2
M  V30 23 C 5.824264 6.866043 -14.495335 0
M  V30 24 N 9.778255 8.101670 -7.118055 0
M  V30 25 C 12.335968 10.066768 -5.669646 0
M  V30 26 N 12.456849 6.599685 -2.228191 0
M  V30 27 C 9.552214 5.100071 -10.150126 0
M  V30 28 C 12.234826 7.274141 -3.138022 0
M  V30 29 C 8.093825 0.672090 -13.831376 0
M  V30 30 H 7.033626 6.304232 -16.162174 0
M  V30 31 H 7.829990 7.361295 -15.035252 0
M  V30 32 H 10.975439 5.686091 -5.420987 0
M  V30 33 H 9.676354 6.245816 -4.383304 0
M  V30 34 H 8.489401 4.814111 -15.297433 0
M  V30 35 H 8.720515 5.661704 -13.817039 0
M  V30 36 H 5.034552 7.689058 -12.688197 0
M  V30 37 H 6.733342 7.393431 -12.585580 0
M  V30 38 H 5.858057 6.169310 -10.208711 0
M  V30 39 H 4.235350 6.560500 -10.714621 0
M  V30 40 H 4.689990 4.905164 -10.366900 0
M  V30 41 H 13.370289 9.681411 -3.786285 0
M  V30 42 H 10.672725 5.380693 -7.734544 0
M  V30 43 H 9.031967 4.793906 -7.544815 0
M  V30 44 H 9.830718 7.705341 -10.490561 0
M  V30 45 H 11.131294 7.181661 -9.431196 0
M  V30 46 H 6.700493 1.751407 -12.589700 0
M  V30 47 H 6.328622 1.798309 -14.303527 0
M  V30 48 H 6.304086 3.754860 -11.806353 0
M  V30 49 H 8.729883 8.920755 -8.707990 0
M  V30 50 H 10.394286 9.366088 -8.738126 0
M  V30 51 H 8.314943 6.780669 -6.437789 0
M  V30 52 H 4.678469 5.133275 -12.830313 0
M  V30 53 H 8.634827 3.503365 -11.175768 0
M  V30 54 H 7.604891 4.169294 -9.888468 0
M  V30 55 H 6.211848 4.027300 -14.386814 0
M  V30 56 H 5.061368 6.167829 -14.840173 0
M  V30 57 H 5.531826 7.829557 -14.913784 0
M  V30 58 H 12.847676 10.969343 -5.891667 0
M  V30 59 H 10.104379 5.487034 -11.009247 0
M  V30 60 H 10.159067 4.317904 -9.699727 0
M  V30 61 H 7.550479 -0.270326 -13.776267 0
M  V30 62 H 8.537693 0.741750 -14.824374 0
M  V30 63 H 8.903669 0.649601 -13.100853 0
M  V30 64 H 8.326691 6.433857 -9.171954 0
M  V30 END ATOM
M  V30 BEGIN BOND
M  V30 1 1 4 1
M  V30 2 1 7 3
M  V30 3 1 11 6
M  V30 4 1 12 6
M  V30 5 1 13 5
M  V30 6 1 14 2
M  V30 7 1 15 1
M  V30 8 1 16 12
M  V30 9 1 17 4
M  V30 10 1 17 11
M  V30 11 1 18 8
M  V30 12 1 18 9
M  V30 13 1 18 14
M  V30 14 2 19 1
M  V30 15 1 19 10
M  V30 16 1 20 2
M  V30 17 2 21 15
M  V30 18 1 22 5
M  V30 19 1 22 7
M  V30 20 1 22 14
M  V30 21 1 23 3
M  V30 22 1 23 8
M  V30 23 1 24 15
M  V30 24 1 24 16
M  V30 25 1 24 17
M  V30 26 2 25 10
M  V30 27 1 25 21
M  V30 28 1 27 6
M  V30 29 1 27 20
M  V30 30 1 28 19
M  V30 31 3 28 26
M  V30 32 1 29 13
M  V30 33 1 30 3
M  V30 34 1 31 3
M  V30 35 1 32 4
M  V30 36 1 33 4
M  V30 37 1 34 7
M  V30 38 1 35 7
M  V30 39 1 36 8
M  V30 40 1 37 8
M  V30 41 1 38 9
M  V30 42 1 39 9
M  V30 43 1 40 9
M  V30 44 1 41 10
M  V30 45 1 42 11
M  V30 46 1 43 11
M  V30 47 1 44 12
M  V30 48 1 45 12
M  V30 49 1 46 13
M  V30 50 1 47 13
M  V30 51 1 14 48 CFG=1
M  V30 52 1 49 16
M  V30 53 1 50 16
M  V30 54 1 17 51 CFG=1
M  V30 55 1 18 52 CFG=3
M  V30 56 1 53 20
M  V30 57 1 54 20
M  V30 58 1 22 55 CFG=3
M  V30 59 1 56 23
M  V30 60 1 57 23
M  V30 61 1 58 25
M  V30 62 1 59 27
M  V30 63 1 60 27
M  V30 64 1 61 29
M  V30 65 1 62 29
M  V30 66 1 63 29
M  V30 67 1 6 64 CFG=1
M  V30 END BOND
M  V30 END CTAB
M  END
>  <i_epik_Tot_Q>  (1) 
1

>  <i_epik_Tot_abs_Q>  (1) 
1

>  <i_i_glide_confnum>  (1) 
339

>  <i_i_glide_lignum>  (1) 
74

>  <i_i_glide_posenum>  (1) 
56

>  <i_i_glide_rotatable_bonds>  (1) 
6

>  <i_lp_mmshare_version>  (1) 
72125

>  <i_m_source_file_index>  (1) 
30

>  <i_f3d_flags>  (1) 
0

>  <num_sample>  (1) 
50

>  <b_lp_Chiralities_Consistent>  (1) 
1

>  <r_epik_Charging_Adjusted_Penalty>  (1) 
1.0026227849201053

>  <r_epik_Ionization_Penalty>  (1) 
0.50131159217577048

>  <r_epik_Ionization_Penalty_Charging>  (1) 
0.50131139246005263

>  <r_epik_Ionization_Penalty_Neutral>  (1) 
1.9971571790720627e-07

>  <r_epik_State_Penalty>  (1) 
0.50131139246005263

>  <r_glide_ring_energy>  (1) 
0.9799809587009326

>  <r_i_docking_score>  (1) 
-5.5142239410471259

>  <r_i_glide_ecoul>  (1) 
-4.788294489236181

>  <r_i_glide_eff_state_penalty>  (1) 
0.50131139246005263

>  <r_i_glide_einternal>  (1) 
8.485426477404328

>  <r_i_glide_emodel>  (1) 
-38.06533469267756

>  <r_i_glide_emodel_strain>  (1) 
1.0933903292399805

>  <r_i_glide_energy>  (1) 
-33.175642126978858

>  <r_i_glide_erotb>  (1) 
0.6137117962777916

>  <r_i_glide_esite>  (1) 
-0.13384653732914484

>  <r_i_glide_evdw>  (1) 
-28.387347637742675

>  <r_i_glide_gscore>  (1) 
-6.0155353335071782

>  <r_i_glide_gscore_strain>  (1) 
0

>  <r_i_glide_hbond>  (1) 
-0.20000000000000001

>  <r_i_glide_ligand_efficiency>  (1) 
-0.19014565313955606

>  <r_i_glide_ligand_efficiency_ln>  (1) 
-1.2626174538453931

>  <r_i_glide_ligand_efficiency_sa>  (1) 
-0.58418768947168309

>  <r_i_glide_lipo>  (1) 
-2.5639857833984996

>  <r_i_glide_metal>  (1) 
-0

>  <r_i_glide_rewards>  (1) 
-1.5938032537847637

>  <r_lp_Energy>  (1) 
45.317810000000001

>  <s_epik_cmdline>  (1) 
J2VwaWtfcHl0aG9uJywgJy1waHQnLCAnMS4wJywgJy1waCcsICc3LjQnLCAnLXRuJywgJzgnLCAnLW1hJywgJzUwMCcsICctaW1hZScsICc8aW5maWxlLm1hZT4nLCAnLW9tYWUnLCAnPG91dGZpbGUubWFlPic=

>  <s_epik_input>  (1) 
TiNDYzFbY0hdW2NIXW5jKGMxMilOM1tDQEhdKFtDSDJdMilbQ0gyXU4oW0NIMl1bQ0gyXTMpW0NIMl1bQ0gyXU9bQ0BIXTRbQ0BASF0oW0NIM10pW0NIMl1bQ0gyXVtDSDJdW0NIMl1bQ0BIXTRPW0NIMl1bQ0gzXQ==

>  <s_glide_docking_method>  (1) 
confgen

>  <s_i_glide_gridfile>  (1) 
gpcr_drd2_6luq_protein_autoprepared_prepared

>  <s_lp_Force_Field>  (1) 
S-OPLS

>  <s_lp_Variant>  (1) 
DiffSBDD_29_num_sample_50-4

>  <s_m_source_file>  (1) 
generated__ligand_DiffSBDD_2026-05-06_prepared.sdf

>  <GenAI_Model>  (1) 
DiffSBDD

>  <Protein>  (1) 
generic_title2

$$$$
DiffSBDD_23_num_sample_50
     RDKit          3D

  0  0  0  0  0  0  0  0  0  0999 V3000
M  V30 BEGIN CTAB
M  V30 COUNTS 68 70 0 0 1
M  V30 BEGIN ATOM
M  V30 1 C 7.533801 5.107752 -9.277763 0
M  V30 2 C 10.250504 6.081263 -8.923331 0
M  V30 3 C 11.864299 8.853330 -4.256694 0
M  V30 4 C 11.631093 6.538727 -3.550191 0
M  V30 5 C 8.269538 4.964956 -7.932254 0
M  V30 6 C 12.164713 6.862056 -2.292642 0
M  V30 7 C 7.827802 5.272858 -12.860744 0 CFG=1
M  V30 8 O 5.108360 0.969286 -13.891404 0 CHG=-1
M  V30 9 C 9.411169 5.961153 -7.669910 0 CFG=2
M  V30 10 O 10.970568 7.178750 -5.749573 0
M  V30 11 C 6.154669 1.001712 -13.214525 0
M  V30 12 C 9.436973 6.505830 -10.139040 0
M  V30 13 C 7.469281 1.423875 -13.949673 0
M  V30 14 N 8.364386 5.527151 -10.441135 0 CFG=2 CHG=1
M  V30 15 O 6.234885 0.727662 -11.996121 0
M  V30 16 C 7.054715 5.945130 -14.012726 0
M  V30 17 C 7.510288 6.004649 -11.556660 0
M  V30 18 C 6.771686 3.722255 -15.091281 0
M  V30 19 C 7.460542 0.775010 -15.363861 0
M  V30 20 C 12.398185 9.171803 -2.997464 0
M  V30 21 C 9.035485 7.340887 -7.088171 0
M  V30 22 C 10.216361 8.113193 -6.493793 0
M  V30 23 C 8.699417 0.832682 -13.210276 0
M  V30 24 C 7.491327 3.767739 -12.721604 0
M  V30 25 C 6.374871 5.816668 -16.446415 0
M  V30 26 C 7.633403 2.994492 -14.051579 0 CFG=1
M  V30 27 C 7.206398 5.174606 -15.327555 0 CFG=1
M  V30 28 C 11.477655 7.526092 -4.532720 0
M  V30 29 C 12.548401 8.179622 -2.016686 0
M  V30 30 H 6.694422 5.768836 -9.148505 0
M  V30 31 H 7.061270 4.158327 -9.528199 0
M  V30 32 H 11.103881 6.742824 -8.773826 0
M  V30 33 H 10.633532 5.086880 -9.086927 0
M  V30 34 H 11.759443 9.622496 -5.008337 0
M  V30 35 H 11.337329 5.526586 -3.764590 0
M  V30 36 H 8.704760 3.968353 -7.891577 0
M  V30 37 H 7.542357 4.998302 -7.119427 0
M  V30 38 H 12.278867 6.096470 -1.541542 0
M  V30 39 H 8.892606 5.364169 -13.078468 0
M  V30 40 H 10.024859 5.449132 -6.932809 0
M  V30 41 H 9.041777 7.510592 -9.995509 0
M  V30 42 H 10.097506 6.566614 -11.005793 0
M  V30 43 H 5.994708 6.003901 -13.760409 0
M  V30 44 H 7.394815 6.975228 -14.141862 0
M  V30 45 H 6.449017 5.872029 -11.333105 0
M  V30 46 H 7.622397 7.081817 -11.694490 0
M  V30 47 H 6.759018 3.206797 -16.048770 0
M  V30 48 H 5.771502 3.769235 -14.691300 0
M  V30 49 H 8.332724 1.073202 -15.948534 0
M  V30 50 H 7.472550 -0.314667 -15.299059 0
M  V30 51 H 6.578501 1.032604 -15.951426 0
M  V30 52 H 12.695394 10.169353 -2.782757 0
M  V30 53 H 8.274321 7.215321 -6.318782 0
M  V30 54 H 8.634426 7.981699 -7.862631 0
M  V30 55 H 9.830367 8.934606 -5.892204 0
M  V30 56 H 10.845036 8.539382 -7.275712 0
M  V30 57 H 9.397339 0.348185 -13.886318 0
M  V30 58 H 9.280118 1.593605 -12.692561 0
M  V30 59 H 8.441452 0.063912 -12.488540 0
M  V30 60 H 8.139946 3.331581 -11.963672 0
M  V30 61 H 6.472877 3.653066 -12.348355 0
M  V30 62 H 5.310069 5.796125 -16.211885 0
M  V30 63 H 6.666570 6.852041 -16.607430 0
M  V30 64 H 6.505689 5.290810 -17.391103 0
M  V30 65 H 8.634706 3.168815 -14.410252 0
M  V30 66 H 8.252338 5.192642 -15.640346 0
M  V30 67 H 12.960591 8.432947 -1.053169 0
M  V30 68 H 8.827981 4.687488 -10.757887 0
M  V30 END ATOM
M  V30 BEGIN BOND
M  V30 1 1 5 1
M  V30 2 1 6 4
M  V30 3 1 9 2
M  V30 4 1 9 5
M  V30 5 1 11 8
M  V30 6 1 12 2
M  V30 7 1 13 11
M  V30 8 1 14 1
M  V30 9 1 14 12
M  V30 10 2 15 11
M  V30 11 1 16 7
M  V30 12 1 17 7
M  V30 13 1 17 14
M  V30 14 1 19 13
M  V30 15 2 20 3
M  V30 16 1 21 9
M  V30 17 1 22 10
M  V30 18 1 22 21
M  V30 19 1 23 13
M  V30 20 1 24 7
M  V30 21 1 26 13
M  V30 22 1 26 18
M  V30 23 1 26 24
M  V30 24 1 27 16
M  V30 25 1 27 18
M  V30 26 1 27 25
M  V30 27 1 28 3
M  V30 28 2 28 4
M  V30 29 1 28 10
M  V30 30 2 29 6
M  V30 31 1 29 20
M  V30 32 1 30 1
M  V30 33 1 31 1
M  V30 34 1 32 2
M  V30 35 1 33 2
M  V30 36 1 34 3
M  V30 37 1 35 4
M  V30 38 1 36 5
M  V30 39 1 37 5
M  V30 40 1 38 6
M  V30 41 1 7 39 CFG=3
M  V30 42 1 9 40 CFG=1
M  V30 43 1 41 12
M  V30 44 1 42 12
M  V30 45 1 43 16
M  V30 46 1 44 16
M  V30 47 1 45 17
M  V30 48 1 46 17
M  V30 49 1 47 18
M  V30 50 1 48 18
M  V30 51 1 49 19
M  V30 52 1 50 19
M  V30 53 1 51 19
M  V30 54 1 52 20
M  V30 55 1 53 21
M  V30 56 1 54 21
M  V30 57 1 55 22
M  V30 58 1 56 22
M  V30 59 1 57 23
M  V30 60 1 58 23
M  V30 61 1 59 23
M  V30 62 1 60 24
M  V30 63 1 61 24
M  V30 64 1 62 25
M  V30 65 1 63 25
M  V30 66 1 64 25
M  V30 67 1 26 65 CFG=3
M  V30 68 1 27 66 CFG=3
M  V30 69 1 67 29
M  V30 70 1 14 68 CFG=3
M  V30 END BOND
M  V30 END CTAB
M  END
>  <i_epik_Tot_Q>  (1) 
0

>  <i_epik_Tot_abs_Q>  (1) 
2

>  <i_i_glide_confnum>  (1) 
11

>  <i_i_glide_lignum>  (1) 
63

>  <i_i_glide_posenum>  (1) 
129

>  <i_i_glide_rotatable_bonds>  (1) 
8

>  <i_lp_mmshare_version>  (1) 
72125

>  <i_m_source_file_index>  (1) 
24

>  <i_f3d_flags>  (1) 
0

>  <num_sample>  (1) 
50

>  <b_lp_Chiralities_Consistent>  (1) 
1

>  <r_epik_Charging_Adjusted_Penalty>  (1) 
0.003094722008017318

>  <r_epik_Ionization_Penalty>  (1) 
0.003094722008017318

>  <r_epik_Ionization_Penalty_Charging>  (1) 
0.003094722008017318

>  <r_epik_Ionization_Penalty_Neutral>  (1) 
0

>  <r_epik_State_Penalty>  (1) 
-0

>  <r_glide_ring_energy>  (1) 
0

>  <r_i_docking_score>  (1) 
-5.5037034405936316

>  <r_i_glide_ecoul>  (1) 
-3.2391059009295149

>  <r_i_glide_eff_state_penalty>  (1) 
-0

>  <r_i_glide_einternal>  (1) 
11.991735759320811

>  <r_i_glide_emodel>  (1) 
-26.642436376976224

>  <r_i_glide_emodel_strain>  (1) 
5.2520313462192618

>  <r_i_glide_energy>  (1) 
-27.795672520698975

>  <r_i_glide_erotb>  (1) 
0.72975461734148295

>  <r_i_glide_esite>  (1) 
-0.083276709564659893

>  <r_i_glide_evdw>  (1) 
-24.556566619769459

>  <r_i_glide_gscore>  (1) 
-5.5037034405936316

>  <r_i_glide_gscore_strain>  (1) 
0.31300783655481546

>  <r_i_glide_hbond>  (1) 
0

>  <r_i_glide_ligand_efficiency>  (1) 
-0.18978287726184936

>  <r_i_glide_ligand_efficiency_ln>  (1) 
-1.2602085260184164

>  <r_i_glide_ligand_efficiency_sa>  (1) 
-0.58307312703865188

>  <r_i_glide_lipo>  (1) 
-3.0679296959363342

>  <r_i_glide_metal>  (1) 
-0

>  <r_i_glide_rewards>  (1) 
-1.6815652728610355

>  <r_lp_Energy>  (1) 
51.626332999999995

>  <r_lp_tautomer_probability>  (1) 
1

>  <s_epik_cmdline>  (1) 
J2VwaWtfcHl0aG9uJywgJy1waHQnLCAnMS4wJywgJy1waCcsICc3LjQnLCAnLXRuJywgJzgnLCAnLW1hJywgJzUwMCcsICctaW1hZScsICc8aW5maWxlLm1hZT4nLCAnLW9tYWUnLCAnPG91dGZpbGUubWFlPic=

>  <s_epik_input>  (1) 
W09IXUMoPU8pQyhbQ0gzXSkoW0NIM10pW0NASF0oW0NIMl0xKVtDSDJdW0NAQEhdKFtDSDNdKVtDSDJdW0NASF0xW0NIMl1OKFtDSDJdW0NIMl0yKVtDSDJdW0NIMl1bQ0hdMltDSDJdW0NIMl1PYzNbY0hdW2NIXVtjSF1bY0hdW2NIXTM=

>  <s_glide_docking_method>  (1) 
confgen

>  <s_i_glide_gridfile>  (1) 
gpcr_drd2_6luq_protein_autoprepared_prepared

>  <s_lp_Force_Field>  (1) 
S-OPLS

>  <s_lp_Variant>  (1) 
DiffSBDD_23_num_sample_50-2

>  <s_m_source_file>  (1) 
generated__ligand_DiffSBDD_2026-05-06_prepared.sdf

>  <GenAI_Model>  (1) 
DiffSBDD

>  <Protein>  (1) 
generic_title2

$$$$
DiffSBDD_11_num_sample_50
     RDKit          3D

  0  0  0  0  0  0  0  0  0  0999 V3000
M  V30 BEGIN CTAB
M  V30 COUNTS 69 72 0 0 1
M  V30 BEGIN ATOM
M  V30 1 C 8.827672 5.060678 -10.697731 0
M  V30 2 C 6.030648 6.529984 -16.385412 0
M  V30 3 C 10.330568 7.627017 -10.989238 0 CFG=1
M  V30 4 O 11.034826 6.569123 -2.468306 0
M  V30 5 C 7.121068 7.408208 -13.205530 0
M  V30 6 O 11.213139 6.969248 -11.892155 0
M  V30 7 C 11.496459 7.738370 -4.593896 0
M  V30 8 C 11.794683 7.613314 -3.086061 0 CFG=2
M  V30 9 C 6.888557 4.712945 -12.104906 0
M  V30 10 C 13.358415 8.282600 -1.437114 0
M  V30 11 C 9.223567 5.817792 -9.433915 0
M  V30 12 C 6.655742 6.211984 -17.759668 0
M  V30 13 C 7.467004 4.920428 -17.867906 0
M  V30 14 C 13.225156 7.410458 -2.691952 0
M  V30 15 C 6.192178 6.418526 -13.912200 0 CFG=2
M  V30 16 C 10.109617 7.972000 -8.449714 0
M  V30 17 O 10.154260 7.352813 -7.167545 0
M  V30 18 C 7.750258 5.138558 -15.394595 0
M  V30 19 N 7.745991 5.745971 -11.453267 0 CFG=2 CHG=1
M  V30 20 C 8.266443 6.786168 -12.393209 0 CFG=2
M  V30 21 F 6.634016 3.917640 -18.144338 0
M  V30 22 C 5.765771 5.282269 -12.975225 0
M  V30 23 C 11.398709 6.413302 -5.347302 0
M  V30 24 C 11.362427 6.668977 -6.854197 0
M  V30 25 F 8.349104 5.027303 -18.864786 0
M  V30 26 N 6.644248 6.015236 -15.272868 0
M  V30 27 O 11.522924 8.905516 -2.612385 0
M  V30 28 C 8.992553 7.952298 -11.673792 0
M  V30 29 C 12.068766 9.024634 -1.336923 0
M  V30 30 C 8.158830 4.629987 -16.568320 0
M  V30 31 O 5.039204 7.258716 -16.323992 0
M  V30 32 C 10.260891 6.954721 -9.599474 0 CFG=2
M  V30 33 F 9.232630 3.822915 -16.580351 0
M  V30 34 H 9.675829 4.821751 -11.339712 0
M  V30 35 H 8.462780 4.093998 -10.356275 0
M  V30 36 H 10.833636 8.569355 -10.803123 0
M  V30 37 H 11.210866 5.756692 -2.917726 0
M  V30 38 H 7.507773 8.129703 -13.927395 0
M  V30 39 H 6.514777 7.968603 -12.490307 0
M  V30 40 H 10.866826 6.130740 -12.151608 0
M  V30 41 H 10.554828 8.269482 -4.706691 0
M  V30 42 H 12.234320 8.406519 -5.037771 0
M  V30 43 H 7.501117 4.032069 -12.692497 0
M  V30 44 H 6.426981 4.093752 -11.332147 0
M  V30 45 H 14.193070 8.969257 -1.514758 0
M  V30 46 H 13.434380 7.702935 -0.521296 0
M  V30 47 H 9.627384 5.097824 -8.722288 0
M  V30 48 H 8.310830 6.171477 -8.950361 0
M  V30 49 H 5.878799 6.232194 -18.524003 0
M  V30 50 H 7.321277 7.042721 -17.979954 0
M  V30 51 H 13.432639 6.355542 -2.513621 0
M  V30 52 H 13.834293 7.769132 -3.508399 0
M  V30 53 H 5.270818 6.988847 -14.018659 0
M  V30 54 H 9.155314 8.493566 -8.535817 0
M  V30 55 H 10.887957 8.734590 -8.508892 0
M  V30 56 H 8.234701 4.913089 -14.464158 0
M  V30 57 H 8.974860 6.327155 -13.082925 0
M  V30 58 H 5.253400 4.493773 -13.527384 0
M  V30 59 H 5.034721 5.693263 -12.281015 0
M  V30 60 H 12.235634 5.767573 -5.102214 0
M  V30 61 H 10.495482 5.879095 -5.048809 0
M  V30 62 H 12.227336 7.260126 -7.153708 0
M  V30 63 H 11.416061 5.717882 -7.382291 0
M  V30 64 H 9.202874 8.725611 -12.411591 0
M  V30 65 H 8.327187 8.452864 -10.975203 0
M  V30 66 H 12.150240 10.045714 -0.963515 0
M  V30 67 H 11.434367 8.457613 -0.689795 0
M  V30 68 H 11.263853 6.568892 -9.463893 0
M  V30 69 H 7.173079 6.244786 -10.772752 0
M  V30 END ATOM
M  V30 BEGIN BOND
M  V30 1 1 6 3
M  V30 2 1 8 4 CFG=1
M  V30 3 1 8 7
M  V30 4 1 11 1
M  V30 5 1 12 2
M  V30 6 1 13 12
M  V30 7 1 14 8
M  V30 8 1 14 10
M  V30 9 1 15 5
M  V30 10 1 17 16
M  V30 11 1 19 1
M  V30 12 1 19 9
M  V30 13 1 20 5
M  V30 14 1 20 19
M  V30 15 1 21 13
M  V30 16 1 22 9
M  V30 17 1 22 15
M  V30 18 1 23 7
M  V30 19 1 24 17
M  V30 20 1 24 23
M  V30 21 1 25 13
M  V30 22 1 26 2
M  V30 23 1 26 15
M  V30 24 1 26 18
M  V30 25 1 27 8
M  V30 26 1 28 3
M  V30 27 1 28 20
M  V30 28 1 29 10
M  V30 29 1 29 27
M  V30 30 1 30 13
M  V30 31 2 30 18
M  V30 32 2 31 2
M  V30 33 1 32 3
M  V30 34 1 32 11
M  V30 35 1 32 16
M  V30 36 1 33 30
M  V30 37 1 34 1
M  V30 38 1 35 1
M  V30 39 1 3 36 CFG=1
M  V30 40 1 37 4
M  V30 41 1 38 5
M  V30 42 1 39 5
M  V30 43 1 40 6
M  V30 44 1 41 7
M  V30 45 1 42 7
M  V30 46 1 43 9
M  V30 47 1 44 9
M  V30 48 1 45 10
M  V30 49 1 46 10
M  V30 50 1 47 11
M  V30 51 1 48 11
M  V30 52 1 49 12
M  V30 53 1 50 12
M  V30 54 1 51 14
M  V30 55 1 52 14
M  V30 56 1 15 53 CFG=3
M  V30 57 1 54 16
M  V30 58 1 55 16
M  V30 59 1 56 18
M  V30 60 1 20 57 CFG=3
M  V30 61 1 58 22
M  V30 62 1 59 22
M  V30 63 1 60 23
M  V30 64 1 61 23
M  V30 65 1 62 24
M  V30 66 1 63 24
M  V30 67 1 64 28
M  V30 68 1 65 28
M  V30 69 1 66 29
M  V30 70 1 67 29
M  V30 71 1 32 68 CFG=1
M  V30 72 1 19 69 CFG=1
M  V30 END BOND
M  V30 END CTAB
M  END
>  <i_epik_Tot_Q>  (1) 
1

>  <i_epik_Tot_abs_Q>  (1) 
1

>  <i_i_glide_confnum>  (1) 
640

>  <i_i_glide_lignum>  (1) 
46

>  <i_i_glide_posenum>  (1) 
328

>  <i_i_glide_rotatable_bonds>  (1) 
9

>  <i_lp_mmshare_version>  (1) 
72125

>  <i_m_source_file_index>  (1) 
12

>  <i_f3d_flags>  (1) 
0

>  <num_sample>  (1) 
50

>  <b_lp_Chiralities_Consistent>  (1) 
1

>  <r_epik_Charging_Adjusted_Penalty>  (1) 
0.049597449479403345

>  <r_epik_Ionization_Penalty>  (1) 
0.024799209446341199

>  <r_epik_Ionization_Penalty_Charging>  (1) 
0.024798724739701669

>  <r_epik_Ionization_Penalty_Neutral>  (1) 
4.8470663953020042e-07

>  <r_epik_State_Penalty>  (1) 
0.024798724739701676

>  <r_glide_ring_energy>  (1) 
0.00027748208411692568

>  <r_i_docking_score>  (1) 
-5.4769539991538423

>  <r_i_glide_ecoul>  (1) 
-7.1639734612229136

>  <r_i_glide_eff_state_penalty>  (1) 
0.024798724739701676

>  <r_i_glide_einternal>  (1) 
7.32765222653995

>  <r_i_glide_emodel>  (1) 
-33.479291707309372

>  <r_i_glide_emodel_strain>  (1) 
0.53643893864089875

>  <r_i_glide_energy>  (1) 
-30.953794779308222

>  <r_i_glide_erotb>  (1) 
0.62180956458355674

>  <r_i_glide_esite>  (1) 
-0.067931794374873206

>  <r_i_glide_evdw>  (1) 
-23.789821318085309

>  <r_i_glide_gscore>  (1) 
-5.501752723893544

>  <r_i_glide_gscore_strain>  (1) 
0

>  <r_i_glide_hbond>  (1) 
-0.16404557682062643

>  <r_i_glide_ligand_efficiency>  (1) 
-0.16596830300466189

>  <r_i_glide_ligand_efficiency_ln>  (1) 
-1.2180462112617025

>  <r_i_glide_ligand_efficiency_sa>  (1) 
-0.53234902957860253

>  <r_i_glide_lipo>  (1) 
-1.6345696730161183

>  <r_i_glide_metal>  (1) 
-0

>  <r_i_glide_rewards>  (1) 
-1.9929281591777794

>  <r_lp_Energy>  (1) 
48.888842999999994

>  <s_epik_cmdline>  (1) 
J2VwaWtfcHl0aG9uJywgJy1waHQnLCAnMS4wJywgJy1waCcsICc3LjQnLCAnLXRuJywgJzgnLCAnLW1hJywgJzUwMCcsICctaW1hZScsICc8aW5maWxlLm1hZT4nLCAnLW9tYWUnLCAnPG91dGZpbGUubWFlPic=

>  <s_epik_input>  (1) 
TzFbQ0gyXVtDSDJdW0NIMl1bQ0BdMShbT0hdKVtDSDJdW0NIMl1bQ0gyXU9bQ0gyXVtDQEBIXShbQ0gyXVtDSDJdMilbQ0BASF0oW09IXSlbQ0gyXVtDQEBIXShOMjMpW0NIMl1bQ0BIXShbQ0gyXVtDSDJdMylOKFtDSF09QzRGKUMoPU8pW0NIMl1DNChGKUY=

>  <s_glide_docking_method>  (1) 
confgen

>  <s_i_glide_gridfile>  (1) 
gpcr_drd2_6luq_protein_autoprepared_prepared

>  <s_lp_Force_Field>  (1) 
S-OPLS

>  <s_lp_Variant>  (1) 
DiffSBDD_11_num_sample_50-2

>  <s_m_source_file>  (1) 
generated__ligand_DiffSBDD_2026-05-06_prepared.sdf

>  <GenAI_Model>  (1) 
DiffSBDD

>  <Protein>  (1) 
generic_title2

$$$$
DiffSBDD_7_num_sample_50
     RDKit          3D

  0  0  0  0  0  0  0  0  0  0999 V3000
M  V30 BEGIN CTAB
M  V30 COUNTS 63 67 0 0 1
M  V30 BEGIN ATOM
M  V30 1 C 9.874940 7.118545 -7.112662 0 CFG=1
M  V30 2 C 5.057063 7.369263 -18.619136 0
M  V30 3 C 5.618508 7.391525 -19.910219 0
M  V30 4 C 11.053212 8.858664 -8.344291 0
M  V30 5 C 5.799124 5.685012 -13.070334 0 CFG=2
M  V30 6 C 6.823454 6.709237 -20.166586 0
M  V30 7 C 8.793480 5.308584 -9.381952 0
M  V30 8 C 6.802450 4.558926 -12.772777 0 CFG=2
M  V30 9 C 8.012554 4.961228 -11.866209 0 CFG=2
M  V30 10 C 7.265747 7.299936 -14.691712 0
M  V30 11 C 5.089937 6.633683 -16.192482 0
M  V30 12 C 7.466461 6.001921 -19.132019 0
M  V30 13 C 8.259595 5.369182 -7.959671 0
M  V30 14 C 11.270244 6.645500 -7.375930 0 CFG=2
M  V30 15 C 10.894999 7.090954 -5.987325 0
M  V30 16 O 9.037349 3.994485 -11.973727 0
M  V30 17 C 6.905599 5.977402 -17.840375 0
M  V30 18 C 6.152314 6.912476 -13.826688 0 CFG=1
M  V30 19 C 7.201056 3.857482 -14.100935 0
M  V30 20 C 9.657508 8.410069 -7.875285 0
M  V30 21 C 11.899591 7.580420 -8.382562 0
M  V30 22 C 5.774548 7.511184 -15.145190 0 CFG=1
M  V30 23 C 7.634671 5.023528 -10.367521 0
M  V30 24 C 8.736956 6.169305 -6.984894 0
M  V30 25 C 7.308600 2.326194 -14.004737 0
M  V30 26 C 5.701421 6.664568 -17.580767 0
M  V30 27 C 5.818525 7.114377 -12.403681 0
M  V30 28 H 4.132026 7.892472 -18.425428 0
M  V30 29 H 5.124861 7.931931 -20.704210 0
M  V30 30 H 11.030346 9.369705 -9.306896 0
M  V30 31 H 11.480848 9.543528 -7.611936 0
M  V30 32 H 4.828063 5.286225 -13.351012 0
M  V30 33 H 7.253552 6.726619 -21.157333 0
M  V30 34 H 9.531831 4.508281 -9.422492 0
M  V30 35 H 9.305325 6.228050 -9.656972 0
M  V30 36 H 6.227459 3.823029 -12.209014 0
M  V30 37 H 8.432128 5.912553 -12.194514 0
M  V30 38 H 7.847826 6.499380 -15.135120 0
M  V30 39 H 7.831674 8.164862 -14.358734 0
M  V30 40 H 4.048807 6.939265 -16.291714 0
M  V30 41 H 5.069267 5.605467 -15.844030 0
M  V30 42 H 8.389163 5.476522 -19.329708 0
M  V30 43 H 7.435200 4.713663 -7.736951 0
M  V30 44 H 11.433240 5.579258 -7.506900 0
M  V30 45 H 10.793713 6.316389 -5.228827 0
M  V30 46 H 11.286951 8.039486 -5.626315 0
M  V30 47 H 9.764401 4.262219 -11.433627 0
M  V30 48 H 7.398005 5.430592 -17.050193 0
M  V30 49 H 6.458244 4.068582 -14.869179 0
M  V30 50 H 8.136654 4.268819 -14.479786 0
M  V30 51 H 9.034910 8.228483 -8.746549 0
M  V30 52 H 9.154310 9.147362 -7.252036 0
M  V30 53 H 12.948417 7.769279 -8.151313 0
M  V30 54 H 11.835788 7.121351 -9.369559 0
M  V30 55 H 5.481796 8.564288 -15.187892 0
M  V30 56 H 7.161302 4.087163 -10.079313 0
M  V30 57 H 6.856095 5.769068 -10.224092 0
M  V30 58 H 8.267509 6.128497 -6.015228 0
M  V30 59 H 7.566154 1.899075 -14.973604 0
M  V30 60 H 6.363571 1.882377 -13.689968 0
M  V30 61 H 8.074025 2.009773 -13.297367 0
M  V30 62 H 4.868722 7.589916 -12.171700 0
M  V30 63 H 6.646892 7.409529 -11.766115 0
M  V30 END ATOM
M  V30 BEGIN BOND
M  V30 1 1 3 2
M  V30 2 2 6 3
M  V30 3 1 8 5
M  V30 4 1 9 8
M  V30 5 1 12 6
M  V30 6 1 13 7
M  V30 7 1 14 1
M  V30 8 1 15 1
M  V30 9 1 15 14
M  V30 10 1 16 9
M  V30 11 2 17 12
M  V30 12 1 18 5
M  V30 13 1 18 10 CFG=1
M  V30 14 1 19 8
M  V30 15 1 20 1
M  V30 16 1 20 4
M  V30 17 1 21 4
M  V30 18 1 21 14
M  V30 19 1 22 10
M  V30 20 1 22 11
M  V30 21 1 22 18
M  V30 22 1 23 7
M  V30 23 1 23 9
M  V30 24 1 1 24 CFG=1
M  V30 25 2 24 13
M  V30 26 1 25 19
M  V30 27 2 26 2
M  V30 28 1 26 11
M  V30 29 1 26 17
M  V30 30 1 27 5
M  V30 31 1 27 18
M  V30 32 1 28 2
M  V30 33 1 29 3
M  V30 34 1 30 4
M  V30 35 1 31 4
M  V30 36 1 5 32 CFG=3
M  V30 37 1 33 6
M  V30 38 1 34 7
M  V30 39 1 35 7
M  V30 40 1 8 36 CFG=1
M  V30 41 1 9 37 CFG=3
M  V30 42 1 38 10
M  V30 43 1 39 10
M  V30 44 1 40 11
M  V30 45 1 41 11
M  V30 46 1 42 12
M  V30 47 1 43 13
M  V30 48 1 14 44 CFG=1
M  V30 49 1 45 15
M  V30 50 1 46 15
M  V30 51 1 47 16
M  V30 52 1 48 17
M  V30 53 1 49 19
M  V30 54 1 50 19
M  V30 55 1 51 20
M  V30 56 1 52 20
M  V30 57 1 53 21
M  V30 58 1 54 21
M  V30 59 1 22 55 CFG=1
M  V30 60 1 56 23
M  V30 61 1 57 23
M  V30 62 1 58 24
M  V30 63 1 59 25
M  V30 64 1 60 25
M  V30 65 1 61 25
M  V30 66 1 62 27
M  V30 67 1 63 27
M  V30 END BOND
M  V30 END CTAB
M  END
>  <i_epik_Tot_Q>  (1) 
0

>  <i_epik_Tot_abs_Q>  (1) 
0

>  <i_i_glide_confnum>  (1) 
138

>  <i_i_glide_lignum>  (1) 
16

>  <i_i_glide_posenum>  (1) 
84

>  <i_i_glide_rotatable_bonds>  (1) 
10

>  <i_lp_mmshare_version>  (1) 
72125

>  <i_m_source_file_index>  (1) 
8

>  <i_f3d_flags>  (1) 
0

>  <num_sample>  (1) 
50

>  <b_lp_Chiralities_Consistent>  (1) 
1

>  <r_epik_Charging_Adjusted_Penalty>  (1) 
0

>  <r_epik_Ionization_Penalty>  (1) 
5.611789062664276e-07

>  <r_epik_Ionization_Penalty_Charging>  (1) 
0

>  <r_epik_Ionization_Penalty_Neutral>  (1) 
5.611789062664276e-07

>  <r_epik_State_Penalty>  (1) 
-0

>  <r_glide_ring_energy>  (1) 
0

>  <r_i_docking_score>  (1) 
-5.4725086744310127

>  <r_i_glide_ecoul>  (1) 
-0.0012323083307972382

>  <r_i_glide_eff_state_penalty>  (1) 
-0

>  <r_i_glide_einternal>  (1) 
15.739142765944026

>  <r_i_glide_emodel>  (1) 
-36.231194106026507

>  <r_i_glide_emodel_strain>  (1) 
0.20323433619228126

>  <r_i_glide_energy>  (1) 
-33.786841350331862

>  <r_i_glide_erotb>  (1) 
1.0125554383439441

>  <r_i_glide_esite>  (1) 
0

>  <r_i_glide_evdw>  (1) 
-33.785609042001063

>  <r_i_glide_gscore>  (1) 
-5.4725086744310127

>  <r_i_glide_gscore_strain>  (1) 
0

>  <r_i_glide_hbond>  (1) 
0

>  <r_i_glide_ligand_efficiency>  (1) 
-0.20268550646040787

>  <r_i_glide_ligand_efficiency_ln>  (1) 
-1.2739097980508596

>  <r_i_glide_ligand_efficiency_sa>  (1) 
-0.60805651938122374

>  <r_i_glide_lipo>  (1) 
-2.9722548598798286

>  <r_i_glide_metal>  (1) 
-0

>  <r_i_glide_rewards>  (1) 
-1.8233439545454555

>  <r_lp_Energy>  (1) 
25.483521999999997

>  <r_lp_tautomer_probability>  (1) 
1

>  <s_epik_cmdline>  (1) 
J2VwaWtfcHl0aG9uJywgJy1waHQnLCAnMS4wJywgJy1waCcsICc3LjQnLCAnLXRuJywgJzgnLCAnLW1hJywgJzUwMCcsICctaW1hZScsICc8aW5maWxlLm1hZT4nLCAnLW9tYWUnLCAnPG91dGZpbGUubWFlPic=

>  <s_epik_input>  (1) 
W0NIMl0xW0NIMl1bQ0gyXVtDQEBIXShbQ0gyXTIpW0NAXTEyL1tDSF09W0NIXVxbQ0gyXVtDSDJdW0NAQEhdKFtPSF0pW0NASF0oW0NIMl1bQ0gzXSlbQ0BASF0oW0NIMl0zKVtDQF0zNFtDSDJdW0NASF00W0NIMl1jNVtjSF1bY0hdW2NIXVtjSF1bY0hdNQ==

>  <s_glide_docking_method>  (1) 
confgen

>  <s_i_glide_gridfile>  (1) 
gpcr_drd2_6luq_protein_autoprepared_prepared

>  <s_lp_Force_Field>  (1) 
S-OPLS

>  <s_lp_Variant>  (1) 
DiffSBDD_7_num_sample_50-1

>  <s_m_source_file>  (1) 
generated__ligand_DiffSBDD_2026-05-06_prepared.sdf

>  <GenAI_Model>  (1) 
DiffSBDD

>  <Protein>  (1) 
generic_title2

$$$$
DiffSBDD_11_num_sample_50
     RDKit          3D

  0  0  0  0  0  0  0  0  0  0999 V3000
M  V30 BEGIN CTAB
M  V30 COUNTS 69 72 0 0 1
M  V30 BEGIN ATOM
M  V30 1 C 7.696616 5.640659 -10.795762 0
M  V30 2 C 7.434833 3.292794 -15.869879 0
M  V30 3 C 10.364890 6.711095 -11.994751 0 CFG=1
M  V30 4 O 11.034839 10.061237 -4.058449 0
M  V30 5 C 7.999651 5.895314 -13.907212 0
M  V30 6 O 11.741497 6.969301 -12.182594 0
M  V30 7 C 12.197209 9.387077 -6.007088 0
M  V30 8 C 12.004685 9.146679 -4.495254 0 CFG=2
M  V30 9 C 6.662483 3.844098 -12.233479 0
M  V30 10 C 12.155596 7.591011 -2.658599 0
M  V30 11 C 8.964613 5.851585 -9.941392 0
M  V30 12 C 7.593340 2.682617 -17.279654 0
M  V30 13 C 8.015868 3.656726 -18.379850 0
M  V30 14 C 11.666040 7.692224 -4.098067 0
M  V30 15 C 6.737695 5.257447 -14.480400 0 CFG=2
M  V30 16 C 9.779684 8.291806 -10.152242 0
M  V30 17 O 9.834909 8.514560 -8.761032 0
M  V30 18 C 6.946129 5.403309 -16.954758 0
M  V30 19 N 7.896025 4.559757 -11.797303 0 CFG=1 CHG=1
M  V30 20 C 8.728812 4.931043 -12.960484 0 CFG=2
M  V30 21 F 9.339346 3.806531 -18.312475 0
M  V30 22 C 5.888737 4.532215 -13.393006 0
M  V30 23 C 10.989640 8.814438 -6.768110 0
M  V30 24 C 11.133660 8.808882 -8.278896 0
M  V30 25 F 7.706701 3.162728 -19.578601 0
M  V30 26 N 7.049095 4.610331 -15.787829 0
M  V30 27 O 13.174201 9.369303 -3.801473 0
M  V30 28 C 10.151462 5.343250 -12.622246 0
M  V30 29 C 12.961860 8.875554 -2.471804 0
M  V30 30 C 7.365437 4.991414 -18.159031 0
M  V30 31 O 7.606963 2.583590 -14.883101 0
M  V30 32 C 10.045692 6.821569 -10.488405 0 CFG=2
M  V30 33 F 7.212932 5.814661 -19.208936 0
M  V30 34 H 6.902065 5.331745 -10.114608 0
M  V30 35 H 7.350914 6.569285 -11.247080 0
M  V30 36 H 9.807670 7.460583 -12.556799 0
M  V30 37 H 11.021745 10.032473 -3.114860 0
M  V30 38 H 8.643254 6.169293 -14.739842 0
M  V30 39 H 7.749093 6.830027 -13.405384 0
M  V30 40 H 11.953125 6.836156 -13.095298 0
M  V30 41 H 12.279868 10.460790 -6.182285 0
M  V30 42 H 13.130025 8.969305 -6.363182 0
M  V30 43 H 6.961545 2.843675 -12.541699 0
M  V30 44 H 5.996931 3.680336 -11.384356 0
M  V30 45 H 12.783032 6.708463 -2.531196 0
M  V30 46 H 11.344668 7.529054 -1.931908 0
M  V30 47 H 9.424542 4.882372 -9.743429 0
M  V30 48 H 8.655278 6.205552 -8.956770 0
M  V30 49 H 8.286613 1.841479 -17.239653 0
M  V30 50 H 6.623692 2.256858 -17.538695 0
M  V30 51 H 10.634843 7.412621 -4.291684 0
M  V30 52 H 12.234846 6.998283 -4.703178 0
M  V30 53 H 6.097062 6.099357 -14.745559 0
M  V30 54 H 8.812438 8.608841 -10.542058 0
M  V30 55 H 10.536180 8.909240 -10.632793 0
M  V30 56 H 6.508434 6.376164 -16.788030 0
M  V30 57 H 8.896804 3.999868 -13.492091 0
M  V30 58 H 5.188506 3.832771 -13.847842 0
M  V30 59 H 5.266341 5.295403 -12.921838 0
M  V30 60 H 10.792583 7.780892 -6.490121 0
M  V30 61 H 10.094740 9.369292 -6.490042 0
M  V30 62 H 11.470785 9.769326 -8.663038 0
M  V30 63 H 11.868128 8.060978 -8.578376 0
M  V30 64 H 10.634579 4.566878 -12.030257 0
M  V30 65 H 10.634839 5.369310 -13.597511 0
M  V30 66 H 13.876260 8.710390 -1.910144 0
M  V30 67 H 12.376891 9.596816 -1.897541 0
M  V30 68 H 10.947107 6.569304 -9.935129 0
M  V30 69 H 8.422769 3.855907 -11.297311 0
M  V30 END ATOM
M  V30 BEGIN BOND
M  V30 1 1 6 3
M  V30 2 1 8 4 CFG=1
M  V30 3 1 8 7
M  V30 4 1 11 1
M  V30 5 1 12 2
M  V30 6 1 13 12
M  V30 7 1 14 8
M  V30 8 1 14 10
M  V30 9 1 15 5
M  V30 10 1 17 16
M  V30 11 1 19 1
M  V30 12 1 19 9
M  V30 13 1 20 5
M  V30 14 1 20 19
M  V30 15 1 21 13
M  V30 16 1 22 9
M  V30 17 1 22 15
M  V30 18 1 23 7
M  V30 19 1 24 17
M  V30 20 1 24 23
M  V30 21 1 25 13
M  V30 22 1 26 2
M  V30 23 1 26 15
M  V30 24 1 26 18
M  V30 25 1 27 8
M  V30 26 1 28 3
M  V30 27 1 28 20
M  V30 28 1 29 10
M  V30 29 1 29 27
M  V30 30 1 30 13
M  V30 31 2 30 18
M  V30 32 2 31 2
M  V30 33 1 32 3
M  V30 34 1 32 11
M  V30 35 1 32 16
M  V30 36 1 33 30
M  V30 37 1 34 1
M  V30 38 1 35 1
M  V30 39 1 3 36 CFG=3
M  V30 40 1 37 4
M  V30 41 1 38 5
M  V30 42 1 39 5
M  V30 43 1 40 6
M  V30 44 1 41 7
M  V30 45 1 42 7
M  V30 46 1 43 9
M  V30 47 1 44 9
M  V30 48 1 45 10
M  V30 49 1 46 10
M  V30 50 1 47 11
M  V30 51 1 48 11
M  V30 52 1 49 12
M  V30 53 1 50 12
M  V30 54 1 51 14
M  V30 55 1 52 14
M  V30 56 1 15 53 CFG=3
M  V30 57 1 54 16
M  V30 58 1 55 16
M  V30 59 1 56 18
M  V30 60 1 20 57 CFG=3
M  V30 61 1 58 22
M  V30 62 1 59 22
M  V30 63 1 60 23
M  V30 64 1 61 23
M  V30 65 1 62 24
M  V30 66 1 63 24
M  V30 67 1 64 28
M  V30 68 1 65 28
M  V30 69 1 66 29
M  V30 70 1 67 29
M  V30 71 1 32 68 CFG=1
M  V30 72 1 19 69 CFG=1
M  V30 END BOND
M  V30 END CTAB
M  END
>  <i_epik_Tot_Q>  (1) 
1

>  <i_epik_Tot_abs_Q>  (1) 
1

>  <i_i_glide_confnum>  (1) 
957

>  <i_i_glide_lignum>  (1) 
45

>  <i_i_glide_posenum>  (1) 
259

>  <i_i_glide_rotatable_bonds>  (1) 
9

>  <i_lp_mmshare_version>  (1) 
72125

>  <i_m_source_file_index>  (1) 
12

>  <i_f3d_flags>  (1) 
0

>  <num_sample>  (1) 
50

>  <b_lp_Chiralities_Consistent>  (1) 
1

>  <r_epik_Charging_Adjusted_Penalty>  (1) 
0.049597449479403345

>  <r_epik_Ionization_Penalty>  (1) 
0.024799209446341199

>  <r_epik_Ionization_Penalty_Charging>  (1) 
0.024798724739701669

>  <r_epik_Ionization_Penalty_Neutral>  (1) 
4.8470663953020042e-07

>  <r_epik_State_Penalty>  (1) 
0.024798724739701676

>  <r_glide_ring_energy>  (1) 
0.0002774820840286173

>  <r_i_docking_score>  (1) 
-5.4650028357154081

>  <r_i_glide_ecoul>  (1) 
-5.5440630669499615

>  <r_i_glide_eff_state_penalty>  (1) 
0.024798724739701676

>  <r_i_glide_einternal>  (1) 
7.0512687731530681

>  <r_i_glide_emodel>  (1) 
-39.664651058427793

>  <r_i_glide_emodel_strain>  (1) 
0.66326012400293166

>  <r_i_glide_energy>  (1) 
-33.099958958995252

>  <r_i_glide_erotb>  (1) 
0.62180956458355674

>  <r_i_glide_esite>  (1) 
0

>  <r_i_glide_evdw>  (1) 
-27.555895892045292

>  <r_i_glide_gscore>  (1) 
-5.4898015604551098

>  <r_i_glide_gscore_strain>  (1) 
0

>  <r_i_glide_hbond>  (1) 
0

>  <r_i_glide_ligand_efficiency>  (1) 
-0.16560614653683056

>  <r_i_glide_ligand_efficiency_ln>  (1) 
-1.2153883343928071

>  <r_i_glide_ligand_efficiency_sa>  (1) 
-0.5311874002752035

>  <r_i_glide_lipo>  (1) 
-2.4850177250711418

>  <r_i_glide_metal>  (1) 
-0

>  <r_i_glide_rewards>  (1) 
-1.4171891453227661

>  <r_lp_Energy>  (1) 
43.003907999999996

>  <s_epik_cmdline>  (1) 
J2VwaWtfcHl0aG9uJywgJy1waHQnLCAnMS4wJywgJy1waCcsICc3LjQnLCAnLXRuJywgJzgnLCAnLW1hJywgJzUwMCcsICctaW1hZScsICc8aW5maWxlLm1hZT4nLCAnLW9tYWUnLCAnPG91dGZpbGUubWFlPic=

>  <s_epik_input>  (1) 
TzFbQ0gyXVtDSDJdW0NIMl1bQ0BdMShbT0hdKVtDSDJdW0NIMl1bQ0gyXU9bQ0gyXVtDQEBIXShbQ0gyXVtDSDJdMilbQ0BASF0oW09IXSlbQ0gyXVtDQEBIXShOMjMpW0NIMl1bQ0BIXShbQ0gyXVtDSDJdMylOKFtDSF09QzRGKUMoPU8pW0NIMl1DNChGKUY=

>  <s_glide_docking_method>  (1) 
confgen

>  <s_i_glide_gridfile>  (1) 
gpcr_drd2_6luq_protein_autoprepared_prepared

>  <s_lp_Force_Field>  (1) 
S-OPLS

>  <s_lp_Variant>  (1) 
DiffSBDD_11_num_sample_50-1

>  <s_m_source_file>  (1) 
generated__ligand_DiffSBDD_2026-05-06_prepared.sdf

>  <GenAI_Model>  (1) 
DiffSBDD

>  <Protein>  (1) 
generic_title2

$$$$
DiffSBDD_38_num_sample_50
     RDKit          3D

  0  0  0  0  0  0  0  0  0  0999 V3000
M  V30 BEGIN CTAB
M  V30 COUNTS 60 62 0 0 1
M  V30 BEGIN ATOM
M  V30 1 C 5.434878 0.405184 -18.722808 0
M  V30 2 O 4.634861 -1.202930 -17.127401 0
M  V30 3 S 7.400285 0.910008 -13.759712 0
M  V30 4 F 9.742546 8.333795 -8.189508 0
M  V30 5 C 9.126763 5.437170 -9.901926 0 CFG=1
M  V30 6 C 6.634024 0.526599 -20.951034 0
M  V30 7 C 9.435107 7.599392 -11.089941 0
M  V30 8 C 8.286798 3.886704 -13.725841 0
M  V30 9 C 6.816297 0.353424 -19.434811 0 CFG=1
M  V30 10 C 7.434851 1.960124 -15.078721 0
M  V30 11 N 6.333259 0.112497 -16.456808 0
M  V30 12 C 8.241564 5.805870 -12.169409 0
M  V30 13 C 7.755866 4.194672 -16.151136 0
M  V30 14 C 5.430184 -0.298214 -17.355331 0
M  V30 15 F 10.687298 6.427799 -7.910486 0
M  V30 16 O 9.385176 1.114320 -17.091987 0
M  V30 17 C 7.462813 5.126010 -13.301681 0 CFG=2
M  V30 18 O 8.479511 4.978089 -11.080950 0
M  V30 19 C 6.083006 4.689049 -12.766812 0
M  V30 20 O 12.288999 7.990616 -10.259473 0
M  V30 21 C 8.695611 7.072325 -12.183584 0
M  V30 22 N 12.490838 8.569350 -8.098811 0
M  V30 23 C 7.284903 6.072679 -14.528518 0
M  V30 24 C 8.215986 1.276226 -17.435026 0
M  V30 25 C 11.835335 8.015783 -9.118718 0
M  V30 26 C 7.862169 1.381320 -18.923479 0
M  V30 27 C 9.667130 6.863117 -10.004410 0
M  V30 28 C 7.021458 1.407433 -16.472508 0 CFG=2
M  V30 29 N 7.797511 3.295146 -14.988972 0
M  V30 30 C 6.832284 5.369282 -15.811401 0
M  V30 31 N 8.234846 5.368818 -8.792203 0
M  V30 32 C 10.464000 7.394707 -8.804878 0
M  V30 33 H 5.069684 1.428940 -18.638981 0
M  V30 34 H 4.695014 -0.111995 -19.336586 0
M  V30 35 H 9.958469 4.760594 -9.721079 0
M  V30 36 H 6.209838 1.501417 -21.191268 0
M  V30 37 H 7.587218 0.438128 -21.472851 0
M  V30 38 H 5.966466 -0.232797 -21.361695 0
M  V30 39 H 9.815519 8.596840 -11.143584 0
M  V30 40 H 9.312049 4.206936 -13.917160 0
M  V30 41 H 8.374674 3.210906 -12.878061 0
M  V30 42 H 7.235896 -0.643541 -19.283760 0
M  V30 43 H 6.388187 -0.407033 -15.589438 0
M  V30 44 H 8.767680 4.566012 -16.319270 0
M  V30 45 H 7.443252 3.776074 -17.100859 0
M  V30 46 H 5.503331 4.155089 -13.519411 0
M  V30 47 H 6.182294 4.021901 -11.909069 0
M  V30 48 H 5.496149 5.548732 -12.443737 0
M  V30 49 H 8.509177 7.702154 -13.036871 0
M  V30 50 H 13.394589 8.990679 -8.255050 0
M  V30 51 H 12.079916 8.568977 -7.177325 0
M  V30 52 H 6.598975 6.886449 -14.288089 0
M  V30 53 H 8.234561 6.535476 -14.783494 0
M  V30 54 H 7.500155 2.392491 -19.110245 0
M  V30 55 H 6.295815 2.113613 -16.873944 0
M  V30 56 H 6.806310 6.078445 -16.639454 0
M  V30 57 H 5.819756 5.008312 -15.678164 0
M  V30 58 H 8.695530 5.633422 -7.934331 0
M  V30 59 H 7.488624 6.053794 -8.916907 0
M  V30 60 H 8.783636 1.277863 -19.497398 0
M  V30 END ATOM
M  V30 BEGIN BOND
M  V30 1 1 9 1
M  V30 2 1 9 6
M  V30 3 2 10 3
M  V30 4 1 14 1
M  V30 5 2 14 2
M  V30 6 1 14 11
M  V30 7 1 17 8
M  V30 8 1 17 12
M  V30 9 1 18 5
M  V30 10 1 18 12
M  V30 11 1 17 19 CFG=1
M  V30 12 1 21 7
M  V30 13 2 21 12
M  V30 14 1 23 17
M  V30 15 2 24 16
M  V30 16 2 25 20
M  V30 17 1 25 22
M  V30 18 1 26 9
M  V30 19 1 26 24
M  V30 20 1 27 5
M  V30 21 2 27 7
M  V30 22 1 28 10
M  V30 23 1 28 11
M  V30 24 1 28 24
M  V30 25 1 29 8
M  V30 26 1 29 10
M  V30 27 1 29 13
M  V30 28 1 30 13
M  V30 29 1 30 23
M  V30 30 1 31 5
M  V30 31 1 32 4
M  V30 32 1 32 15
M  V30 33 1 32 25
M  V30 34 1 32 27
M  V30 35 1 33 1
M  V30 36 1 34 1
M  V30 37 1 5 35 CFG=1
M  V30 38 1 36 6
M  V30 39 1 37 6
M  V30 40 1 38 6
M  V30 41 1 39 7
M  V30 42 1 40 8
M  V30 43 1 41 8
M  V30 44 1 9 42 CFG=3
M  V30 45 1 43 11
M  V30 46 1 44 13
M  V30 47 1 45 13
M  V30 48 1 46 19
M  V30 49 1 47 19
M  V30 50 1 48 19
M  V30 51 1 49 21
M  V30 52 1 50 22
M  V30 53 1 51 22
M  V30 54 1 52 23
M  V30 55 1 53 23
M  V30 56 1 54 26
M  V30 57 1 28 55 CFG=3
M  V30 58 1 56 30
M  V30 59 1 57 30
M  V30 60 1 58 31
M  V30 61 1 59 31
M  V30 62 1 60 26
M  V30 END BOND
M  V30 END CTAB
M  END
>  <i_epik_Tot_Q>  (1) 
0

>  <i_epik_Tot_abs_Q>  (1) 
0

>  <i_i_glide_confnum>  (1) 
99

>  <i_i_glide_lignum>  (1) 
93

>  <i_i_glide_posenum>  (1) 
87

>  <i_i_glide_rotatable_bonds>  (1) 
5

>  <i_lp_mmshare_version>  (1) 
72125

>  <i_m_source_file_index>  (1) 
39

>  <i_f3d_flags>  (1) 
0

>  <num_sample>  (1) 
50

>  <b_lp_Chiralities_Consistent>  (1) 
1

>  <r_epik_Charging_Adjusted_Penalty>  (1) 
0.0043173356697657605

>  <r_epik_Ionization_Penalty>  (1) 
2.5101429145755949

>  <r_epik_Ionization_Penalty_Charging>  (1) 
0

>  <r_epik_Ionization_Penalty_Neutral>  (1) 
2.5101429145755949

>  <r_epik_State_Penalty>  (1) 
0.0043173356697657605

>  <r_glide_ring_energy>  (1) 
0.024453031346160229

>  <r_i_docking_score>  (1) 
-5.4609000522027724

>  <r_i_glide_ecoul>  (1) 
-1.3075338445577642

>  <r_i_glide_eff_state_penalty>  (1) 
0.0043173356697657605

>  <r_i_glide_einternal>  (1) 
2.5606680560037844

>  <r_i_glide_emodel>  (1) 
-61.279990913543919

>  <r_i_glide_emodel_strain>  (1) 
0.16569830253747142

>  <r_i_glide_energy>  (1) 
-47.141035499597137

>  <r_i_glide_erotb>  (1) 
0.36503894659470715

>  <r_i_glide_esite>  (1) 
-0.11395480496940472

>  <r_i_glide_evdw>  (1) 
-45.83350165503937

>  <r_i_glide_gscore>  (1) 
-5.4652173878725385

>  <r_i_glide_gscore_strain>  (1) 
0

>  <r_i_glide_hbond>  (1) 
-0.19176392019909877

>  <r_i_glide_ligand_efficiency>  (1) 
-0.17065312663133664

>  <r_i_glide_ligand_efficiency_ln>  (1) 
-1.2228443802015121

>  <r_i_glide_ligand_efficiency_sa>  (1) 
-0.54178990547249239

>  <r_i_glide_lipo>  (1) 
-0.89993482877595021

>  <r_i_glide_metal>  (1) 
-0

>  <r_i_glide_rewards>  (1) 
-2.1367976210871591

>  <r_lp_Energy>  (1) 
65.752579999999995

>  <r_lp_tautomer_probability>  (1) 
0.99999998000000001

>  <s_epik_Chemistry_Notes>  (1) 
This compound contains an acetal/aminal-like group ( X-CH(R)-Y where X, Y are N, S, or O) that may be acid/base labile, releasing an aldehyde.

>  <s_epik_cmdline>  (1) 
J2VwaWtfcHl0aG9uJywgJy1waHQnLCAnMS4wJywgJy1waCcsICc3LjQnLCAnLXRuJywgJzgnLCAnLW1hJywgJzUwMCcsICctaW1hZScsICc8aW5maWxlLm1hZT4nLCAnLW9tYWUnLCAnPG91dGZpbGUubWFlPic=

>  <s_epik_input>  (1) 
W0NIM11bQ0BASF0xW0NIMl1DKD1PKVtOSF1bQ0BIXShDKD1PKVtDSDJdMSlDKD1TKU4oW0NIMl1bQ0gyXVtDSDJdMilbQ0gyXVtDQEBdMihbQ0gzXSlDKE9bQ0BASF0zW05IMl0pPVtDSF1bQ0hdPUMzQyhGKShGKUMoPU8pW05IMl0=

>  <s_glide_docking_method>  (1) 
confgen

>  <s_i_glide_gridfile>  (1) 
gpcr_drd2_6luq_protein_autoprepared_prepared

>  <s_lp_Force_Field>  (1) 
S-OPLS

>  <s_lp_Variant>  (1) 
DiffSBDD_38_num_sample_50-1

>  <s_m_source_file>  (1) 
generated__ligand_DiffSBDD_2026-05-06_prepared.sdf

>  <GenAI_Model>  (1) 
DiffSBDD

>  <Protein>  (1) 
generic_title2

$$$$
DiffSBDD_38_num_sample_50
     RDKit          3D

  0  0  0  0  0  0  0  0  0  0999 V3000
M  V30 BEGIN CTAB
M  V30 COUNTS 60 62 0 0 1
M  V30 BEGIN ATOM
M  V30 1 C 5.452655 0.202740 -18.873923 0
M  V30 2 O 4.234847 -1.334287 -17.491624 0
M  V30 3 S 6.676808 0.569301 -13.629657 0
M  V30 4 F 9.481036 8.917896 -8.928397 0
M  V30 5 C 9.438086 7.426448 -11.455859 0 CFG=2
M  V30 6 C 7.220753 -1.570254 -19.520203 0
M  V30 7 C 9.007249 5.606664 -9.809691 0
M  V30 8 C 8.234803 3.256636 -13.529538 0
M  V30 9 C 6.887726 -0.068139 -19.410950 0 CFG=2
M  V30 10 C 7.166250 1.478791 -14.958853 0
M  V30 11 N 5.850284 -0.144538 -16.466182 0
M  V30 12 C 8.342723 5.346415 -12.123437 0
M  V30 13 C 8.156777 3.505588 -16.034314 0
M  V30 14 C 5.121185 -0.492585 -17.540994 0
M  V30 15 F 9.749466 7.191854 -7.731897 0
M  V30 16 O 9.030271 -0.102032 -16.691682 0
M  V30 17 C 7.653080 4.670884 -13.316669 0 CFG=2
M  V30 18 O 8.924881 6.557773 -12.433167 0
M  V30 19 C 6.140165 4.576412 -13.015427 0
M  V30 20 O 12.234787 7.769239 -7.854349 0
M  V30 21 C 8.393857 4.859321 -10.870044 0
M  V30 22 N 12.130263 8.569296 -9.943244 0
M  V30 23 C 7.873821 5.533757 -14.596623 0
M  V30 24 C 8.067575 0.486316 -17.173232 0
M  V30 25 C 11.584341 8.018449 -8.863650 0
M  V30 26 C 8.007068 0.719594 -18.685322 0
M  V30 27 C 9.495067 6.829700 -10.040928 0
M  V30 28 C 6.822453 0.954167 -16.389585 0 CFG=2
M  V30 29 N 7.832398 2.691974 -14.850540 0
M  V30 30 C 7.448485 4.853954 -15.900874 0
M  V30 31 N 8.634842 8.586622 -11.491667 0
M  V30 32 C 10.074287 7.723767 -8.914289 0
M  V30 33 H 5.259224 1.273016 -18.797401 0
M  V30 34 H 4.735852 -0.159269 -19.613142 0
M  V30 35 H 10.447545 7.668526 -11.780553 0
M  V30 36 H 7.301098 -2.049072 -18.543832 0
M  V30 37 H 6.455228 -2.101902 -20.085344 0
M  V30 38 H 8.170295 -1.722904 -20.033763 0
M  V30 39 H 9.028488 5.197151 -8.811201 0
M  V30 40 H 9.315880 3.369322 -13.491665 0
M  V30 41 H 8.009903 2.644812 -12.660974 0
M  V30 42 H 6.887891 0.306267 -20.435655 0
M  V30 43 H 5.662823 -0.635020 -15.600559 0
M  V30 44 H 9.234244 3.670752 -16.052166 0
M  V30 45 H 7.919981 3.091815 -17.006640 0
M  V30 46 H 5.585810 4.111741 -13.830279 0
M  V30 47 H 5.946361 3.984345 -12.120169 0
M  V30 48 H 5.711072 5.565637 -12.848787 0
M  V30 49 H 7.934931 3.910743 -10.651060 0
M  V30 50 H 13.113768 8.802472 -9.946189 0
M  V30 51 H 11.555789 8.781107 -10.743205 0
M  V30 52 H 7.366026 6.495203 -14.503170 0
M  V30 53 H 8.936188 5.758967 -14.701971 0
M  V30 54 H 7.871057 1.786470 -18.861055 0
M  V30 55 H 6.341217 1.783529 -16.905302 0
M  V30 56 H 7.701281 5.491295 -16.748471 0
M  V30 57 H 6.367749 4.727509 -15.921648 0
M  V30 58 H 8.201160 8.684310 -12.397398 0
M  V30 59 H 7.860474 8.461062 -10.832391 0
M  V30 60 H 8.975016 0.462556 -19.116593 0
M  V30 END ATOM
M  V30 BEGIN BOND
M  V30 1 1 9 1
M  V30 2 1 9 6
M  V30 3 2 10 3
M  V30 4 1 14 1
M  V30 5 2 14 2
M  V30 6 1 14 11
M  V30 7 1 17 8
M  V30 8 1 17 12
M  V30 9 1 18 5
M  V30 10 1 18 12
M  V30 11 1 17 19 CFG=1
M  V30 12 1 21 7
M  V30 13 2 21 12
M  V30 14 1 23 17
M  V30 15 2 24 16
M  V30 16 2 25 20
M  V30 17 1 25 22
M  V30 18 1 26 9
M  V30 19 1 26 24
M  V30 20 1 27 5
M  V30 21 2 27 7
M  V30 22 1 28 10
M  V30 23 1 28 11
M  V30 24 1 28 24
M  V30 25 1 29 8
M  V30 26 1 29 10
M  V30 27 1 29 13
M  V30 28 1 30 13
M  V30 29 1 30 23
M  V30 30 1 31 5
M  V30 31 1 32 4
M  V30 32 1 32 15
M  V30 33 1 32 25
M  V30 34 1 32 27
M  V30 35 1 33 1
M  V30 36 1 34 1
M  V30 37 1 5 35 CFG=3
M  V30 38 1 36 6
M  V30 39 1 37 6
M  V30 40 1 38 6
M  V30 41 1 39 7
M  V30 42 1 40 8
M  V30 43 1 41 8
M  V30 44 1 9 42 CFG=3
M  V30 45 1 43 11
M  V30 46 1 44 13
M  V30 47 1 45 13
M  V30 48 1 46 19
M  V30 49 1 47 19
M  V30 50 1 48 19
M  V30 51 1 49 21
M  V30 52 1 50 22
M  V30 53 1 51 22
M  V30 54 1 52 23
M  V30 55 1 53 23
M  V30 56 1 54 26
M  V30 57 1 28 55 CFG=3
M  V30 58 1 56 30
M  V30 59 1 57 30
M  V30 60 1 58 31
M  V30 61 1 59 31
M  V30 62 1 60 26
M  V30 END BOND
M  V30 END CTAB
M  END
>  <i_epik_Tot_Q>  (1) 
0

>  <i_epik_Tot_abs_Q>  (1) 
0

>  <i_i_glide_confnum>  (1) 
83

>  <i_i_glide_lignum>  (1) 
96

>  <i_i_glide_posenum>  (1) 
154

>  <i_i_glide_rotatable_bonds>  (1) 
5

>  <i_lp_mmshare_version>  (1) 
72125

>  <i_m_source_file_index>  (1) 
39

>  <i_f3d_flags>  (1) 
0

>  <num_sample>  (1) 
50

>  <b_lp_Chiralities_Consistent>  (1) 
1

>  <r_epik_Charging_Adjusted_Penalty>  (1) 
0.0043173356697657605

>  <r_epik_Ionization_Penalty>  (1) 
2.5101429145755949

>  <r_epik_Ionization_Penalty_Charging>  (1) 
0

>  <r_epik_Ionization_Penalty_Neutral>  (1) 
2.5101429145755949

>  <r_epik_State_Penalty>  (1) 
0.0043173356697657605

>  <r_glide_ring_energy>  (1) 
0.02445303134611268

>  <r_i_docking_score>  (1) 
-5.456851408461219

>  <r_i_glide_ecoul>  (1) 
-3.3209881811009097

>  <r_i_glide_eff_state_penalty>  (1) 
0.0043173356697657605

>  <r_i_glide_einternal>  (1) 
6.0236986391360876

>  <r_i_glide_emodel>  (1) 
-53.800870285450621

>  <r_i_glide_emodel_strain>  (1) 
1.932777450950546

>  <r_i_glide_energy>  (1) 
-45.437797573005518

>  <r_i_glide_erotb>  (1) 
0.36503894659470715

>  <r_i_glide_esite>  (1) 
-0.22183381145567851

>  <r_i_glide_evdw>  (1) 
-42.11680939190461

>  <r_i_glide_gscore>  (1) 
-5.4611687441309851

>  <r_i_glide_gscore_strain>  (1) 
0

>  <r_i_glide_hbond>  (1) 
-0.16

>  <r_i_glide_ligand_efficiency>  (1) 
-0.17052660651441309

>  <r_i_glide_ligand_efficiency_ln>  (1) 
-1.221937778505918

>  <r_i_glide_ligand_efficiency_sa>  (1) 
-0.54138822913909324

>  <r_i_glide_lipo>  (1) 
-0.969904080958784

>  <r_i_glide_metal>  (1) 
-0

>  <r_i_glide_rewards>  (1) 
-1.8704811015508631

>  <r_lp_Energy>  (1) 
72.958390999999992

>  <r_lp_tautomer_probability>  (1) 
0.99999998000000001

>  <s_epik_Chemistry_Notes>  (1) 
This compound contains an acetal/aminal-like group ( X-CH(R)-Y where X, Y are N, S, or O) that may be acid/base labile, releasing an aldehyde.

>  <s_epik_cmdline>  (1) 
J2VwaWtfcHl0aG9uJywgJy1waHQnLCAnMS4wJywgJy1waCcsICc3LjQnLCAnLXRuJywgJzgnLCAnLW1hJywgJzUwMCcsICctaW1hZScsICc8aW5maWxlLm1hZT4nLCAnLW9tYWUnLCAnPG91dGZpbGUubWFlPic=

>  <s_epik_input>  (1) 
W0NIM11bQ0BASF0xW0NIMl1DKD1PKVtOSF1bQ0BIXShDKD1PKVtDSDJdMSlDKD1TKU4oW0NIMl1bQ0gyXVtDSDJdMilbQ0gyXVtDQEBdMihbQ0gzXSlDKE9bQ0BASF0zW05IMl0pPVtDSF1bQ0hdPUMzQyhGKShGKUMoPU8pW05IMl0=

>  <s_glide_docking_method>  (1) 
confgen

>  <s_i_glide_gridfile>  (1) 
gpcr_drd2_6luq_protein_autoprepared_prepared

>  <s_lp_Force_Field>  (1) 
S-OPLS

>  <s_lp_Variant>  (1) 
DiffSBDD_38_num_sample_50-4

>  <s_m_source_file>  (1) 
generated__ligand_DiffSBDD_2026-05-06_prepared.sdf

>  <GenAI_Model>  (1) 
DiffSBDD

>  <Protein>  (1) 
generic_title2

$$$$
DiffSBDD_10_num_sample_50
     RDKit          3D

  0  0  0  0  0  0  0  0  0  0999 V3000
M  V30 BEGIN CTAB
M  V30 COUNTS 72 73 0 0 1
M  V30 BEGIN ATOM
M  V30 1 C 5.519666 8.348937 -22.100897 0 CFG=2
M  V30 2 C 7.861775 4.297591 -11.531711 0
M  V30 3 C 7.576712 2.453066 -15.617131 0
M  V30 4 C 7.199777 3.592582 -18.950552 0 CFG=1
M  V30 5 C 5.357288 7.460943 -20.855022 0 CFG=2
M  V30 6 N 6.083241 5.519603 -12.613868 0
M  V30 7 N 6.490724 4.254155 -21.092699 0
M  V30 8 C 6.197562 5.323041 -20.180449 0 CFG=1
M  V30 9 S 4.624159 10.000759 -22.159249 0
M  V30 10 C 7.620694 4.862497 -10.142584 0
M  V30 11 S 3.521582 9.700021 -23.931053 0 CHG=-1
M  V30 12 C 8.005484 8.997714 -22.207527 0
M  V30 13 O 9.194568 7.597535 -6.691635 0
M  V30 14 O 3.634124 10.133295 -21.082071 0
M  V30 15 C 4.488839 7.232932 -22.075110 0 CFG=2
M  V30 16 C 6.839982 1.782925 -13.232235 0
M  V30 17 C 7.387963 3.304269 -20.449212 0 CFG=1
M  V30 18 N 8.635265 6.169271 -8.306975 0 CHG=1
M  V30 19 N 7.408467 4.101193 -13.873064 0
M  V30 20 C 8.919343 5.399194 -9.528999 0
M  V30 21 C 8.307335 5.952369 -18.885505 0
M  V30 22 C 6.808915 8.344807 -22.920559 0
M  V30 23 C 4.835110 7.952120 -19.512815 0
M  V30 24 C 8.246726 2.973301 -18.002142 0
M  V30 25 C 7.290085 2.875764 -14.220406 0
M  V30 26 O 4.804916 6.124674 -22.895900 0
M  V30 27 C 7.136751 4.631173 -12.618208 0
M  V30 28 O 5.578317 11.087883 -22.427967 0
M  V30 29 F 8.634842 3.546208 -20.854016 0
M  V30 30 N 6.179776 0.636005 -13.841254 0
M  V30 31 C 9.772474 6.956574 -7.807284 0
M  V30 32 C 7.004992 5.115663 -18.889068 0 CFG=2
M  V30 33 O 6.474359 6.578817 -20.723593 0
M  V30 34 C 7.953713 3.338016 -16.561171 0
M  V30 35 H 8.672809 3.589367 -11.629020 0
M  V30 36 H 7.464827 1.403681 -15.840039 0
M  V30 37 H 6.240960 3.147975 -18.674553 0
M  V30 38 H 5.826882 6.035216 -11.783271 0
M  V30 39 H 6.869977 4.599930 -21.963072 0
M  V30 40 H 5.132291 5.249242 -19.953995 0
M  V30 41 H 7.178065 4.101196 -9.503002 0
M  V30 42 H 6.884873 5.664594 -10.192554 0
M  V30 43 H 8.886673 8.984618 -22.849181 0
M  V30 44 H 7.816060 10.036360 -21.942200 0
M  V30 45 H 8.260505 8.464490 -21.292071 0
M  V30 46 H 8.274173 7.768803 -6.850097 0
M  V30 47 H 3.434807 7.483747 -22.046501 0
M  V30 48 H 7.709221 1.432143 -12.675545 0
M  V30 49 H 6.143995 2.210177 -12.510482 0
M  V30 50 H 7.144421 2.275471 -20.716814 0
M  V30 51 H 8.281716 5.562054 -7.583225 0
M  V30 52 H 9.411736 6.054855 -10.249084 0
M  V30 53 H 9.608481 4.583894 -9.304304 0
M  V30 54 H 8.908799 5.778160 -19.777150 0
M  V30 55 H 8.086273 7.018868 -18.846923 0
M  V30 56 H 8.928151 5.731001 -18.018764 0
M  V30 57 H 7.076789 7.319929 -23.176403 0
M  V30 58 H 6.617380 8.857157 -23.862019 0
M  V30 59 H 3.793031 8.254423 -19.582370 0
M  V30 60 H 4.881880 7.171641 -18.755961 0
M  V30 61 H 5.432461 8.794903 -19.168555 0
M  V30 62 H 9.251055 3.314889 -18.253758 0
M  V30 63 H 8.250197 1.888570 -18.114405 0
M  V30 64 H 4.635317 6.375141 -23.792638 0
M  V30 65 H 6.844711 0.085335 -14.366488 0
M  V30 66 H 5.808007 0.012014 -13.136124 0
M  V30 67 H 10.100292 7.688151 -8.547115 0
M  V30 68 H 10.612228 6.326589 -7.510249 0
M  V30 69 H 6.392461 5.400307 -18.032834 0
M  V30 70 H 8.057717 4.382246 -16.304002 0
M  V30 71 H 5.615033 5.786770 -13.467089 0
M  V30 72 H 7.893325 6.824534 -8.576196 0
M  V30 END ATOM
M  V30 BEGIN BOND
M  V30 1 1 5 1
M  V30 2 1 8 7
M  V30 3 1 9 1
M  V30 4 1 10 2
M  V30 5 1 11 9
M  V30 6 2 14 9
M  V30 7 1 15 1
M  V30 8 1 15 5
M  V30 9 1 17 4
M  V30 10 1 17 7
M  V30 11 1 20 10
M  V30 12 1 20 18
M  V30 13 1 1 22 CFG=3
M  V30 14 1 22 12
M  V30 15 1 23 5
M  V30 16 1 24 4
M  V30 17 1 25 3
M  V30 18 1 25 16
M  V30 19 2 25 19
M  V30 20 1 26 15
M  V30 21 2 27 2
M  V30 22 1 27 6
M  V30 23 1 27 19
M  V30 24 2 28 9
M  V30 25 1 29 17
M  V30 26 1 30 16
M  V30 27 1 31 13
M  V30 28 1 31 18
M  V30 29 1 32 4
M  V30 30 1 32 8
M  V30 31 1 32 21
M  V30 32 1 5 33 CFG=1
M  V30 33 1 33 8
M  V30 34 2 34 3
M  V30 35 1 34 24
M  V30 36 1 35 2
M  V30 37 1 36 3
M  V30 38 1 4 37 CFG=1
M  V30 39 1 38 6
M  V30 40 1 39 7
M  V30 41 1 8 40 CFG=1
M  V30 42 1 41 10
M  V30 43 1 42 10
M  V30 44 1 43 12
M  V30 45 1 44 12
M  V30 46 1 45 12
M  V30 47 1 46 13
M  V30 48 1 15 47 CFG=1
M  V30 49 1 48 16
M  V30 50 1 49 16
M  V30 51 1 17 50 CFG=1
M  V30 52 1 51 18
M  V30 53 1 52 20
M  V30 54 1 53 20
M  V30 55 1 54 21
M  V30 56 1 55 21
M  V30 57 1 56 21
M  V30 58 1 57 22
M  V30 59 1 58 22
M  V30 60 1 59 23
M  V30 61 1 60 23
M  V30 62 1 61 23
M  V30 63 1 62 24
M  V30 64 1 63 24
M  V30 65 1 64 26
M  V30 66 1 65 30
M  V30 67 1 66 30
M  V30 68 1 67 31
M  V30 69 1 68 31
M  V30 70 1 32 69 CFG=1
M  V30 71 1 70 34
M  V30 72 1 71 6
M  V30 73 1 72 18
M  V30 END BOND
M  V30 END CTAB
M  END
>  <i_epik_Tot_Q>  (1) 
0

>  <i_epik_Tot_abs_Q>  (1) 
2

>  <i_i_glide_confnum>  (1) 
1883

>  <i_i_glide_lignum>  (1) 
24

>  <i_i_glide_posenum>  (1) 
295

>  <i_i_glide_rotatable_bonds>  (1) 
15

>  <i_lp_mmshare_version>  (1) 
72125

>  <i_m_source_file_index>  (1) 
11

>  <i_f3d_flags>  (1) 
0

>  <num_sample>  (1) 
50

>  <b_lp_Chiralities_Consistent>  (1) 
1

>  <r_epik_Charging_Adjusted_Penalty>  (1) 
0.33639934582642134

>  <r_epik_Ionization_Penalty>  (1) 
0.23315943830934333

>  <r_epik_Ionization_Penalty_Charging>  (1) 
0.10316865490585193

>  <r_epik_Ionization_Penalty_Neutral>  (1) 
0.12999078340349141

>  <r_epik_State_Penalty>  (1) 
0.23323069092056939

>  <r_glide_ring_energy>  (1) 
0

>  <r_i_docking_score>  (1) 
-5.42318493680754

>  <r_i_glide_ecoul>  (1) 
-10.601725345543407

>  <r_i_glide_eff_state_penalty>  (1) 
0.23323069092056939

>  <r_i_glide_einternal>  (1) 
12.873529999676592

>  <r_i_glide_emodel>  (1) 
-54.806723906152207

>  <r_i_glide_emodel_strain>  (1) 
0.60708821747253694

>  <r_i_glide_energy>  (1) 
-44.557815808600395

>  <r_i_glide_erotb>  (1) 
0.57757419641111274

>  <r_i_glide_esite>  (1) 
-0.16037319238459768

>  <r_i_glide_evdw>  (1) 
-33.956090463056988

>  <r_i_glide_gscore>  (1) 
-5.6564156277281095

>  <r_i_glide_gscore_strain>  (1) 
0

>  <r_i_glide_hbond>  (1) 
-0.39943317024901609

>  <r_i_glide_ligand_efficiency>  (1) 
-0.15950543931786881

>  <r_i_glide_ligand_efficiency_ln>  (1) 
-1.1981336677257783

>  <r_i_glide_ligand_efficiency_sa>  (1) 
-0.5167357035821174

>  <r_i_glide_lipo>  (1) 
-1.2281118671585443

>  <r_i_glide_metal>  (1) 
-0

>  <r_i_glide_rewards>  (1) 
-1.158008269362703

>  <r_lp_Energy>  (1) 
19.575572999999999

>  <s_epik_Chemistry_Notes>  (1) 
This compound has an imine and may undergo hydrolysis. This compound contains an acetal/aminal-like group ( X-CH(R)-Y where X, Y are N, S, or O) that may be acid/base labile, releasing an aldehyde.

>  <s_epik_cmdline>  (1) 
J2VwaWtfcHl0aG9uJywgJy1waHQnLCAnMS4wJywgJy1waCcsICc3LjQnLCAnLXRuJywgJzgnLCAnLW1hJywgJzUwMCcsICctaW1hZScsICc8aW5maWxlLm1hZT4nLCAnLW9tYWUnLCAnPG91dGZpbGUubWFlPic=

>  <s_epik_input>  (1) 
W1NIXVMoPU8pKD1PKVtDQEBdMShbQ0gyXVtDSDNdKVtDQEBdKFtDSDNdKShbQ0BASF0xW09IXSlPW0NASF0oW0NAQEhdMltDSDNdKVtOSF1bQ0BASF0oRilbQ0BIXTJbQ0gyXVxbQ0hdPVtDSF1cQyhbQ0gyXVtOSDJdKT1OXEMoPU5cW0hdKVxbQ0gyXVtDSDJdW0NIMl1bTkhdW0NIMl1bT0hd

>  <s_glide_docking_method>  (1) 
confgen

>  <s_i_glide_gridfile>  (1) 
gpcr_drd2_6luq_protein_autoprepared_prepared

>  <s_lp_Force_Field>  (1) 
S-OPLS

>  <s_lp_Variant>  (1) 
DiffSBDD_10_num_sample_50-4

>  <s_m_source_file>  (1) 
generated__ligand_DiffSBDD_2026-05-06_prepared.sdf

>  <GenAI_Model>  (1) 
DiffSBDD

>  <Protein>  (1) 
generic_title2

$$$$
DiffSBDD_5_num_sample_50
     RDKit          3D

  0  0  0  0  0  0  0  0  0  0999 V3000
M  V30 BEGIN CTAB
M  V30 COUNTS 55 58 0 0 1
M  V30 BEGIN ATOM
M  V30 1 C 7.887054 4.184750 -12.347473 0 CFG=1
M  V30 2 C 6.313170 6.322179 -19.818117 0
M  V30 3 C 9.075092 3.270044 -12.306237 0
M  V30 4 O 8.779136 5.769186 -13.890751 0
M  V30 5 C 5.292264 6.797369 -16.290162 0 CFG=1
M  V30 6 O 6.029709 5.166947 -11.091314 0
M  V30 7 C 7.363545 4.716165 -11.001863 0 CFG=2
M  V30 8 C 8.791827 5.893360 -20.188057 0
M  V30 9 C 6.495373 6.619043 -15.396994 0 CFG=1
M  V30 10 O 10.161870 7.732801 -6.943526 0
M  V30 11 C 9.796452 6.540871 -8.706482 0
M  V30 12 C 4.689880 8.168612 -16.409629 0
M  V30 13 N 9.513283 6.804619 -7.381997 0
M  V30 14 C 7.819194 5.103737 -13.524256 0
M  V30 15 N 8.234604 5.769268 -10.465809 0
M  V30 16 C 6.241979 5.058985 -18.971422 0
M  V30 17 C 6.425787 8.665595 -21.383188 0
M  V30 18 O 7.779384 2.791079 -12.691673 0
M  V30 19 C 7.534290 6.717883 -20.407841 0
M  V30 20 C 5.213557 8.274125 -20.786487 0
M  V30 21 C 8.992050 5.366510 -9.276520 0
M  V30 22 C 5.158788 7.104635 -20.005400 0
M  V30 23 C 9.252370 5.919305 -18.718371 0
M  V30 24 C 7.586654 7.890473 -21.193428 0
M  V30 25 C 6.973596 5.183764 -17.621863 0 CFG=1
M  V30 26 C 8.495926 4.961265 -17.772850 0
M  V30 27 S 6.236258 5.138717 -14.379484 0
M  V30 28 O 10.602353 7.147994 -9.417577 0
M  V30 29 C 6.634977 6.486394 -16.904222 0 CFG=1
M  V30 30 H 9.815356 3.369719 -13.091646 0
M  V30 31 H 9.434744 2.968932 -11.327165 0
M  V30 32 H 4.557287 5.995132 -16.297535 0
M  V30 33 H 5.645072 5.116557 -10.225942 0
M  V30 34 H 7.312311 3.879519 -10.309027 0
M  V30 35 H 8.636960 4.871245 -20.533068 0
M  V30 36 H 9.587778 6.298905 -20.814438 0
M  V30 37 H 6.885915 7.486773 -14.867465 0
M  V30 38 H 5.458938 8.901663 -16.655360 0
M  V30 39 H 3.933785 8.169258 -17.193740 0
M  V30 40 H 4.231017 8.473879 -15.472566 0
M  V30 41 H 7.666261 6.592340 -10.200479 0
M  V30 42 H 6.617109 4.208721 -19.541753 0
M  V30 43 H 5.193166 4.832750 -18.780384 0
M  V30 44 H 6.467248 9.563086 -21.982959 0
M  V30 45 H 4.324412 8.871104 -20.926880 0
M  V30 46 H 8.311900 4.996327 -8.507110 0
M  V30 47 H 9.677531 4.553034 -9.515619 0
M  V30 48 H 4.234658 6.808344 -19.545486 0
M  V30 49 H 10.303208 5.628176 -18.692589 0
M  V30 50 H 9.222773 6.939861 -18.344241 0
M  V30 51 H 8.517915 8.198158 -21.645694 0
M  V30 52 H 6.634991 4.355969 -17.004395 0
M  V30 53 H 8.953591 5.019787 -16.784392 0
M  V30 54 H 8.668270 3.940478 -18.113309 0
M  V30 55 H 7.034562 7.345963 -17.431675 0
M  V30 END ATOM
M  V30 BEGIN BOND
M  V30 1 1 3 1
M  V30 2 1 7 1
M  V30 3 1 7 6
M  V30 4 1 9 5
M  V30 5 1 12 5
M  V30 6 2 13 10
M  V30 7 1 13 11
M  V30 8 1 1 14 CFG=3
M  V30 9 2 14 4
M  V30 10 1 15 7
M  V30 11 1 16 2
M  V30 12 1 18 1
M  V30 13 1 18 3
M  V30 14 1 19 2
M  V30 15 1 19 8
M  V30 16 2 20 17
M  V30 17 1 21 11
M  V30 18 1 21 15
M  V30 19 2 22 2
M  V30 20 1 22 20
M  V30 21 1 23 8
M  V30 22 1 24 17
M  V30 23 2 24 19
M  V30 24 1 25 16
M  V30 25 1 26 23
M  V30 26 1 26 25
M  V30 27 1 27 9
M  V30 28 1 27 14
M  V30 29 2 28 11
M  V30 30 1 29 5
M  V30 31 1 29 9
M  V30 32 1 29 25
M  V30 33 1 30 3
M  V30 34 1 31 3
M  V30 35 1 5 32 CFG=1
M  V30 36 1 33 6
M  V30 37 1 7 34 CFG=1
M  V30 38 1 35 8
M  V30 39 1 36 8
M  V30 40 1 9 37 CFG=1
M  V30 41 1 38 12
M  V30 42 1 39 12
M  V30 43 1 40 12
M  V30 44 1 41 15
M  V30 45 1 42 16
M  V30 46 1 43 16
M  V30 47 1 44 17
M  V30 48 1 45 20
M  V30 49 1 46 21
M  V30 50 1 47 21
M  V30 51 1 48 22
M  V30 52 1 49 23
M  V30 53 1 50 23
M  V30 54 1 51 24
M  V30 55 1 25 52 CFG=1
M  V30 56 1 53 26
M  V30 57 1 54 26
M  V30 58 1 29 55 CFG=3
M  V30 END BOND
M  V30 END CTAB
M  END
>  <i_epik_Tot_Q>  (1) 
0

>  <i_epik_Tot_abs_Q>  (1) 
0

>  <i_i_glide_confnum>  (1) 
37

>  <i_i_glide_lignum>  (1) 
14

>  <i_i_glide_posenum>  (1) 
107

>  <i_i_glide_rotatable_bonds>  (1) 
10

>  <i_lp_mmshare_version>  (1) 
72125

>  <i_m_source_file_index>  (1) 
6

>  <i_f3d_flags>  (1) 
0

>  <num_sample>  (1) 
50

>  <b_lp_Chiralities_Consistent>  (1) 
1

>  <r_epik_Charging_Adjusted_Penalty>  (1) 
0

>  <r_epik_Ionization_Penalty>  (1) 
0.00033857845250697777

>  <r_epik_Ionization_Penalty_Charging>  (1) 
0

>  <r_epik_Ionization_Penalty_Neutral>  (1) 
0.00033857845250697777

>  <r_epik_State_Penalty>  (1) 
-0

>  <r_glide_ring_energy>  (1) 
0

>  <r_i_docking_score>  (1) 
-5.4036427032968719

>  <r_i_glide_ecoul>  (1) 
-6.72049496108973

>  <r_i_glide_eff_state_penalty>  (1) 
-0

>  <r_i_glide_einternal>  (1) 
3.8750687007157421

>  <r_i_glide_emodel>  (1) 
-43.321733167212116

>  <r_i_glide_emodel_strain>  (1) 
3.4552273413639369

>  <r_i_glide_energy>  (1) 
-36.970471766901163

>  <r_i_glide_erotb>  (1) 
0.90319655978703284

>  <r_i_glide_esite>  (1) 
-0.16467446987258089

>  <r_i_glide_evdw>  (1) 
-30.249976805811432

>  <r_i_glide_gscore>  (1) 
-5.4036427032968719

>  <r_i_glide_gscore_strain>  (1) 
0

>  <r_i_glide_hbond>  (1) 
-0.28403984112970337

>  <r_i_glide_ligand_efficiency>  (1) 
-0.18633250701023696

>  <r_i_glide_ligand_efficiency_ln>  (1) 
-1.2372971544988303

>  <r_i_glide_ligand_efficiency_sa>  (1) 
-0.57247249645977716

>  <r_i_glide_lipo>  (1) 
-2.2913978633202126

>  <r_i_glide_metal>  (1) 
-0

>  <r_i_glide_rewards>  (1) 
-1.0461540043073767

>  <r_lp_Energy>  (1) 
19.075084

>  <r_lp_tautomer_probability>  (1) 
1

>  <s_epik_Chemistry_Notes>  (1) 
This compound contains an acetal/aminal-like group ( X-CH(R)-Y where X, Y are N, S, or O) that may be acid/base labile, releasing an aldehyde.

>  <s_epik_cmdline>  (1) 
J2VwaWtfcHl0aG9uJywgJy1waHQnLCAnMS4wJywgJy1waCcsICc3LjQnLCAnLXRuJywgJzgnLCAnLW1hJywgJzUwMCcsICctaW1hZScsICc8aW5maWxlLm1hZT4nLCAnLW9tYWUnLCAnPG91dGZpbGUubWFlPic=

>  <s_epik_input>  (1) 
Tz1OQyg9TylbQ0gyXVtOSF1bQ0BASF0oW09IXSlbQ0BdMShbQ0gyXU8xKUMoPU8pU1tDSF0oW0NASF0yW0NIM10pW0NIXTJbQ0BASF0oW0NIMl0zKVtDSDJdW0NIMl1bQ0gyXWMoYzM0KVtjSF1bY0hdW2NIXVtjSF00

>  <s_glide_docking_method>  (1) 
confgen

>  <s_i_glide_gridfile>  (1) 
gpcr_drd2_6luq_protein_autoprepared_prepared

>  <s_lp_Force_Field>  (1) 
S-OPLS

>  <s_lp_Variant>  (1) 
DiffSBDD_5_num_sample_50-1

>  <s_m_source_file>  (1) 
generated__ligand_DiffSBDD_2026-05-06_prepared.sdf

>  <GenAI_Model>  (1) 
DiffSBDD

>  <Protein>  (1) 
generic_title2

$$$$
DiffSBDD_3_num_sample_50
     RDKit          3D

  0  0  0  0  0  0  0  0  0  0999 V3000
M  V30 BEGIN CTAB
M  V30 COUNTS 57 60 0 0 1
M  V30 BEGIN ATOM
M  V30 1 C 7.359881 4.600352 -19.206001 0
M  V30 2 C 11.834839 8.569700 -7.709182 0
M  V30 3 C 5.199587 5.772446 -19.295379 0
M  V30 4 F 4.433827 6.841268 -17.357627 0
M  V30 5 C 6.501529 5.258170 -11.380569 0
M  V30 6 C 6.920249 5.915658 -12.713690 0 CFG=2
M  V30 7 C 11.533000 8.336216 -9.064045 0
M  V30 8 C 10.214876 6.871222 -7.048456 0
M  V30 9 C 8.651440 4.428087 -15.963700 0 CFG=1
M  V30 10 C 7.361698 4.861850 -13.763246 0
M  V30 11 C 8.863981 5.594232 -8.763188 0
M  V30 12 C 7.794734 5.414924 -15.137977 0 CFG=2
M  V30 13 C 5.523451 6.667797 -18.107479 0 CFG=1
M  V30 14 C 6.656241 5.996151 -15.962897 0
M  V30 15 O 7.834845 8.168923 -13.300094 0
M  V30 16 C 8.001624 3.048276 -16.177509 0
M  V30 17 C 7.631311 8.347258 -11.891668 0
M  V30 18 C 6.677246 6.085377 -17.309394 0
M  V30 19 C 9.905513 6.629049 -8.405840 0
M  V30 20 C 11.176334 7.839015 -6.703501 0
M  V30 21 N 8.634830 5.429785 -10.074192 0
M  V30 22 C 6.020912 4.821846 -19.790002 0
M  V30 23 C 10.570849 7.369355 -9.417076 0
M  V30 24 O 8.087759 3.674119 -19.559049 0
M  V30 25 O 8.272187 4.968926 -7.891647 0
M  V30 26 C 7.606578 4.526730 -10.590205 0
M  V30 27 C 9.059138 5.098416 -17.287730 0
M  V30 28 C 7.857102 5.594416 -18.136987 0 CFG=1
M  V30 29 C 7.957376 7.004535 -12.487150 0 CFG=1
M  V30 30 H 12.571814 9.310908 -7.440845 0
M  V30 31 H 4.234636 5.914484 -19.747353 0
M  V30 32 H 6.053253 6.014545 -10.734494 0
M  V30 33 H 5.700480 4.546937 -11.584520 0
M  V30 34 H 6.027800 6.410100 -13.099479 0
M  V30 35 H 12.038848 8.900719 -9.834060 0
M  V30 36 H 9.710905 6.313892 -6.270826 0
M  V30 37 H 9.573132 4.253302 -15.409960 0
M  V30 38 H 6.564894 4.129937 -13.901156 0
M  V30 39 H 8.207006 4.307955 -13.356381 0
M  V30 40 H 8.451522 6.254335 -14.942648 0
M  V30 41 H 5.797375 7.655991 -18.478592 0
M  V30 42 H 5.798221 6.355654 -15.415873 0
M  V30 43 H 7.034827 3.130661 -16.668729 0
M  V30 44 H 8.631343 2.413183 -16.801350 0
M  V30 45 H 7.848947 2.524712 -15.233487 0
M  V30 46 H 6.605171 8.564718 -11.599860 0
M  V30 47 H 8.416888 8.898767 -11.380108 0
M  V30 48 H 11.409642 8.020050 -5.664818 0
M  V30 49 H 9.155358 5.980114 -10.736202 0
M  V30 50 H 5.715418 4.205669 -20.623139 0
M  V30 51 H 10.344668 7.200565 -10.457579 0
M  V30 52 H 7.105464 3.988809 -9.784613 0
M  V30 53 H 8.093530 3.769373 -11.201994 0
M  V30 54 H 9.683665 5.960466 -17.051599 0
M  V30 55 H 9.715668 4.437744 -17.853816 0
M  V30 56 H 8.210511 6.456087 -18.703052 0
M  V30 57 H 8.984846 6.658436 -12.402519 0
M  V30 END ATOM
M  V30 BEGIN BOND
M  V30 1 1 6 5
M  V30 2 2 7 2
M  V30 3 1 10 6
M  V30 4 1 12 9
M  V30 5 1 12 10
M  V30 6 1 13 3
M  V30 7 1 13 4
M  V30 8 1 14 12
M  V30 9 1 16 9
M  V30 10 1 17 15
M  V30 11 1 18 13
M  V30 12 2 18 14
M  V30 13 1 19 8
M  V30 14 1 19 11
M  V30 15 1 20 2
M  V30 16 2 20 8
M  V30 17 1 21 11
M  V30 18 1 22 1
M  V30 19 2 22 3
M  V30 20 1 23 7
M  V30 21 2 23 19
M  V30 22 2 24 1
M  V30 23 2 25 11
M  V30 24 1 26 5
M  V30 25 1 26 21
M  V30 26 1 27 9
M  V30 27 1 28 1
M  V30 28 1 28 18
M  V30 29 1 28 27
M  V30 30 1 29 6
M  V30 31 1 29 15
M  V30 32 1 29 17
M  V30 33 1 30 2
M  V30 34 1 31 3
M  V30 35 1 32 5
M  V30 36 1 33 5
M  V30 37 1 6 34 CFG=3
M  V30 38 1 35 7
M  V30 39 1 36 8
M  V30 40 1 9 37 CFG=1
M  V30 41 1 38 10
M  V30 42 1 39 10
M  V30 43 1 12 40 CFG=1
M  V30 44 1 13 41 CFG=3
M  V30 45 1 42 14
M  V30 46 1 43 16
M  V30 47 1 44 16
M  V30 48 1 45 16
M  V30 49 1 46 17
M  V30 50 1 47 17
M  V30 51 1 48 20
M  V30 52 1 49 21
M  V30 53 1 50 22
M  V30 54 1 51 23
M  V30 55 1 52 26
M  V30 56 1 53 26
M  V30 57 1 54 27
M  V30 58 1 55 27
M  V30 59 1 28 56 CFG=3
M  V30 60 1 29 57 CFG=1
M  V30 END BOND
M  V30 END CTAB
M  END
>  <i_epik_Tot_Q>  (1) 
0

>  <i_epik_Tot_abs_Q>  (1) 
0

>  <i_i_glide_confnum>  (1) 
86

>  <i_i_glide_lignum>  (1) 
11

>  <i_i_glide_posenum>  (1) 
142

>  <i_i_glide_rotatable_bonds>  (1) 
8

>  <i_lp_mmshare_version>  (1) 
72125

>  <i_m_source_file_index>  (1) 
4

>  <i_f3d_flags>  (1) 
0

>  <num_sample>  (1) 
50

>  <b_lp_Chiralities_Consistent>  (1) 
1

>  <r_epik_Charging_Adjusted_Penalty>  (1) 
0

>  <r_epik_Ionization_Penalty>  (1) 
1.5409479738535797e-07

>  <r_epik_Ionization_Penalty_Charging>  (1) 
0

>  <r_epik_Ionization_Penalty_Neutral>  (1) 
1.5409479738535797e-07

>  <r_epik_State_Penalty>  (1) 
-0

>  <r_glide_ring_energy>  (1) 
0

>  <r_i_docking_score>  (1) 
-5.3889385528927294

>  <r_i_glide_ecoul>  (1) 
-1.1968798020025648

>  <r_i_glide_eff_state_penalty>  (1) 
-0

>  <r_i_glide_einternal>  (1) 
4.846514222367091

>  <r_i_glide_emodel>  (1) 
-47.403992683694888

>  <r_i_glide_emodel_strain>  (1) 
0.010020951831720026

>  <r_i_glide_energy>  (1) 
-35.932365162436568

>  <r_i_glide_erotb>  (1) 
0.86725254217801073

>  <r_i_glide_esite>  (1) 
-0.13990670741034644

>  <r_i_glide_evdw>  (1) 
-34.735485360434005

>  <r_i_glide_gscore>  (1) 
-5.3889385528927294

>  <r_i_glide_gscore_strain>  (1) 
0

>  <r_i_glide_hbond>  (1) 
0

>  <r_i_glide_ligand_efficiency>  (1) 
-0.18582546734112859

>  <r_i_glide_ligand_efficiency_ln>  (1) 
-1.233930276921364

>  <r_i_glide_ligand_efficiency_sa>  (1) 
-0.57091470995308535

>  <r_i_glide_lipo>  (1) 
-2.2670918398832347

>  <r_i_glide_metal>  (1) 
-0

>  <r_i_glide_rewards>  (1) 
-1.9328863094550721

>  <r_lp_Energy>  (1) 
36.521651999999996

>  <r_lp_tautomer_probability>  (1) 
1

>  <s_epik_cmdline>  (1) 
J2VwaWtfcHl0aG9uJywgJy1waHQnLCAnMS4wJywgJy1waCcsICc3LjQnLCAnLXRuJywgJzgnLCAnLW1hJywgJzUwMCcsICctaW1hZScsICc8aW5maWxlLm1hZT4nLCAnLW9tYWUnLCAnPG91dGZpbGUubWFlPic=

>  <s_epik_input>  (1) 
RltDQEBIXTFbQ0hdPVtDSF1DKD1PKVtDQEBIXShDMTIpW0NIMl1bQ0BIXShbQ0gzXSlbQ0BASF0oW0NIXT0yKVtDSDJdW0NAQEhdKFtDQEhdM09bQ0gyXTMpW0NIMl1bQ0gyXVtOSF1DKD1PKWM0W2NIXVtjSF1bY0hdW2NIXVtjSF00

>  <s_glide_docking_method>  (1) 
confgen

>  <s_i_glide_gridfile>  (1) 
gpcr_drd2_6luq_protein_autoprepared_prepared

>  <s_lp_Force_Field>  (1) 
S-OPLS

>  <s_lp_Variant>  (1) 
DiffSBDD_3_num_sample_50-2

>  <s_m_source_file>  (1) 
generated__ligand_DiffSBDD_2026-05-06_prepared.sdf

>  <GenAI_Model>  (1) 
DiffSBDD

>  <Protein>  (1) 
generic_title2

$$$$
DiffSBDD_0_num_sample_50
     RDKit          3D

  0  0  0  0  0  0  0  0  0  0999 V3000
M  V30 BEGIN CTAB
M  V30 COUNTS 58 61 0 0 1
M  V30 BEGIN ATOM
M  V30 1 C 10.391086 7.407952 -9.248641 0
M  V30 2 C 7.401084 3.412342 -13.977604 0 CFG=2
M  V30 3 N 7.830558 3.644009 -12.569552 0 CFG=2 CHG=1
M  V30 4 N 8.317511 5.670117 -10.000850 0
M  V30 5 C 8.817004 0.399551 -18.953523 0
M  V30 6 C 8.165869 -0.421788 -16.625715 0
M  V30 7 C 6.508131 1.035126 -13.475903 0
M  V30 8 S 8.487433 2.243107 -16.917881 0
M  V30 9 O 9.834827 4.669337 -12.775277 0
M  V30 10 C 9.802604 6.525308 -8.305942 0
M  V30 11 C 6.057165 4.171086 -14.086372 0
M  V30 12 C 8.719337 5.558747 -8.726735 0
M  V30 13 C 7.260185 6.147204 -12.894854 0
M  V30 14 C 7.397153 1.898172 -14.391473 0 CFG=1
M  V30 15 C 7.163164 4.957709 -10.531891 0
M  V30 16 N 7.125186 0.169325 -12.688397 0
M  V30 17 O 5.292822 1.154385 -13.491688 0
M  V30 18 F 12.739687 9.235723 -7.091936 0
M  V30 19 O 8.234968 4.760654 -7.928944 0
M  V30 20 C 11.382584 8.318966 -8.836948 0
M  V30 21 C 7.087623 1.683858 -15.906040 0 CFG=2
M  V30 22 C 6.091632 5.201247 -12.994015 0 CFG=2
M  V30 23 C 11.206365 7.484134 -6.552628 0
M  V30 24 F 9.525688 1.309294 -19.621595 0
M  V30 25 F 9.215821 -0.813421 -19.335478 0
M  V30 26 C 7.203725 4.884365 -12.039625 0 CFG=2
M  V30 27 C 9.273371 3.485554 -12.249649 0
M  V30 28 F 11.942278 9.161368 -9.737376 0
M  V30 29 C 11.788869 8.357381 -7.489329 0
M  V30 30 C 9.005799 0.577068 -17.437152 0 CFG=2
M  V30 31 C 6.813256 0.237430 -16.372418 0
M  V30 32 C 10.219048 6.569148 -6.958045 0
M  V30 33 H 10.081767 7.391161 -10.281833 0
M  V30 34 H 8.115414 3.937970 -14.612303 0
M  V30 35 H 8.754103 6.359769 -10.591817 0
M  V30 36 H 7.775710 0.513238 -19.255098 0
M  V30 37 H 8.058718 -1.383557 -17.129110 0
M  V30 38 H 8.635012 -0.626239 -15.663778 0
M  V30 39 H 10.721452 4.481762 -13.091678 0
M  V30 40 H 5.193347 3.547366 -13.891660 0
M  V30 41 H 5.923428 4.643476 -15.059321 0
M  V30 42 H 7.086449 7.097889 -12.392810 0
M  V30 43 H 7.946882 6.197067 -13.738235 0
M  V30 44 H 8.412236 1.525252 -14.250474 0
M  V30 45 H 6.275701 5.525375 -10.246705 0
M  V30 46 H 7.037312 3.966481 -10.098156 0
M  V30 47 H 8.131342 0.093220 -12.706223 0
M  V30 48 H 6.579826 -0.431381 -12.083868 0
M  V30 49 H 6.234842 2.291091 -16.178789 0
M  V30 50 H 5.137083 5.546484 -12.601931 0
M  V30 51 H 11.517309 7.517296 -5.519333 0
M  V30 52 H 9.699224 2.589192 -12.691668 0
M  V30 53 H 9.434775 3.426931 -11.173038 0
M  V30 54 H 10.062631 0.448266 -17.201536 0
M  V30 55 H 6.196030 -0.354348 -15.696756 0
M  V30 56 H 6.259920 0.272381 -17.312144 0
M  V30 57 H 9.772848 5.905147 -6.232123 0
M  V30 58 H 7.372571 2.908254 -12.051340 0
M  V30 END ATOM
M  V30 BEGIN BOND
M  V30 1 1 3 2
M  V30 2 2 10 1
M  V30 3 1 11 2
M  V30 4 1 12 4
M  V30 5 1 12 10
M  V30 6 1 14 2
M  V30 7 1 14 7
M  V30 8 1 15 4
M  V30 9 1 16 7
M  V30 10 2 17 7
M  V30 11 2 19 12
M  V30 12 1 20 1
M  V30 13 1 21 8
M  V30 14 1 21 14
M  V30 15 1 22 11
M  V30 16 1 22 13
M  V30 17 1 24 5
M  V30 18 1 25 5
M  V30 19 1 26 3
M  V30 20 1 26 13
M  V30 21 1 26 15 CFG=1
M  V30 22 1 26 22
M  V30 23 1 27 3
M  V30 24 1 27 9
M  V30 25 1 28 20
M  V30 26 1 29 18
M  V30 27 2 29 20
M  V30 28 1 29 23
M  V30 29 1 30 5
M  V30 30 1 30 6
M  V30 31 1 30 8
M  V30 32 1 31 6
M  V30 33 1 31 21
M  V30 34 1 32 10
M  V30 35 2 32 23
M  V30 36 1 33 1
M  V30 37 1 2 34 CFG=3
M  V30 38 1 35 4
M  V30 39 1 36 5
M  V30 40 1 37 6
M  V30 41 1 38 6
M  V30 42 1 39 9
M  V30 43 1 40 11
M  V30 44 1 41 11
M  V30 45 1 42 13
M  V30 46 1 43 13
M  V30 47 1 14 44 CFG=3
M  V30 48 1 45 15
M  V30 49 1 46 15
M  V30 50 1 47 16
M  V30 51 1 48 16
M  V30 52 1 21 49 CFG=3
M  V30 53 1 22 50 CFG=1
M  V30 54 1 51 23
M  V30 55 1 52 27
M  V30 56 1 53 27
M  V30 57 1 30 54 CFG=3
M  V30 58 1 55 31
M  V30 59 1 56 31
M  V30 60 1 57 32
M  V30 61 1 3 58 CFG=1
M  V30 END BOND
M  V30 END CTAB
M  END
>  <i_epik_Tot_Q>  (1) 
1

>  <i_epik_Tot_abs_Q>  (1) 
1

>  <i_i_glide_confnum>  (1) 
25

>  <i_i_glide_lignum>  (1) 
2

>  <i_i_glide_posenum>  (1) 
154

>  <i_i_glide_rotatable_bonds>  (1) 
10

>  <i_lp_mmshare_version>  (1) 
72125

>  <i_m_source_file_index>  (1) 
1

>  <i_f3d_flags>  (1) 
0

>  <num_sample>  (1) 
50

>  <b_lp_Chiralities_Consistent>  (1) 
1

>  <r_epik_Charging_Adjusted_Penalty>  (1) 
2.6270329568783799

>  <r_epik_Ionization_Penalty>  (1) 
1.3408557112072272

>  <r_epik_Ionization_Penalty_Charging>  (1) 
1.3119003563655398

>  <r_epik_Ionization_Penalty_Neutral>  (1) 
0.028955354841687337

>  <r_epik_State_Penalty>  (1) 
1.3151326005128403

>  <r_glide_ring_energy>  (1) 
1.7094833596619941

>  <r_i_docking_score>  (1) 
-5.3644768450928604

>  <r_i_glide_ecoul>  (1) 
-10.383572204066201

>  <r_i_glide_eff_state_penalty>  (1) 
1.3151326005128403

>  <r_i_glide_einternal>  (1) 
14.502314403111477

>  <r_i_glide_emodel>  (1) 
-54.140555983910531

>  <r_i_glide_emodel_strain>  (1) 
0.10284575238360105

>  <r_i_glide_energy>  (1) 
-41.346000362793475

>  <r_i_glide_erotb>  (1) 
0.53508942527165992

>  <r_i_glide_esite>  (1) 
-0.17594459895401859

>  <r_i_glide_evdw>  (1) 
-30.962428158727274

>  <r_i_glide_gscore>  (1) 
-6.6796094456057009

>  <r_i_glide_gscore_strain>  (1) 
0

>  <r_i_glide_hbond>  (1) 
-0.32000000000000001

>  <r_i_glide_ligand_efficiency>  (1) 
-0.16763990140915189

>  <r_i_glide_ligand_efficiency_ln>  (1) 
-1.2012525957322469

>  <r_i_glide_ligand_efficiency_sa>  (1) 
-0.53222351169746596

>  <r_i_glide_lipo>  (1) 
-1.6813787281621122

>  <r_i_glide_metal>  (1) 
-0

>  <r_i_glide_rewards>  (1) 
-1.9317183052149363

>  <r_lp_Energy>  (1) 
13.303457999999999

>  <s_epik_Chemistry_Notes>  (1) 
This compound contains an acetal/aminal-like group ( X-CH(R)-Y where X, Y are N, S, or O) that may be acid/base labile, releasing an aldehyde.

>  <s_epik_cmdline>  (1) 
J2VwaWtfcHl0aG9uJywgJy1waHQnLCAnMS4wJywgJy1waCcsICc3LjQnLCAnLXRuJywgJzgnLCAnLW1hJywgJzUwMCcsICctaW1hZScsICc8aW5maWxlLm1hZT4nLCAnLW9tYWUnLCAnPG91dGZpbGUubWFlPic=

>  <s_epik_input>  (1) 
W2NIXTFbY0hdYyhGKWMoRilbY0hdYzFDKD1PKVtOSF1bQ0gyXVtDQF0yM1tDQEBIXShbQ0gyXTMpW0NIMl1bQ0BASF0oTjJbQ0gyXVtPSF0pW0NAQEhdKEMoPU8pW05IMl0pW0NASF00U1tDQEhdKFtDSF0oRilGKVtDSDJdW0NIMl00

>  <s_glide_docking_method>  (1) 
confgen

>  <s_i_glide_gridfile>  (1) 
gpcr_drd2_6luq_protein_autoprepared_prepared

>  <s_lp_Force_Field>  (1) 
S-OPLS

>  <s_lp_Variant>  (1) 
DiffSBDD_0_num_sample_50-2

>  <s_m_source_file>  (1) 
generated__ligand_DiffSBDD_2026-05-06_prepared.sdf

>  <GenAI_Model>  (1) 
DiffSBDD

>  <Protein>  (1) 
generic_title2

$$$$
DiffSBDD_26_num_sample_50
     RDKit          3D

  0  0  0  0  0  0  0  0  0  0999 V3000
M  V30 BEGIN CTAB
M  V30 COUNTS 88 94 0 0 1
M  V30 BEGIN ATOM
M  V30 1 C 7.788144 4.638578 -13.441981 0 CFG=2
M  V30 2 S 8.373205 5.483270 -20.739253 0 CHG=1
M  V30 3 C 10.370290 8.823895 -7.541413 0
M  V30 4 C 6.753494 4.583588 -18.654451 0
M  V30 5 C 5.662459 5.478768 -14.405943 0
M  V30 6 F 9.876148 5.906552 -18.676217 0
M  V30 7 C 8.944406 4.484665 -11.218619 0
M  V30 8 C 7.275238 3.336744 -13.930284 0
M  V30 9 F 5.421360 8.999196 -20.364317 0
M  V30 10 C 9.160934 5.723699 -9.160339 0
M  V30 11 C 6.795318 5.247279 -17.256286 0
M  V30 12 C 7.602314 4.714748 -11.932190 0
M  V30 13 C 10.334402 8.543018 -21.245029 0
M  V30 14 O 9.432554 5.630986 -10.562678 0
M  V30 15 C 12.671178 8.238159 -8.059131 0
M  V30 16 C 7.563752 7.109224 -13.762228 0
M  V30 17 C 6.762512 4.462708 -14.679739 0 CFG=2
M  V30 18 C 7.941971 6.296638 -22.312228 0
M  V30 19 C 9.596118 7.156243 -8.848915 0 CFG=2
M  V30 20 C 9.520151 8.184333 -22.451310 0 CFG=2
M  V30 21 C 6.106489 6.907450 -19.642063 0 CFG=1
M  V30 22 C 8.397372 8.913422 -23.129678 0
M  V30 23 C 7.875292 2.003651 -14.217167 0
M  V30 24 C 8.533464 5.887322 -13.902518 0
M  V30 25 C 10.006680 4.817688 -8.292239 0
M  V30 26 C 6.125581 7.949495 -20.781981 0 CFG=2
M  V30 27 C 7.113512 4.205050 -16.165285 0
M  V30 28 O 10.934563 7.395593 -9.260587 0
M  V30 29 C 8.086723 7.786907 -22.174506 0 CFG=1
M  V30 30 C 9.405119 6.611467 -19.703169 0 CFG=1
M  V30 31 O 7.459337 8.367759 -21.041464 0
M  V30 32 C 6.570920 2.132477 -13.390396 0
M  V30 33 C 9.650773 7.540144 -7.371361 0
M  V30 34 C 10.623211 7.285039 -20.390654 0
M  V30 35 C 6.214479 6.924081 -14.481219 0
M  V30 36 N 11.369534 8.599313 -8.585486 0
M  V30 37 C 7.701600 5.368905 -8.797493 0
M  V30 38 F 4.826926 6.677631 -19.339381 0
M  V30 39 C 6.743485 5.510803 -19.898817 0 CFG=1
M  V30 40 H 10.725143 9.312944 -6.635898 0
M  V30 41 H 9.548809 9.369313 -7.974535 0
M  V30 42 H 7.585414 3.882199 -18.735943 0
M  V30 43 H 5.859616 3.957975 -18.694785 0
M  V30 44 H 5.233639 5.289277 -13.420971 0
M  V30 45 H 4.863953 5.369300 -15.121617 0
M  V30 46 H 9.706727 4.077260 -11.884693 0
M  V30 47 H 8.801611 3.768403 -10.451374 0
M  V30 48 H 5.827956 5.714837 -17.084700 0
M  V30 49 H 7.546879 6.035462 -17.217006 0
M  V30 50 H 6.886017 3.970738 -11.590658 0
M  V30 51 H 7.142000 5.643464 -11.620638 0
M  V30 52 H 11.279067 8.964296 -21.590804 0
M  V30 53 H 9.834337 9.331557 -20.691429 0
M  V30 54 H 13.091076 9.036680 -7.450676 0
M  V30 55 H 13.355349 8.051745 -8.888578 0
M  V30 56 H 12.608553 7.327851 -7.467686 0
M  V30 57 H 7.371985 7.335443 -12.715877 0
M  V30 58 H 7.997861 8.036940 -14.102414 0
M  V30 59 H 8.611854 5.927750 -23.089846 0
M  V30 60 H 6.937805 6.023787 -22.632597 0
M  V30 61 H 9.035421 7.865857 -9.447295 0
M  V30 62 H 10.095307 7.571426 -23.144388 0
M  V30 63 H 6.540086 7.369299 -18.759816 0
M  V30 64 H 8.204472 8.714735 -24.171252 0
M  V30 65 H 8.206795 9.937261 -22.811095 0
M  V30 66 H 7.796047 1.596198 -15.222690 0
M  V30 67 H 8.750060 1.700169 -13.651408 0
M  V30 68 H 9.422582 6.048174 -13.292865 0
M  V30 69 H 8.893100 5.772308 -14.926344 0
M  V30 70 H 9.662669 4.967876 -7.271282 0
M  V30 71 H 9.944262 3.769808 -8.580294 0
M  V30 72 H 11.034272 5.130387 -8.288260 0
M  V30 73 H 5.606498 7.603949 -21.676230 0
M  V30 74 H 8.180906 3.988618 -16.229642 0
M  V30 75 H 6.639570 3.262202 -16.438400 0
M  V30 76 H 8.787024 7.368685 -19.234592 0
M  V30 77 H 6.640927 1.900701 -12.330302 0
M  V30 78 H 5.652373 1.807217 -13.875011 0
M  V30 79 H 8.665244 7.666526 -6.918446 0
M  V30 80 H 10.252544 6.892235 -6.737943 0
M  V30 81 H 11.167455 6.545227 -20.978723 0
M  V30 82 H 11.317649 7.596682 -19.610193 0
M  V30 83 H 5.485033 7.635776 -14.090096 0
M  V30 84 H 6.359577 7.215209 -15.518359 0
M  V30 85 H 7.465116 5.737807 -7.804807 0
M  V30 86 H 6.972592 5.769201 -9.489858 0
M  V30 87 H 7.520411 4.294306 -8.766270 0
M  V30 88 H 6.098731 5.013464 -20.623890 0
M  V30 END ATOM
M  V30 BEGIN BOND
M  V30 1 1 8 1
M  V30 2 1 11 4
M  V30 3 1 1 12 CFG=1
M  V30 4 1 12 7
M  V30 5 1 14 7
M  V30 6 1 14 10
M  V30 7 1 17 1
M  V30 8 1 17 5
M  V30 9 1 17 8
M  V30 10 1 2 18 CFG=3
M  V30 11 1 19 10
M  V30 12 1 20 13
M  V30 13 1 22 20
M  V30 14 1 23 8
M  V30 15 1 24 1
M  V30 16 1 24 16
M  V30 17 1 25 10
M  V30 18 1 26 9
M  V30 19 1 26 21
M  V30 20 1 27 11
M  V30 21 1 17 27 CFG=3
M  V30 22 1 28 19
M  V30 23 1 29 18
M  V30 24 1 29 20
M  V30 25 1 29 22
M  V30 26 1 30 2
M  V30 27 1 30 6
M  V30 28 1 31 26
M  V30 29 1 29 31 CFG=1
M  V30 30 1 32 8
M  V30 31 1 32 23
M  V30 32 1 33 3
M  V30 33 1 33 19
M  V30 34 1 34 13
M  V30 35 1 34 30
M  V30 36 1 35 5
M  V30 37 1 35 16
M  V30 38 1 36 3
M  V30 39 1 36 15
M  V30 40 1 36 28
M  V30 41 1 37 10
M  V30 42 1 38 21
M  V30 43 1 39 2
M  V30 44 1 39 4
M  V30 45 1 39 21
M  V30 46 1 40 3
M  V30 47 1 41 3
M  V30 48 1 42 4
M  V30 49 1 43 4
M  V30 50 1 44 5
M  V30 51 1 45 5
M  V30 52 1 46 7
M  V30 53 1 47 7
M  V30 54 1 48 11
M  V30 55 1 49 11
M  V30 56 1 50 12
M  V30 57 1 51 12
M  V30 58 1 52 13
M  V30 59 1 53 13
M  V30 60 1 54 15
M  V30 61 1 55 15
M  V30 62 1 56 15
M  V30 63 1 57 16
M  V30 64 1 58 16
M  V30 65 1 59 18
M  V30 66 1 60 18
M  V30 67 1 19 61 CFG=3
M  V30 68 1 20 62 CFG=3
M  V30 69 1 21 63 CFG=1
M  V30 70 1 64 22
M  V30 71 1 65 22
M  V30 72 1 66 23
M  V30 73 1 67 23
M  V30 74 1 68 24
M  V30 75 1 69 24
M  V30 76 1 70 25
M  V30 77 1 71 25
M  V30 78 1 72 25
M  V30 79 1 26 73 CFG=3
M  V30 80 1 74 27
M  V30 81 1 75 27
M  V30 82 1 30 76 CFG=1
M  V30 83 1 77 32
M  V30 84 1 78 32
M  V30 85 1 79 33
M  V30 86 1 80 33
M  V30 87 1 81 34
M  V30 88 1 82 34
M  V30 89 1 83 35
M  V30 90 1 84 35
M  V30 91 1 85 37
M  V30 92 1 86 37
M  V30 93 1 87 37
M  V30 94 1 39 88 CFG=3
M  V30 END BOND
M  V30 END CTAB
M  END
>  <i_epik_Tot_Q>  (1) 
1

>  <i_epik_Tot_abs_Q>  (1) 
1

>  <i_i_glide_confnum>  (1) 
195

>  <i_i_glide_lignum>  (1) 
68

>  <i_i_glide_posenum>  (1) 
137

>  <i_i_glide_rotatable_bonds>  (1) 
9

>  <i_lp_mmshare_version>  (1) 
72125

>  <i_m_source_file_index>  (1) 
27

>  <i_f3d_flags>  (1) 
0

>  <num_sample>  (1) 
50

>  <b_lp_Chiralities_Consistent>  (1) 
1

>  <r_epik_Charging_Adjusted_Penalty>  (1) 
0.0064700825840893978

>  <r_epik_Ionization_Penalty>  (1) 
0.0064700825864937349

>  <r_epik_Ionization_Penalty_Charging>  (1) 
0

>  <r_epik_Ionization_Penalty_Neutral>  (1) 
0.0064700825864937349

>  <r_epik_State_Penalty>  (1) 
0.0064700825840893978

>  <r_glide_ring_energy>  (1) 
0.038362801895993927

>  <r_i_docking_score>  (1) 
-5.3571689095209205

>  <r_i_glide_ecoul>  (1) 
-1.9944405421371956

>  <r_i_glide_eff_state_penalty>  (1) 
0.0064700825840893978

>  <r_i_glide_einternal>  (1) 
28.040589069290409

>  <r_i_glide_emodel>  (1) 
-14.519111348441051

>  <r_i_glide_emodel_strain>  (1) 
3.1140522842603104

>  <r_i_glide_energy>  (1) 
-26.872089691600223

>  <r_i_glide_erotb>  (1) 
0.41602518103618852

>  <r_i_glide_esite>  (1) 
0

>  <r_i_glide_evdw>  (1) 
-24.877649149463029

>  <r_i_glide_gscore>  (1) 
-5.3636389921050096

>  <r_i_glide_gscore_strain>  (1) 
0

>  <r_i_glide_hbond>  (1) 
0

>  <r_i_glide_ligand_efficiency>  (1) 
-0.1373633053723313

>  <r_i_glide_ligand_efficiency_ln>  (1) 
-1.1487290864841271

>  <r_i_glide_ligand_efficiency_sa>  (1) 
-0.46582801302889931

>  <r_i_glide_lipo>  (1) 
-2.6038627243111296

>  <r_i_glide_metal>  (1) 
-0

>  <r_i_glide_rewards>  (1) 
-1.6327529100363383

>  <r_lp_Energy>  (1) 
87.03259899999999

>  <s_epik_Chemistry_Notes>  (1) 
This compound has a N-S or N-O group and may undergo hydrolysis at high or low pH.

>  <s_epik_cmdline>  (1) 
J2VwaWtfcHl0aG9uJywgJy1waHQnLCAnMS4wJywgJy1waCcsICc3LjQnLCAnLXRuJywgJzgnLCAnLW1hJywgJzUwMCcsICctaW1hZScsICc8aW5maWxlLm1hZT4nLCAnLW9tYWUnLCAnPG91dGZpbGUubWFlPic=

>  <s_epik_input>  (1) 
W0NIMl0xW0NIMl1OKFtDSDNdKU9bQ0BIXTFDKFtDSDNdKShbQ0gzXSlPW0NIMl1bQ0gyXVtDQEBdMihDMzRbQ0gyXVtDSDJdNClDMyhbQ0gyXVtDSDJdW0NIMl1bQ0gyXTIpW0NIMl1bQ0gyXVtDSDJdW0NAQEhdKFtDQEhdKEYpW0NAQEhdKEYpTzUpW1MrXShbQ0gyXTYpW0NAQEhdKEYpW0NIMl1bQ0gyXVtDQEBIXShDNTY3KVtDSDJdNw==

>  <s_glide_docking_method>  (1) 
confgen

>  <s_i_glide_gridfile>  (1) 
gpcr_drd2_6luq_protein_autoprepared_prepared

>  <s_lp_Force_Field>  (1) 
S-OPLS

>  <s_lp_Variant>  (1) 
DiffSBDD_26_num_sample_50-1

>  <s_m_source_file>  (1) 
generated__ligand_DiffSBDD_2026-05-06_prepared.sdf

>  <GenAI_Model>  (1) 
DiffSBDD

>  <Protein>  (1) 
generic_title2

$$$$
DiffSBDD_44_num_sample_50
     RDKit          3D

  0  0  0  0  0  0  0  0  0  0999 V3000
M  V30 BEGIN CTAB
M  V30 COUNTS 61 64 0 0 1
M  V30 BEGIN ATOM
M  V30 1 C 12.017475 7.080457 -7.228038 0
M  V30 2 C 6.758615 4.991442 -13.271448 0 CFG=1
M  V30 3 C 7.269494 4.383539 -15.684999 0
M  V30 4 C 10.409781 8.189564 -8.744374 0 CFG=1
M  V30 5 C 10.921681 6.111130 -6.843935 0
M  V30 6 C 6.129084 7.142024 -16.349762 0
M  V30 7 C 11.833635 7.621783 -8.652565 0 CFG=1
M  V30 8 O 14.087517 8.169308 -9.491661 0
M  V30 9 N 9.330373 7.496920 -10.868528 0
M  V30 10 C 9.574974 6.806560 -6.967464 0 CFG=2
M  V30 11 C 7.149540 3.540423 -12.850803 0
M  V30 12 O 8.056252 5.769284 -17.589699 0
M  V30 13 C 9.973729 8.569297 -10.146798 0
M  V30 14 C 9.093862 5.717220 -12.515664 0 CFG=2
M  V30 15 O 11.108159 6.969262 -12.157237 0
M  V30 16 C 6.622921 6.764356 -15.169090 0
M  V30 17 C 7.535434 4.510644 -17.026389 0
M  V30 18 C 12.905340 8.692030 -8.937789 0
M  V30 19 C 6.889201 5.329493 -17.814042 0
M  V30 20 O 9.434846 7.267377 -8.286716 0
M  V30 21 C 5.744886 6.203070 -17.429868 0
M  V30 22 C 9.434874 7.935786 -5.949380 0
M  V30 23 F 8.634851 5.911233 -6.704535 0
M  V30 24 C 9.936378 6.788042 -11.824798 0
M  V30 25 C 7.577561 5.941462 -12.367643 0
M  V30 26 C 9.434501 4.315574 -12.011071 0
M  V30 27 C 6.899327 5.365469 -14.777002 0
M  V30 28 C 8.669455 3.284453 -12.848250 0
M  V30 29 C 5.290986 5.186369 -12.898857 0
M  V30 30 H 12.954299 6.569276 -7.091667 0
M  V30 31 H 12.028200 7.915865 -6.529835 0
M  V30 32 H 7.427546 3.399768 -15.288716 0
M  V30 33 H 10.376320 9.094052 -8.152186 0
M  V30 34 H 10.959235 5.239397 -7.494278 0
M  V30 35 H 11.081828 5.769350 -5.821955 0
M  V30 36 H 5.943265 8.190135 -16.535466 0
M  V30 37 H 11.892390 6.834441 -9.397599 0
M  V30 38 H 14.623859 8.911801 -9.743749 0
M  V30 39 H 8.364531 7.289136 -10.628486 0
M  V30 40 H 6.622103 2.791822 -13.441978 0
M  V30 41 H 6.796775 3.369573 -11.834924 0
M  V30 42 H 9.206359 9.340231 -10.044310 0
M  V30 43 H 10.816483 8.969289 -10.691661 0
M  V30 44 H 9.356378 5.774012 -13.572858 0
M  V30 45 H 6.794037 7.537785 -14.440384 0
M  V30 46 H 13.165228 9.210027 -8.017315 0
M  V30 47 H 12.556026 9.453111 -9.630376 0
M  V30 48 H 5.441218 6.780124 -18.303655 0
M  V30 49 H 4.882365 5.616999 -17.119390 0
M  V30 50 H 10.041518 8.818428 -6.128357 0
M  V30 51 H 8.398583 8.264604 -5.891680 0
M  V30 52 H 9.795217 7.537683 -5.008170 0
M  V30 53 H 7.299775 5.756183 -11.327095 0
M  V30 54 H 7.316789 6.985220 -12.527985 0
M  V30 55 H 10.507011 4.168872 -12.090335 0
M  V30 56 H 9.178341 4.209495 -10.955826 0
M  V30 57 H 9.034834 3.369311 -13.862677 0
M  V30 58 H 8.892536 2.273041 -12.508311 0
M  V30 59 H 5.083504 4.906644 -11.864260 0
M  V30 60 H 5.034803 6.239645 -12.999316 0
M  V30 61 H 4.634897 4.599994 -13.540946 0
M  V30 END ATOM
M  V30 BEGIN BOND
M  V30 1 1 5 1
M  V30 2 1 7 1
M  V30 3 1 7 4
M  V30 4 1 10 5
M  V30 5 1 11 2
M  V30 6 1 13 4
M  V30 7 1 13 9
M  V30 8 2 16 6
M  V30 9 1 17 3
M  V30 10 1 17 12
M  V30 11 1 18 7
M  V30 12 1 18 8
M  V30 13 1 19 12
M  V30 14 2 19 17
M  V30 15 1 20 4
M  V30 16 1 20 10
M  V30 17 1 21 6
M  V30 18 1 21 19
M  V30 19 1 22 10
M  V30 20 1 10 23 CFG=1
M  V30 21 1 24 9
M  V30 22 1 24 14
M  V30 23 2 24 15
M  V30 24 1 25 2
M  V30 25 1 25 14
M  V30 26 1 26 14
M  V30 27 1 27 2
M  V30 28 2 27 3
M  V30 29 1 27 16
M  V30 30 1 28 11
M  V30 31 1 28 26
M  V30 32 1 2 29 CFG=1
M  V30 33 1 30 1
M  V30 34 1 31 1
M  V30 35 1 32 3
M  V30 36 1 4 33 CFG=1
M  V30 37 1 34 5
M  V30 38 1 35 5
M  V30 39 1 36 6
M  V30 40 1 7 37 CFG=3
M  V30 41 1 38 8
M  V30 42 1 39 9
M  V30 43 1 40 11
M  V30 44 1 41 11
M  V30 45 1 42 13
M  V30 46 1 43 13
M  V30 47 1 14 44 CFG=3
M  V30 48 1 45 16
M  V30 49 1 46 18
M  V30 50 1 47 18
M  V30 51 1 48 21
M  V30 52 1 49 21
M  V30 53 1 50 22
M  V30 54 1 51 22
M  V30 55 1 52 22
M  V30 56 1 53 25
M  V30 57 1 54 25
M  V30 58 1 55 26
M  V30 59 1 56 26
M  V30 60 1 57 28
M  V30 61 1 58 28
M  V30 62 1 59 29
M  V30 63 1 60 29
M  V30 64 1 61 29
M  V30 END BOND
M  V30 END CTAB
M  END
>  <i_epik_Tot_Q>  (1) 
0

>  <i_epik_Tot_abs_Q>  (1) 
0

>  <i_i_glide_confnum>  (1) 
162

>  <i_i_glide_lignum>  (1) 
110

>  <i_i_glide_posenum>  (1) 
246

>  <i_i_glide_rotatable_bonds>  (1) 
7

>  <i_lp_mmshare_version>  (1) 
72125

>  <i_m_source_file_index>  (1) 
45

>  <i_f3d_flags>  (1) 
0

>  <num_sample>  (1) 
50

>  <b_lp_Chiralities_Consistent>  (1) 
1

>  <r_epik_Charging_Adjusted_Penalty>  (1) 
0

>  <r_epik_Ionization_Penalty>  (1) 
7.6933096193548639e-08

>  <r_epik_Ionization_Penalty_Charging>  (1) 
0

>  <r_epik_Ionization_Penalty_Neutral>  (1) 
7.6933096193548639e-08

>  <r_epik_State_Penalty>  (1) 
-0

>  <r_glide_ring_energy>  (1) 
0

>  <r_i_docking_score>  (1) 
-5.3567024012310123

>  <r_i_glide_ecoul>  (1) 
-5.5172241466514764

>  <r_i_glide_eff_state_penalty>  (1) 
-0

>  <r_i_glide_einternal>  (1) 
12.218810543476604

>  <r_i_glide_emodel>  (1) 
-23.372566820221905

>  <r_i_glide_emodel_strain>  (1) 
1.6766837703949022

>  <r_i_glide_energy>  (1) 
-23.003642135578961

>  <r_i_glide_erotb>  (1) 
0.71709703680073922

>  <r_i_glide_esite>  (1) 
-0.16409981855867406

>  <r_i_glide_evdw>  (1) 
-17.486417988927485

>  <r_i_glide_gscore>  (1) 
-5.3567024012310123

>  <r_i_glide_gscore_strain>  (1) 
0

>  <r_i_glide_hbond>  (1) 
-0.36820723678752076

>  <r_i_glide_ligand_efficiency>  (1) 
-0.18471387590451765

>  <r_i_glide_ligand_efficiency_ln>  (1) 
-1.2265490156291066

>  <r_i_glide_ligand_efficiency_sa>  (1) 
-0.56749954887909726

>  <r_i_glide_lipo>  (1) 
-2.260212131492608

>  <r_i_glide_metal>  (1) 
-0

>  <r_i_glide_rewards>  (1) 
-1.5793757297488527

>  <r_lp_Energy>  (1) 
41.397649999999999

>  <r_lp_tautomer_probability>  (1) 
1

>  <s_epik_cmdline>  (1) 
J2VwaWtfcHl0aG9uJywgJy1waHQnLCAnMS4wJywgJy1waCcsICc3LjQnLCAnLXRuJywgJzgnLCAnLW1hJywgJzUwMCcsICctaW1hZScsICc8aW5maWxlLm1hZT4nLCAnLW9tYWUnLCAnPG91dGZpbGUubWFlPic=

>  <s_epik_input>  (1) 
W0NIM11bQ0BdMShGKVtDSDJdW0NIMl1bQ0BIXShbQ0gyXVtPSF0pW0NASF0oTzEpW0NIMl1bTkhdQyg9TylbQ0BIXShbQ0gyXTIpW0NIMl1bQ0gyXVtDSDJdW0NAXTIoW0NIM10pQyg9W0NIXTMpW0NIXT1bQ0hdW0NIMl1DKE80KT1DMzQ=

>  <s_glide_docking_method>  (1) 
confgen

>  <s_i_glide_gridfile>  (1) 
gpcr_drd2_6luq_protein_autoprepared_prepared

>  <s_lp_Force_Field>  (1) 
S-OPLS

>  <s_lp_Variant>  (1) 
DiffSBDD_44_num_sample_50-1

>  <s_m_source_file>  (1) 
generated__ligand_DiffSBDD_2026-05-06_prepared.sdf

>  <GenAI_Model>  (1) 
DiffSBDD

>  <Protein>  (1) 
generic_title2

$$$$
DiffSBDD_0_num_sample_50
     RDKit          3D

  0  0  0  0  0  0  0  0  0  0999 V3000
M  V30 BEGIN CTAB
M  V30 COUNTS 58 61 0 0 1
M  V30 BEGIN ATOM
M  V30 1 C 5.863037 6.417737 -17.771723 0
M  V30 2 C 8.065490 5.545668 -11.057823 0 CFG=2
M  V30 3 N 8.018782 4.419956 -12.045827 0 CFG=1 CHG=1
M  V30 4 N 7.527887 5.366461 -15.766414 0
M  V30 5 C 10.239667 7.285622 -5.719392 0
M  V30 6 C 11.304541 8.003051 -7.916425 0
M  V30 7 C 9.982016 7.025111 -12.013380 0
M  V30 8 S 9.504154 5.973157 -8.048634 0
M  V30 9 O 8.634770 2.349956 -12.691681 0
M  V30 10 C 6.917214 5.524282 -18.096227 0
M  V30 11 C 6.921350 6.482404 -11.520802 0
M  V30 12 C 7.812989 4.962996 -17.014841 0
M  V30 13 C 5.900626 4.804413 -13.297495 0
M  V30 14 C 9.499388 6.179163 -10.839375 0 CFG=1
M  V30 15 C 8.251108 4.884658 -14.592757 0
M  V30 16 N 11.034497 6.569448 -12.691708 0
M  V30 17 O 9.420932 8.078011 -12.291653 0
M  V30 18 F 4.441915 7.038771 -21.103341 0
M  V30 19 O 8.726315 4.184013 -17.286237 0
M  V30 20 C 5.030817 6.924005 -18.787995 0
M  V30 21 C 9.725463 6.993373 -9.530184 0 CFG=2
M  V30 22 C 6.596164 6.102275 -12.936872 0 CFG=2
M  V30 23 C 6.287663 5.664484 -20.455650 0
M  V30 24 F 11.212635 7.835538 -4.992497 0
M  V30 25 F 9.258259 8.171139 -5.891908 0
M  V30 26 C 7.408701 4.900796 -13.317206 0 CFG=2
M  V30 27 C 9.187614 3.509722 -12.110623 0
M  V30 28 F 4.021607 7.769416 -18.475085 0
M  V30 29 C 5.243735 6.549133 -20.128206 0
M  V30 30 C 10.778796 6.829224 -7.078457 0 CFG=2
M  V30 31 C 11.119833 7.645735 -9.385659 0
M  V30 32 C 7.123012 5.151529 -19.444092 0
M  V30 33 H 5.688929 6.712591 -16.748771 0
M  V30 34 H 7.761362 5.110668 -10.105250 0
M  V30 35 H 6.766736 6.010439 -15.619563 0
M  V30 36 H 9.835103 6.449274 -5.148311 0
M  V30 37 H 10.728559 8.904744 -7.707783 0
M  V30 38 H 12.344320 8.232345 -7.682342 0
M  V30 39 H 8.950715 1.604381 -12.187079 0
M  V30 40 H 7.170807 7.540770 -11.491686 0
M  V30 41 H 6.022971 6.331075 -10.920085 0
M  V30 42 H 5.377663 4.769159 -14.250557 0
M  V30 43 H 5.423436 4.245269 -12.493847 0
M  V30 44 H 10.195679 5.356237 -10.744148 0
M  V30 45 H 9.132208 5.509119 -14.451854 0
M  V30 46 H 8.607250 3.869765 -14.774467 0
M  V30 47 H 11.462816 5.690366 -12.438908 0
M  V30 48 H 11.392884 7.098574 -13.473571 0
M  V30 49 H 9.034835 7.825731 -9.470428 0
M  V30 50 H 6.508268 6.923552 -13.645551 0
M  V30 51 H 6.447177 5.376898 -21.484673 0
M  V30 52 H 9.502360 3.262723 -11.097978 0
M  V30 53 H 10.027181 3.903007 -12.681721 0
M  V30 54 H 11.586179 6.111636 -6.925251 0
M  V30 55 H 11.912554 6.969310 -9.692050 0
M  V30 56 H 11.215706 8.539599 -10.004453 0
M  V30 57 H 7.920721 4.469839 -19.701748 0
M  V30 58 H 7.294104 3.825297 -11.672152 0
M  V30 END ATOM
M  V30 BEGIN BOND
M  V30 1 1 3 2
M  V30 2 2 10 1
M  V30 3 1 11 2
M  V30 4 1 12 4
M  V30 5 1 12 10
M  V30 6 1 14 2
M  V30 7 1 14 7
M  V30 8 1 15 4
M  V30 9 1 16 7
M  V30 10 2 17 7
M  V30 11 2 19 12
M  V30 12 1 20 1
M  V30 13 1 21 8
M  V30 14 1 21 14
M  V30 15 1 22 11
M  V30 16 1 22 13
M  V30 17 1 24 5
M  V30 18 1 25 5
M  V30 19 1 26 3
M  V30 20 1 26 13
M  V30 21 1 26 15 CFG=3
M  V30 22 1 26 22
M  V30 23 1 27 3
M  V30 24 1 27 9
M  V30 25 1 28 20
M  V30 26 1 29 18
M  V30 27 2 29 20
M  V30 28 1 29 23
M  V30 29 1 30 5
M  V30 30 1 30 6
M  V30 31 1 30 8
M  V30 32 1 31 6
M  V30 33 1 31 21
M  V30 34 1 32 10
M  V30 35 2 32 23
M  V30 36 1 33 1
M  V30 37 1 2 34 CFG=1
M  V30 38 1 35 4
M  V30 39 1 36 5
M  V30 40 1 37 6
M  V30 41 1 38 6
M  V30 42 1 39 9
M  V30 43 1 40 11
M  V30 44 1 41 11
M  V30 45 1 42 13
M  V30 46 1 43 13
M  V30 47 1 14 44 CFG=1
M  V30 48 1 45 15
M  V30 49 1 46 15
M  V30 50 1 47 16
M  V30 51 1 48 16
M  V30 52 1 21 49 CFG=1
M  V30 53 1 22 50 CFG=3
M  V30 54 1 51 23
M  V30 55 1 52 27
M  V30 56 1 53 27
M  V30 57 1 30 54 CFG=1
M  V30 58 1 55 31
M  V30 59 1 56 31
M  V30 60 1 57 32
M  V30 61 1 3 58 CFG=1
M  V30 END BOND
M  V30 END CTAB
M  END
>  <i_epik_Tot_Q>  (1) 
1

>  <i_epik_Tot_abs_Q>  (1) 
1

>  <i_i_glide_confnum>  (1) 
159

>  <i_i_glide_lignum>  (1) 
3

>  <i_i_glide_posenum>  (1) 
396

>  <i_i_glide_rotatable_bonds>  (1) 
10

>  <i_lp_mmshare_version>  (1) 
72125

>  <i_m_source_file_index>  (1) 
1

>  <i_f3d_flags>  (1) 
0

>  <num_sample>  (1) 
50

>  <b_lp_Chiralities_Consistent>  (1) 
1

>  <r_epik_Charging_Adjusted_Penalty>  (1) 
2.6270329568783799

>  <r_epik_Ionization_Penalty>  (1) 
1.3408557112072272

>  <r_epik_Ionization_Penalty_Charging>  (1) 
1.3119003563655398

>  <r_epik_Ionization_Penalty_Neutral>  (1) 
0.028955354841687337

>  <r_epik_State_Penalty>  (1) 
1.3151326005128403

>  <r_glide_ring_energy>  (1) 
0

>  <r_i_docking_score>  (1) 
-5.3525976096033006

>  <r_i_glide_ecoul>  (1) 
-8.9926575562446711

>  <r_i_glide_eff_state_penalty>  (1) 
1.3151326005128403

>  <r_i_glide_einternal>  (1) 
6.3527672920770328

>  <r_i_glide_emodel>  (1) 
-56.851776331446388

>  <r_i_glide_emodel_strain>  (1) 
0.0020032360792470172

>  <r_i_glide_energy>  (1) 
-40.959930893376601

>  <r_i_glide_erotb>  (1) 
0.53508942527165992

>  <r_i_glide_esite>  (1) 
-0.035602666643516481

>  <r_i_glide_evdw>  (1) 
-31.967273337131932

>  <r_i_glide_gscore>  (1) 
-6.6677302101161411

>  <r_i_glide_gscore_strain>  (1) 
0

>  <r_i_glide_hbond>  (1) 
-0.48574203190210585

>  <r_i_glide_ligand_efficiency>  (1) 
-0.16726867530010314

>  <r_i_glide_ligand_efficiency_ln>  (1) 
-1.1985925110904048

>  <r_i_glide_ligand_efficiency_sa>  (1) 
-0.53104494226542187

>  <r_i_glide_lipo>  (1) 
-1.8112783203839817

>  <r_i_glide_metal>  (1) 
-0

>  <r_i_glide_rewards>  (1) 
-1.9229343161648995

>  <r_lp_Energy>  (1) 
18.756574999999998

>  <s_epik_Chemistry_Notes>  (1) 
This compound contains an acetal/aminal-like group ( X-CH(R)-Y where X, Y are N, S, or O) that may be acid/base labile, releasing an aldehyde.

>  <s_epik_cmdline>  (1) 
J2VwaWtfcHl0aG9uJywgJy1waHQnLCAnMS4wJywgJy1waCcsICc3LjQnLCAnLXRuJywgJzgnLCAnLW1hJywgJzUwMCcsICctaW1hZScsICc8aW5maWxlLm1hZT4nLCAnLW9tYWUnLCAnPG91dGZpbGUubWFlPic=

>  <s_epik_input>  (1) 
W2NIXTFbY0hdYyhGKWMoRilbY0hdYzFDKD1PKVtOSF1bQ0gyXVtDQF0yM1tDQEBIXShbQ0gyXTMpW0NIMl1bQ0BASF0oTjJbQ0gyXVtPSF0pW0NAQEhdKEMoPU8pW05IMl0pW0NASF00U1tDQEhdKFtDSF0oRilGKVtDSDJdW0NIMl00

>  <s_glide_docking_method>  (1) 
confgen

>  <s_i_glide_gridfile>  (1) 
gpcr_drd2_6luq_protein_autoprepared_prepared

>  <s_lp_Force_Field>  (1) 
S-OPLS

>  <s_lp_Variant>  (1) 
DiffSBDD_0_num_sample_50-3

>  <s_m_source_file>  (1) 
generated__ligand_DiffSBDD_2026-05-06_prepared.sdf

>  <GenAI_Model>  (1) 
DiffSBDD

>  <Protein>  (1) 
generic_title2

$$$$
DiffSBDD_10_num_sample_50
     RDKit          3D

  0  0  0  0  0  0  0  0  0  0999 V3000
M  V30 BEGIN CTAB
M  V30 COUNTS 72 73 0 0 1
M  V30 BEGIN ATOM
M  V30 1 C 6.135659 7.529456 -22.356174 0 CFG=2
M  V30 2 C 8.708362 4.615308 -9.958798 0
M  V30 3 C 6.922767 6.045127 -13.290602 0
M  V30 4 C 5.882538 7.103145 -16.895740 0 CFG=1
M  V30 5 C 4.902642 7.766753 -21.468848 0 CFG=2
M  V30 6 N 6.402219 4.607192 -10.691682 0
M  V30 7 N 4.079106 7.647026 -18.334438 0
M  V30 8 C 5.263047 7.478904 -19.121312 0 CFG=1
M  V30 9 S 6.754902 9.048324 -23.247708 0
M  V30 10 C 8.424710 4.935521 -8.499572 0
M  V30 11 S 7.434828 10.169299 -21.594750 0 CHG=-1
M  V30 12 C 8.458047 6.917152 -21.386874 0
M  V30 13 O 9.708887 8.569303 -7.023500 0
M  V30 14 O 7.939785 8.680292 -24.034321 0
M  V30 15 C 4.753551 7.099618 -22.820562 0 CFG=2
M  V30 16 C 8.275241 4.228017 -14.630245 0
M  V30 17 C 4.357412 7.291366 -16.953553 0 CFG=1
M  V30 18 N 9.434837 7.157353 -8.738122 0 CHG=1
M  V30 19 N 8.114829 4.181854 -12.220388 0
M  V30 20 C 9.435732 5.921305 -7.930767 0
M  V30 21 C 6.094684 5.139020 -18.598268 0
M  V30 22 C 7.218193 6.462007 -22.170067 0
M  V30 23 C 4.106257 9.053566 -21.243668 0
M  V30 24 C 6.453915 6.170756 -15.820412 0
M  V30 25 C 7.782032 4.778658 -13.302083 0
M  V30 26 O 4.389865 5.733243 -22.693622 0
M  V30 27 C 7.764126 4.483760 -10.907919 0
M  V30 28 O 5.640764 9.783864 -23.865582 0
M  V30 29 F 3.700137 6.169327 -16.691651 0
M  V30 30 N 9.435088 4.969300 -15.105359 0
M  V30 31 C 10.314857 8.234511 -8.254023 0
M  V30 32 C 6.258540 6.650789 -18.315506 0 CFG=2
M  V30 33 O 4.987113 6.879938 -20.348057 0
M  V30 34 C 6.358226 6.645339 -14.381727 0
M  V30 35 H 9.747472 4.485677 -10.227931 0
M  V30 36 H 6.765944 6.477152 -12.315022 0
M  V30 37 H 6.311863 8.092268 -16.728258 0
M  V30 38 H 6.020068 4.779374 -9.766568 0
M  V30 39 H 3.331257 7.063708 -18.675996 0
M  V30 40 H 5.713567 8.458611 -19.284266 0
M  V30 41 H 8.436533 4.030584 -7.891699 0
M  V30 42 H 7.434861 5.366513 -8.396265 0
M  V30 43 H 9.082124 6.065586 -21.117261 0
M  V30 44 H 9.075825 7.600269 -21.969169 0
M  V30 45 H 8.183180 7.436485 -20.472164 0
M  V30 46 H 9.167049 9.335654 -7.144084 0
M  V30 47 H 4.267719 7.616852 -23.644895 0
M  V30 48 H 8.634138 3.217727 -14.438266 0
M  V30 49 H 7.498279 4.055305 -15.363002 0
M  V30 50 H 4.001813 8.060239 -16.267102 0
M  V30 51 H 8.467800 7.488244 -8.811493 0
M  V30 52 H 10.435712 5.484989 -7.927186 0
M  V30 53 H 9.169844 6.128530 -6.893068 0
M  V30 54 H 5.066475 4.814727 -18.452926 0
M  V30 55 H 6.367650 4.892991 -19.621735 0
M  V30 56 H 6.738747 4.534460 -17.961102 0
M  V30 57 H 6.785381 5.597146 -21.673209 0
M  V30 58 H 7.526653 6.112094 -23.155566 0
M  V30 59 H 3.838268 9.525683 -22.187139 0
M  V30 60 H 3.177586 8.834631 -20.718487 0
M  V30 61 H 4.672443 9.771720 -20.653969 0
M  V30 62 H 7.492799 6.075808 -16.106415 0
M  V30 63 H 5.938995 5.216467 -15.889810 0
M  V30 64 H 4.893263 5.235020 -23.319648 0
M  V30 65 H 10.183824 4.868633 -14.429887 0
M  V30 66 H 9.779279 4.555599 -15.960034 0
M  V30 67 H 10.317696 9.075181 -8.947911 0
M  V30 68 H 11.335448 7.879246 -8.109080 0
M  V30 69 H 7.275742 6.957322 -18.552513 0
M  V30 70 H 5.776449 7.542209 -14.228164 0
M  V30 71 H 5.732019 4.457127 -11.430432 0
M  V30 72 H 9.715387 6.908945 -9.674747 0
M  V30 END ATOM
M  V30 BEGIN BOND
M  V30 1 1 5 1
M  V30 2 1 8 7
M  V30 3 1 9 1
M  V30 4 1 10 2
M  V30 5 1 11 9
M  V30 6 2 14 9
M  V30 7 1 15 1
M  V30 8 1 15 5
M  V30 9 1 17 4
M  V30 10 1 17 7
M  V30 11 1 20 10
M  V30 12 1 20 18
M  V30 13 1 1 22 CFG=1
M  V30 14 1 22 12
M  V30 15 1 23 5
M  V30 16 1 24 4
M  V30 17 1 25 3
M  V30 18 1 25 16
M  V30 19 2 25 19
M  V30 20 1 26 15
M  V30 21 2 27 2
M  V30 22 1 27 6
M  V30 23 1 27 19
M  V30 24 2 28 9
M  V30 25 1 29 17
M  V30 26 1 30 16
M  V30 27 1 31 13
M  V30 28 1 31 18
M  V30 29 1 32 4
M  V30 30 1 32 8
M  V30 31 1 32 21
M  V30 32 1 5 33 CFG=1
M  V30 33 1 33 8
M  V30 34 2 34 3
M  V30 35 1 34 24
M  V30 36 1 35 2
M  V30 37 1 36 3
M  V30 38 1 4 37 CFG=1
M  V30 39 1 38 6
M  V30 40 1 39 7
M  V30 41 1 8 40 CFG=3
M  V30 42 1 41 10
M  V30 43 1 42 10
M  V30 44 1 43 12
M  V30 45 1 44 12
M  V30 46 1 45 12
M  V30 47 1 46 13
M  V30 48 1 15 47 CFG=3
M  V30 49 1 48 16
M  V30 50 1 49 16
M  V30 51 1 17 50 CFG=1
M  V30 52 1 51 18
M  V30 53 1 52 20
M  V30 54 1 53 20
M  V30 55 1 54 21
M  V30 56 1 55 21
M  V30 57 1 56 21
M  V30 58 1 57 22
M  V30 59 1 58 22
M  V30 60 1 59 23
M  V30 61 1 60 23
M  V30 62 1 61 23
M  V30 63 1 62 24
M  V30 64 1 63 24
M  V30 65 1 64 26
M  V30 66 1 65 30
M  V30 67 1 66 30
M  V30 68 1 67 31
M  V30 69 1 68 31
M  V30 70 1 32 69 CFG=3
M  V30 71 1 70 34
M  V30 72 1 71 6
M  V30 73 1 72 18
M  V30 END BOND
M  V30 END CTAB
M  END
>  <i_epik_Tot_Q>  (1) 
0

>  <i_epik_Tot_abs_Q>  (1) 
2

>  <i_i_glide_confnum>  (1) 
1218

>  <i_i_glide_lignum>  (1) 
21

>  <i_i_glide_posenum>  (1) 
192

>  <i_i_glide_rotatable_bonds>  (1) 
15

>  <i_lp_mmshare_version>  (1) 
72125

>  <i_m_source_file_index>  (1) 
11

>  <i_f3d_flags>  (1) 
0

>  <num_sample>  (1) 
50

>  <b_lp_Chiralities_Consistent>  (1) 
1

>  <r_epik_Charging_Adjusted_Penalty>  (1) 
0.33639934582642134

>  <r_epik_Ionization_Penalty>  (1) 
0.23315943830934333

>  <r_epik_Ionization_Penalty_Charging>  (1) 
0.10316865490585193

>  <r_epik_Ionization_Penalty_Neutral>  (1) 
0.12999078340349141

>  <r_epik_State_Penalty>  (1) 
0.23323069092056939

>  <r_glide_ring_energy>  (1) 
0

>  <r_i_docking_score>  (1) 
-5.3394708548180443

>  <r_i_glide_ecoul>  (1) 
-7.4245995338008379

>  <r_i_glide_eff_state_penalty>  (1) 
0.23323069092056939

>  <r_i_glide_einternal>  (1) 
12.056524053284519

>  <r_i_glide_emodel>  (1) 
-42.70639222816456

>  <r_i_glide_emodel_strain>  (1) 
2.994677817498669

>  <r_i_glide_energy>  (1) 
-39.808175148627463

>  <r_i_glide_erotb>  (1) 
0.82510599487301828

>  <r_i_glide_esite>  (1) 
-0.21532625500815705

>  <r_i_glide_evdw>  (1) 
-32.383575614826626

>  <r_i_glide_gscore>  (1) 
-5.5727015457386138

>  <r_i_glide_gscore_strain>  (1) 
0

>  <r_i_glide_hbond>  (1) 
-0.61580297946637663

>  <r_i_glide_ligand_efficiency>  (1) 
-0.15704326043582484

>  <r_i_glide_ligand_efficiency_ln>  (1) 
-1.1796388789138343

>  <r_i_glide_ligand_efficiency_sa>  (1) 
-0.50875919981899154

>  <r_i_glide_lipo>  (1) 
-1.8033344267582441

>  <r_i_glide_metal>  (1) 
-0

>  <r_i_glide_rewards>  (1) 
-1.0304751685673974

>  <r_lp_Energy>  (1) 
25.793744999999998

>  <s_epik_Chemistry_Notes>  (1) 
This compound has an imine and may undergo hydrolysis. This compound contains an acetal/aminal-like group ( X-CH(R)-Y where X, Y are N, S, or O) that may be acid/base labile, releasing an aldehyde.

>  <s_epik_cmdline>  (1) 
J2VwaWtfcHl0aG9uJywgJy1waHQnLCAnMS4wJywgJy1waCcsICc3LjQnLCAnLXRuJywgJzgnLCAnLW1hJywgJzUwMCcsICctaW1hZScsICc8aW5maWxlLm1hZT4nLCAnLW9tYWUnLCAnPG91dGZpbGUubWFlPic=

>  <s_epik_input>  (1) 
W1NIXVMoPU8pKD1PKVtDQEBdMShbQ0gyXVtDSDNdKVtDQEBdKFtDSDNdKShbQ0BASF0xW09IXSlPW0NASF0oW0NAQEhdMltDSDNdKVtOSF1bQ0BASF0oRilbQ0BIXTJbQ0gyXS9bQ0hdPVtDSF1cQyhbQ0gyXVtOSDJdKT1OL0MoPU4vW0hdKS9bQ0gyXVtDSDJdW0NIMl1bTkhdW0NIMl1bT0hd

>  <s_glide_docking_method>  (1) 
confgen

>  <s_i_glide_gridfile>  (1) 
gpcr_drd2_6luq_protein_autoprepared_prepared

>  <s_lp_Force_Field>  (1) 
S-OPLS

>  <s_lp_Variant>  (1) 
DiffSBDD_10_num_sample_50-1

>  <s_m_source_file>  (1) 
generated__ligand_DiffSBDD_2026-05-06_prepared.sdf

>  <GenAI_Model>  (1) 
DiffSBDD

>  <Protein>  (1) 
generic_title2

$$$$
DiffSBDD_11_num_sample_50
     RDKit          3D

  0  0  0  0  0  0  0  0  0  0999 V3000
M  V30 BEGIN CTAB
M  V30 COUNTS 69 72 0 0 1
M  V30 BEGIN ATOM
M  V30 1 C 9.110879 4.687382 -13.737072 0
M  V30 2 C 6.519036 3.663156 -19.238812 0
M  V30 3 C 6.677928 5.915588 -12.496813 0 CFG=1
M  V30 4 O 9.542417 8.565632 -6.292098 0
M  V30 5 C 6.498189 4.885768 -15.617155 0
M  V30 6 O 5.739528 6.567484 -11.658040 0
M  V30 7 C 10.753992 6.955931 -7.608495 0
M  V30 8 C 10.739179 7.819456 -6.337719 0 CFG=2
M  V30 9 C 9.374643 5.044750 -16.205064 0
M  V30 10 C 11.852380 7.890380 -4.187356 0
M  V30 11 C 9.252558 5.581599 -12.502551 0
M  V30 12 C 5.837005 4.116319 -20.546167 0
M  V30 13 C 5.965813 5.604530 -20.876212 0
M  V30 14 C 10.949740 7.002889 -5.049376 0
M  V30 15 C 7.067682 4.137518 -16.870262 0 CFG=2
M  V30 16 C 7.851362 4.569579 -10.652429 0
M  V30 17 O 8.096902 4.972245 -9.315926 0
M  V30 18 C 6.205521 5.917785 -18.411591 0
M  V30 19 N 8.800693 5.514889 -14.920921 0 CFG=1 CHG=1
M  V30 20 C 7.402262 5.986196 -15.049368 0 CFG=2
M  V30 21 F 7.161799 5.800061 -21.435825 0
M  V30 22 C 8.587541 3.872986 -16.792105 0
M  V30 23 C 9.484383 6.090872 -7.736234 0
M  V30 24 C 9.450087 5.274637 -9.024549 0
M  V30 25 F 5.021262 5.973441 -21.742930 0
M  V30 26 N 6.613910 4.576597 -18.220158 0
M  V30 27 O 11.835801 8.667153 -6.386447 0
M  V30 28 C 6.837940 6.733894 -13.802849 0
M  V30 29 C 12.125302 9.109834 -5.065397 0
M  V30 30 C 5.885243 6.414956 -19.613344 0
M  V30 31 O 6.909801 2.500124 -19.127982 0
M  V30 32 C 7.970132 5.731684 -11.664200 0 CFG=2
M  V30 33 F 5.480908 7.692444 -19.693212 0
M  V30 34 H 10.080941 4.232737 -13.888860 0
M  V30 35 H 8.412582 3.865377 -13.589240 0
M  V30 36 H 6.248411 4.945334 -12.747596 0
M  V30 37 H 8.851121 8.025288 -6.653475 0
M  V30 38 H 5.511521 5.316317 -15.798429 0
M  V30 39 H 6.343624 4.140290 -14.839795 0
M  V30 40 H 6.187539 6.950084 -10.903020 0
M  V30 41 H 10.838626 7.623792 -8.464573 0
M  V30 42 H 11.649303 6.339250 -7.594799 0
M  V30 43 H 9.367076 5.870410 -16.916209 0
M  V30 44 H 10.424133 4.777415 -16.077807 0
M  V30 45 H 12.770615 7.367487 -3.924969 0
M  V30 46 H 11.434818 8.197218 -3.232125 0
M  V30 47 H 9.598692 6.570845 -12.797499 0
M  V30 48 H 10.060584 5.188876 -11.884072 0
M  V30 49 H 6.207039 3.516405 -21.375354 0
M  V30 50 H 4.780487 3.864178 -20.448379 0
M  V30 51 H 10.004073 6.712670 -4.597840 0
M  V30 52 H 11.482568 6.084714 -5.294532 0
M  V30 53 H 6.634839 3.138784 -16.767274 0
M  V30 54 H 8.532747 3.768877 -10.920798 0
M  V30 55 H 6.850274 4.143085 -10.667997 0
M  V30 56 H 6.170601 6.505869 -17.512113 0
M  V30 57 H 7.434671 6.753986 -15.811490 0
M  V30 58 H 8.988762 3.630933 -17.777763 0
M  V30 59 H 8.761674 2.987157 -16.179468 0
M  V30 60 H 9.358904 5.432907 -6.879577 0
M  V30 61 H 8.612055 6.738675 -7.750809 0
M  V30 62 H 9.900055 5.869770 -9.815969 0
M  V30 63 H 10.029519 4.356628 -8.925396 0
M  V30 64 H 7.413627 7.639704 -13.601020 0
M  V30 65 H 5.845140 7.092457 -14.082298 0
M  V30 66 H 13.152719 9.464428 -4.978626 0
M  V30 67 H 11.459687 9.932820 -4.800427 0
M  V30 68 H 8.109580 6.645087 -11.089593 0
M  V30 69 H 9.329213 6.355274 -14.740130 0
M  V30 END ATOM
M  V30 BEGIN BOND
M  V30 1 1 6 3
M  V30 2 1 8 4 CFG=1
M  V30 3 1 8 7
M  V30 4 1 11 1
M  V30 5 1 12 2
M  V30 6 1 13 12
M  V30 7 1 14 8
M  V30 8 1 14 10
M  V30 9 1 15 5
M  V30 10 1 17 16
M  V30 11 1 19 1
M  V30 12 1 19 9
M  V30 13 1 20 5
M  V30 14 1 20 19
M  V30 15 1 21 13
M  V30 16 1 22 9
M  V30 17 1 22 15
M  V30 18 1 23 7
M  V30 19 1 24 17
M  V30 20 1 24 23
M  V30 21 1 25 13
M  V30 22 1 26 2
M  V30 23 1 26 15
M  V30 24 1 26 18
M  V30 25 1 27 8
M  V30 26 1 28 3
M  V30 27 1 28 20
M  V30 28 1 29 10
M  V30 29 1 29 27
M  V30 30 1 30 13
M  V30 31 2 30 18
M  V30 32 2 31 2
M  V30 33 1 32 3
M  V30 34 1 32 11
M  V30 35 1 32 16
M  V30 36 1 33 30
M  V30 37 1 34 1
M  V30 38 1 35 1
M  V30 39 1 3 36 CFG=3
M  V30 40 1 37 4
M  V30 41 1 38 5
M  V30 42 1 39 5
M  V30 43 1 40 6
M  V30 44 1 41 7
M  V30 45 1 42 7
M  V30 46 1 43 9
M  V30 47 1 44 9
M  V30 48 1 45 10
M  V30 49 1 46 10
M  V30 50 1 47 11
M  V30 51 1 48 11
M  V30 52 1 49 12
M  V30 53 1 50 12
M  V30 54 1 51 14
M  V30 55 1 52 14
M  V30 56 1 15 53 CFG=1
M  V30 57 1 54 16
M  V30 58 1 55 16
M  V30 59 1 56 18
M  V30 60 1 20 57 CFG=3
M  V30 61 1 58 22
M  V30 62 1 59 22
M  V30 63 1 60 23
M  V30 64 1 61 23
M  V30 65 1 62 24
M  V30 66 1 63 24
M  V30 67 1 64 28
M  V30 68 1 65 28
M  V30 69 1 66 29
M  V30 70 1 67 29
M  V30 71 1 32 68 CFG=1
M  V30 72 1 19 69 CFG=1
M  V30 END BOND
M  V30 END CTAB
M  END
>  <i_epik_Tot_Q>  (1) 
1

>  <i_epik_Tot_abs_Q>  (1) 
1

>  <i_i_glide_confnum>  (1) 
216

>  <i_i_glide_lignum>  (1) 
45

>  <i_i_glide_posenum>  (1) 
69

>  <i_i_glide_rotatable_bonds>  (1) 
9

>  <i_lp_mmshare_version>  (1) 
72125

>  <i_m_source_file_index>  (1) 
12

>  <i_f3d_flags>  (1) 
0

>  <num_sample>  (1) 
50

>  <b_lp_Chiralities_Consistent>  (1) 
1

>  <r_epik_Charging_Adjusted_Penalty>  (1) 
0.049597449479403345

>  <r_epik_Ionization_Penalty>  (1) 
0.024799209446341199

>  <r_epik_Ionization_Penalty_Charging>  (1) 
0.024798724739701669

>  <r_epik_Ionization_Penalty_Neutral>  (1) 
4.8470663953020042e-07

>  <r_epik_State_Penalty>  (1) 
0.024798724739701676

>  <r_glide_ring_energy>  (1) 
0.0002774820840286173

>  <r_i_docking_score>  (1) 
-5.3381666709721882

>  <r_i_glide_ecoul>  (1) 
-6.0511489173387831

>  <r_i_glide_eff_state_penalty>  (1) 
0.024798724739701676

>  <r_i_glide_einternal>  (1) 
7.2955006643999587

>  <r_i_glide_emodel>  (1) 
-40.305439151824068

>  <r_i_glide_emodel_strain>  (1) 
1.5052216502393208

>  <r_i_glide_energy>  (1) 
-34.953274976936733

>  <r_i_glide_erotb>  (1) 
0.62180956458355674

>  <r_i_glide_esite>  (1) 
0

>  <r_i_glide_evdw>  (1) 
-28.902126059597947

>  <r_i_glide_gscore>  (1) 
-5.3629653957118899

>  <r_i_glide_gscore_strain>  (1) 
0

>  <r_i_glide_hbond>  (1) 
-0.16

>  <r_i_glide_ligand_efficiency>  (1) 
-0.1617626263930966

>  <r_i_glide_ligand_efficiency_ln>  (1) 
-1.1871806280764292

>  <r_i_glide_ligand_efficiency_sa>  (1) 
-0.5188591774661464

>  <r_i_glide_lipo>  (1) 
-1.8887615196147189

>  <r_i_glide_metal>  (1) 
-0

>  <r_i_glide_rewards>  (1) 
-1.5832348001000121

>  <r_lp_Energy>  (1) 
43.003907999999996

>  <s_epik_cmdline>  (1) 
J2VwaWtfcHl0aG9uJywgJy1waHQnLCAnMS4wJywgJy1waCcsICc3LjQnLCAnLXRuJywgJzgnLCAnLW1hJywgJzUwMCcsICctaW1hZScsICc8aW5maWxlLm1hZT4nLCAnLW9tYWUnLCAnPG91dGZpbGUubWFlPic=

>  <s_epik_input>  (1) 
TzFbQ0gyXVtDSDJdW0NIMl1bQ0BdMShbT0hdKVtDSDJdW0NIMl1bQ0gyXU9bQ0gyXVtDQEBIXShbQ0gyXVtDSDJdMilbQ0BASF0oW09IXSlbQ0gyXVtDQEBIXShOMjMpW0NIMl1bQ0BIXShbQ0gyXVtDSDJdMylOKFtDSF09QzRGKUMoPU8pW0NIMl1DNChGKUY=

>  <s_glide_docking_method>  (1) 
confgen

>  <s_i_glide_gridfile>  (1) 
gpcr_drd2_6luq_protein_autoprepared_prepared

>  <s_lp_Force_Field>  (1) 
S-OPLS

>  <s_lp_Variant>  (1) 
DiffSBDD_11_num_sample_50-1

>  <s_m_source_file>  (1) 
generated__ligand_DiffSBDD_2026-05-06_prepared.sdf

>  <GenAI_Model>  (1) 
DiffSBDD

>  <Protein>  (1) 
generic_title2

$$$$
DiffSBDD_30_num_sample_50
     RDKit          3D

  0  0  0  0  0  0  0  0  0  0999 V3000
M  V30 BEGIN CTAB
M  V30 COUNTS 51 53 0 0 1
M  V30 BEGIN ATOM
M  V30 1 C 9.298513 5.199341 -11.124477 0 CFG=1
M  V30 2 O 9.035277 4.569282 -8.446018 0 CHG=-1
M  V30 3 C 12.136550 9.279804 -4.677182 0
M  V30 4 N 9.225244 6.168822 -9.992365 0
M  V30 5 C 10.702807 6.969270 -12.250591 0
M  V30 6 C 11.434843 8.059950 -6.671708 0
M  V30 7 O 9.034834 6.623297 -7.799003 0
M  V30 8 C 11.200851 6.916121 -5.873843 0
M  V30 9 C 6.132660 0.197924 -12.448024 0
M  V30 10 C 5.556495 4.867892 -11.896038 0
M  V30 11 C 9.092266 5.770739 -8.703268 0
M  V30 12 C 11.896474 9.249218 -6.067280 0
M  V30 13 C 11.908032 8.136796 -3.891679 0
M  V30 14 F 12.145647 8.173476 -2.558678 0
M  V30 15 O 6.729115 2.031847 -13.942777 0
M  V30 16 C 7.968615 3.582541 -12.564751 0
M  V30 17 C 5.547090 3.769299 -12.773580 0
M  V30 18 O 11.214620 7.992808 -8.028458 0
M  V30 19 C 7.977176 4.691086 -11.690253 0
M  V30 20 C 11.894482 8.808812 -8.962858 0
M  V30 21 C 11.892425 8.016497 -10.286864 0
M  V30 22 C 11.434829 6.957349 -4.488724 0
M  V30 23 C 10.128824 5.760243 -12.274010 0
M  V30 24 C 7.194562 0.808631 -13.375427 0
M  V30 25 C 9.292854 7.585317 -10.339578 0
M  V30 26 C 10.562243 7.927696 -11.091661 0 CFG=2
M  V30 27 C 6.749501 3.116863 -13.101132 0
M  V30 28 C 6.765617 5.327525 -11.356791 0
M  V30 29 H 9.834844 4.313342 -10.783444 0
M  V30 30 H 12.500169 10.169302 -4.214837 0
M  V30 31 H 11.286032 7.304530 -13.092446 0
M  V30 32 H 10.849069 6.002407 -6.329645 0
M  V30 33 H 6.463772 -0.760465 -12.048940 0
M  V30 34 H 5.911543 0.848357 -11.602338 0
M  V30 35 H 5.201133 0.026652 -12.987720 0
M  V30 36 H 4.634843 5.359415 -11.633881 0
M  V30 37 H 12.075765 10.129191 -6.664531 0
M  V30 38 H 8.896046 3.090237 -12.820815 0
M  V30 39 H 4.614448 3.417753 -13.186667 0
M  V30 40 H 12.924876 8.969282 -8.642138 0
M  V30 41 H 11.416699 9.778790 -9.083181 0
M  V30 42 H 12.234790 7.006481 -10.062604 0
M  V30 43 H 12.658721 8.439882 -10.935312 0
M  V30 44 H 11.257473 6.079392 -3.885185 0
M  V30 45 H 10.248846 5.125287 -13.137818 0
M  V30 46 H 7.394970 0.114248 -14.192072 0
M  V30 47 H 8.138717 0.931713 -12.843646 0
M  V30 48 H 8.465994 7.775125 -11.030142 0
M  V30 49 H 9.137480 8.276672 -9.510791 0
M  V30 50 H 10.234850 8.871511 -11.502070 0
M  V30 51 H 6.763448 6.169282 -10.691466 0
M  V30 END ATOM
M  V30 BEGIN BOND
M  V30 1 1 4 1
M  V30 2 2 8 6
M  V30 3 1 11 2
M  V30 4 1 11 4
M  V30 5 2 11 7
M  V30 6 2 12 3
M  V30 7 1 12 6
M  V30 8 1 13 3
M  V30 9 1 14 13
M  V30 10 2 17 10
M  V30 11 1 18 6
M  V30 12 1 19 1
M  V30 13 1 19 16
M  V30 14 1 20 18
M  V30 15 1 21 20
M  V30 16 1 22 8
M  V30 17 2 22 13
M  V30 18 1 23 1
M  V30 19 2 23 5
M  V30 20 1 24 9
M  V30 21 1 24 15
M  V30 22 1 25 4
M  V30 23 1 26 5
M  V30 24 1 26 21
M  V30 25 1 26 25
M  V30 26 1 27 15
M  V30 27 2 27 16
M  V30 28 1 27 17
M  V30 29 1 28 10
M  V30 30 2 28 19
M  V30 31 1 1 29 CFG=1
M  V30 32 1 30 3
M  V30 33 1 31 5
M  V30 34 1 32 8
M  V30 35 1 33 9
M  V30 36 1 34 9
M  V30 37 1 35 9
M  V30 38 1 36 10
M  V30 39 1 37 12
M  V30 40 1 38 16
M  V30 41 1 39 17
M  V30 42 1 40 20
M  V30 43 1 41 20
M  V30 44 1 42 21
M  V30 45 1 43 21
M  V30 46 1 44 22
M  V30 47 1 45 23
M  V30 48 1 46 24
M  V30 49 1 47 24
M  V30 50 1 48 25
M  V30 51 1 49 25
M  V30 52 1 26 50 CFG=3
M  V30 53 1 51 28
M  V30 END BOND
M  V30 END CTAB
M  END
>  <i_epik_Tot_Q>  (1) 
-1

>  <i_epik_Tot_abs_Q>  (1) 
1

>  <i_i_glide_confnum>  (1) 
306

>  <i_i_glide_lignum>  (1) 
77

>  <i_i_glide_posenum>  (1) 
366

>  <i_i_glide_rotatable_bonds>  (1) 
8

>  <i_lp_mmshare_version>  (1) 
72125

>  <i_m_source_file_index>  (1) 
31

>  <i_f3d_flags>  (1) 
0

>  <num_sample>  (1) 
50

>  <b_lp_Chiralities_Consistent>  (1) 
1

>  <r_epik_Charging_Adjusted_Penalty>  (1) 
0.0017651190196060487

>  <r_epik_Ionization_Penalty>  (1) 
0.001765159031891192

>  <r_epik_Ionization_Penalty_Charging>  (1) 
0.0017651190196060487

>  <r_epik_Ionization_Penalty_Neutral>  (1) 
4.0012285143307813e-08

>  <r_epik_State_Penalty>  (1) 
-0

>  <r_glide_ring_energy>  (1) 
1.1509255290509894

>  <r_i_docking_score>  (1) 
-5.3174076351206985

>  <r_i_glide_ecoul>  (1) 
0.77330828677771102

>  <r_i_glide_eff_state_penalty>  (1) 
-0

>  <r_i_glide_einternal>  (1) 
13.687365552218999

>  <r_i_glide_emodel>  (1) 
-30.688516718310591

>  <r_i_glide_emodel_strain>  (1) 
0.57576157396875516

>  <r_i_glide_energy>  (1) 
-30.272276965176196

>  <r_i_glide_erotb>  (1) 
0.6577867668732289

>  <r_i_glide_esite>  (1) 
-0.17087980670691716

>  <r_i_glide_evdw>  (1) 
-31.045585251953909

>  <r_i_glide_gscore>  (1) 
-5.3174076351206985

>  <r_i_glide_gscore_strain>  (1) 
0

>  <r_i_glide_hbond>  (1) 
0

>  <r_i_glide_ligand_efficiency>  (1) 
-0.18990741554002494

>  <r_i_glide_ligand_efficiency_ln>  (1) 
-1.2274138080581174

>  <r_i_glide_ligand_efficiency_sa>  (1) 
-0.5766707637062487

>  <r_i_glide_lipo>  (1) 
-3.657018240020034

>  <r_i_glide_metal>  (1) 
-0

>  <r_i_glide_rewards>  (1) 
-0.71101333568593783

>  <r_lp_Energy>  (1) 
49.407502999999998

>  <r_lp_tautomer_probability>  (1) 
1

>  <s_epik_cmdline>  (1) 
J2VwaWtfcHl0aG9uJywgJy1waHQnLCAnMS4wJywgJy1waCcsICc3LjQnLCAnLXRuJywgJzgnLCAnLW1hJywgJzUwMCcsICctaW1hZScsICc8aW5maWxlLm1hZT4nLCAnLW9tYWUnLCAnPG91dGZpbGUubWFlPic=

>  <s_epik_input>  (1) 
W0NIM11bQ0gyXU9jKFtjSF1bY0hdW2NIXTEpW2NIXWMxW0NAQEhdMk4oQyg9TylbT0hdKVtDSDJdW0NASF0oW0NIXT1bQ0hdMilbQ0gyXVtDSDJdT2MzW2NIXVtjSF1jKEYpW2NIXVtjSF0z

>  <s_glide_docking_method>  (1) 
confgen

>  <s_i_glide_gridfile>  (1) 
gpcr_drd2_6luq_protein_autoprepared_prepared

>  <s_lp_Force_Field>  (1) 
S-OPLS

>  <s_lp_Variant>  (1) 
DiffSBDD_30_num_sample_50-1

>  <s_m_source_file>  (1) 
generated__ligand_DiffSBDD_2026-05-06_prepared.sdf

>  <GenAI_Model>  (1) 
DiffSBDD

>  <Protein>  (1) 
generic_title2

$$$$
DiffSBDD_32_num_sample_50
     RDKit          3D

  0  0  0  0  0  0  0  0  0  0999 V3000
M  V30 BEGIN CTAB
M  V30 COUNTS 59 61 0 0 1
M  V30 BEGIN ATOM
M  V30 1 C 5.425266 -0.379669 -18.824929 0
M  V30 2 F 8.910741 -1.159204 -17.695420 0
M  V30 3 N 7.315436 6.131724 -13.919081 0
M  V30 4 C 4.989325 8.014117 -16.133765 0
M  V30 5 C 9.033629 4.137347 -12.105504 0
M  V30 6 C 7.434809 2.737835 -16.184493 0
M  V30 7 C 5.539443 0.713979 -13.619640 0
M  V30 8 O 6.293846 7.050232 -14.365172 0
M  V30 9 C 7.193125 2.541803 -12.798830 0 CFG=1
M  V30 10 O 6.634685 6.284376 -16.500036 0
M  V30 11 C 6.062919 7.024218 -15.695899 0
M  V30 12 C 6.707521 5.093619 -13.069742 0
M  V30 13 C 9.602368 5.490208 -11.751165 0
M  V30 14 C 9.081532 4.569626 -10.659662 0
M  V30 15 C 6.910259 -0.122157 -18.502789 0 CFG=1
M  V30 16 C 6.255752 5.711473 -11.727276 0
M  V30 17 C 5.419907 4.560114 -13.732956 0
M  V30 18 C 7.094922 0.937332 -17.454360 0
M  V30 19 C 7.035161 1.694566 -15.388471 0
M  V30 20 C 7.472026 2.246147 -17.510966 0
M  V30 21 O 6.988382 -2.346694 -17.491691 0
M  V30 22 C 7.712595 -1.426248 -18.271498 0
M  V30 23 O 6.832395 0.574448 -16.159331 0
M  V30 24 C 6.796538 1.529889 -13.894963 0 CFG=2
M  V30 25 C 8.002210 1.280118 -13.027893 0
M  V30 26 F 7.971301 -1.985305 -19.479311 0
M  V30 27 C 7.795394 3.939223 -12.996378 0 CFG=1
M  V30 28 C 3.965279 7.369309 -17.083657 0
M  V30 29 F 4.845860 0.726947 -19.291898 0
M  V30 30 H 5.310720 -1.146793 -19.591266 0
M  V30 31 H 4.868099 -0.695652 -17.942129 0
M  V30 32 H 7.652140 5.718834 -14.779671 0
M  V30 33 H 4.486514 8.404352 -15.249645 0
M  V30 34 H 5.471354 8.863430 -16.617046 0
M  V30 35 H 9.792534 3.393475 -12.342532 0
M  V30 36 H 7.663975 3.735611 -15.859824 0
M  V30 37 H 5.461272 0.473061 -12.558967 0
M  V30 38 H 4.643831 1.267518 -13.891726 0
M  V30 39 H 5.554869 -0.230736 -14.164108 0
M  V30 40 H 6.524662 2.533336 -11.940470 0
M  V30 41 H 10.670620 5.599528 -11.892274 0
M  V30 42 H 9.039611 6.395172 -11.953550 0
M  V30 43 H 8.154652 4.817588 -10.152680 0
M  V30 44 H 9.829276 4.101607 -10.023017 0
M  V30 45 H 7.338742 0.306232 -19.410227 0
M  V30 46 H 5.964674 4.941707 -11.012072 0
M  V30 47 H 7.009051 6.339032 -11.260864 0
M  V30 48 H 5.391560 6.363091 -11.861216 0
M  V30 49 H 4.944222 3.770533 -13.152164 0
M  V30 50 H 4.648903 5.317532 -13.872127 0
M  V30 51 H 5.666249 4.169190 -14.705498 0
M  V30 52 H 7.734911 2.788886 -18.406739 0
M  V30 53 H 7.434234 -2.476159 -16.656911 0
M  V30 54 H 7.919966 0.484155 -12.292118 0
M  V30 55 H 8.981486 1.373879 -13.490772 0
M  V30 56 H 8.269224 3.893288 -13.966482 0
M  V30 57 H 3.105221 8.023497 -17.228260 0
M  V30 58 H 4.404060 7.177317 -18.063277 0
M  V30 59 H 3.592182 6.422111 -16.691899 0
M  V30 END ATOM
M  V30 BEGIN BOND
M  V30 1 1 8 3
M  V30 2 1 11 4
M  V30 3 1 11 8
M  V30 4 2 11 10
M  V30 5 1 12 3
M  V30 6 1 13 5
M  V30 7 1 14 5
M  V30 8 1 14 13
M  V30 9 1 15 1
M  V30 10 1 16 12
M  V30 11 1 17 12
M  V30 12 1 18 15
M  V30 13 2 19 6
M  V30 14 1 20 6
M  V30 15 2 20 18
M  V30 16 1 22 2
M  V30 17 1 22 15
M  V30 18 1 22 21
M  V30 19 1 23 18
M  V30 20 1 23 19
M  V30 21 1 24 7 CFG=3
M  V30 22 1 24 9
M  V30 23 1 24 19
M  V30 24 1 25 9
M  V30 25 1 25 24
M  V30 26 1 26 22
M  V30 27 1 27 5
M  V30 28 1 27 9
M  V30 29 1 27 12
M  V30 30 1 28 4
M  V30 31 1 29 1
M  V30 32 1 30 1
M  V30 33 1 31 1
M  V30 34 1 32 3
M  V30 35 1 33 4
M  V30 36 1 34 4
M  V30 37 1 35 5
M  V30 38 1 36 6
M  V30 39 1 37 7
M  V30 40 1 38 7
M  V30 41 1 39 7
M  V30 42 1 9 40 CFG=1
M  V30 43 1 41 13
M  V30 44 1 42 13
M  V30 45 1 43 14
M  V30 46 1 44 14
M  V30 47 1 15 45 CFG=3
M  V30 48 1 46 16
M  V30 49 1 47 16
M  V30 50 1 48 16
M  V30 51 1 49 17
M  V30 52 1 50 17
M  V30 53 1 51 17
M  V30 54 1 52 20
M  V30 55 1 53 21
M  V30 56 1 54 25
M  V30 57 1 55 25
M  V30 58 1 27 56 CFG=3
M  V30 59 1 57 28
M  V30 60 1 58 28
M  V30 61 1 59 28
M  V30 END BOND
M  V30 END CTAB
M  END
>  <i_epik_Tot_Q>  (1) 
0

>  <i_epik_Tot_abs_Q>  (1) 
0

>  <i_i_glide_confnum>  (1) 
1633

>  <i_i_glide_lignum>  (1) 
82

>  <i_i_glide_posenum>  (1) 
121

>  <i_i_glide_rotatable_bonds>  (1) 
12

>  <i_lp_mmshare_version>  (1) 
72125

>  <i_m_source_file_index>  (1) 
33

>  <i_f3d_flags>  (1) 
0

>  <num_sample>  (1) 
50

>  <b_lp_Chiralities_Consistent>  (1) 
1

>  <r_epik_Charging_Adjusted_Penalty>  (1) 
0.006144794000495021

>  <r_epik_Ionization_Penalty>  (1) 
0.006338033707194878

>  <r_epik_Ionization_Penalty_Charging>  (1) 
0

>  <r_epik_Ionization_Penalty_Neutral>  (1) 
0.006338033707194878

>  <r_epik_State_Penalty>  (1) 
0.006144794000495021

>  <r_glide_ring_energy>  (1) 
0

>  <r_i_docking_score>  (1) 
-5.3167516793565168

>  <r_i_glide_ecoul>  (1) 
-3.9837347070561293

>  <r_i_glide_eff_state_penalty>  (1) 
0.006144794000495021

>  <r_i_glide_einternal>  (1) 
16.070497729778893

>  <r_i_glide_emodel>  (1) 
-35.255886211321283

>  <r_i_glide_emodel_strain>  (1) 
1.1996984741959977

>  <r_i_glide_energy>  (1) 
-34.987592753062259

>  <r_i_glide_erotb>  (1) 
1.020687923142688

>  <r_i_glide_esite>  (1) 
0

>  <r_i_glide_evdw>  (1) 
-31.003858046006133

>  <r_i_glide_gscore>  (1) 
-5.3228964733570114

>  <r_i_glide_gscore_strain>  (1) 
0

>  <r_i_glide_hbond>  (1) 
-0.32000000000000001

>  <r_i_glide_ligand_efficiency>  (1) 
-0.18333626480539714

>  <r_i_glide_ligand_efficiency_ln>  (1) 
-1.2174013133827444

>  <r_i_glide_ligand_efficiency_sa>  (1) 
-0.56326709112001772

>  <r_i_glide_lipo>  (1) 
-2.3265883815862871

>  <r_i_glide_metal>  (1) 
-0

>  <r_i_glide_rewards>  (1) 
-1.5492429065546858

>  <r_lp_Energy>  (1) 
6.2328609999999998

>  <s_epik_Chemistry_Notes>  (1) 
This compound has a N-S or N-O group and may undergo hydrolysis at high or low pH.

>  <s_epik_cmdline>  (1) 
J2VwaWtfcHl0aG9uJywgJy1waHQnLCAnMS4wJywgJy1waCcsICc3LjQnLCAnLXRuJywgJzgnLCAnLW1hJywgJzUwMCcsICctaW1hZScsICc8aW5maWxlLm1hZT4nLCAnLW9tYWUnLCAnPG91dGZpbGUubWFlPic=

>  <s_epik_input>  (1) 
RkMoRikoW09IXSlbQ0BASF0oW0NIMl1GKWMxW2NIXVtjSF1jKG8xKVtDQF0yKFtDSDNdKVtDQEBIXShbQ0gyXTIpW0NASF0oW0NIXTNbQ0gyXVtDSDJdMylDKFtDSDNdKShbQ0gzXSlbTkhdT0MoPU8pW0NIMl1bQ0gzXQ==

>  <s_glide_docking_method>  (1) 
confgen

>  <s_i_glide_gridfile>  (1) 
gpcr_drd2_6luq_protein_autoprepared_prepared

>  <s_lp_Force_Field>  (1) 
S-OPLS

>  <s_lp_Variant>  (1) 
DiffSBDD_32_num_sample_50-1

>  <s_m_source_file>  (1) 
generated__ligand_DiffSBDD_2026-05-06_prepared.sdf

>  <GenAI_Model>  (1) 
DiffSBDD

>  <Protein>  (1) 
generic_title2

$$$$
DiffSBDD_38_num_sample_50
     RDKit          3D

  0  0  0  0  0  0  0  0  0  0999 V3000
M  V30 BEGIN CTAB
M  V30 COUNTS 60 62 0 0 1
M  V30 BEGIN ATOM
M  V30 1 C 6.078351 2.616001 -19.184235 0
M  V30 2 O 8.110948 1.330716 -19.149005 0
M  V30 3 S 10.113416 4.969304 -16.445245 0
M  V30 4 F 11.204372 5.769082 -7.203481 0
M  V30 5 C 10.099974 7.101086 -10.376818 0 CFG=2
M  V30 6 C 6.622831 4.064356 -21.253914 0
M  V30 7 C 9.034858 5.372600 -8.952965 0
M  V30 8 C 8.538574 5.769292 -13.857300 0
M  V30 9 C 5.788176 3.934150 -19.964447 0 CFG=2
M  V30 10 C 8.440019 4.996565 -16.241540 0
M  V30 11 N 8.188394 3.350938 -18.155534 0
M  V30 12 C 8.600892 5.429971 -11.336012 0
M  V30 13 C 6.366033 5.787608 -15.097857 0
M  V30 14 C 7.554355 2.373450 -18.818637 0
M  V30 15 F 11.872749 7.450796 -8.329893 0
M  V30 16 O 7.784258 6.532413 -18.690406 0
M  V30 17 C 7.940432 4.990362 -12.656137 0 CFG=2
M  V30 18 O 9.577169 6.400801 -11.491446 0
M  V30 19 C 8.205054 3.480954 -12.882722 0
M  V30 20 O 10.787748 7.983532 -5.749783 0
M  V30 21 C 8.317065 4.932346 -10.116168 0
M  V30 22 N 9.034847 8.366370 -7.091701 0
M  V30 23 C 6.419569 5.281927 -12.597557 0
M  V30 24 C 7.139092 5.524238 -18.404098 0
M  V30 25 C 10.191503 7.786263 -6.807705 0
M  V30 26 C 5.816233 5.236895 -19.118122 0
M  V30 27 C 9.903906 6.379568 -9.046227 0
M  V30 28 C 7.564206 4.439287 -17.396092 0 CFG=2
M  V30 29 N 7.802397 5.485010 -15.110433 0
M  V30 30 C 5.711931 5.018380 -13.938815 0
M  V30 31 N 9.434861 8.355844 -10.272809 0
M  V30 32 C 10.778797 6.844390 -7.866369 0
M  V30 33 H 5.459913 2.552251 -18.291673 0
M  V30 34 H 5.760659 1.776429 -19.804358 0
M  V30 35 H 11.162479 7.251742 -10.566617 0
M  V30 36 H 7.683166 4.212141 -21.046324 0
M  V30 37 H 6.528785 3.171867 -21.873882 0
M  V30 38 H 6.287031 4.912281 -21.851590 0
M  V30 39 H 8.893208 4.866473 -8.009551 0
M  V30 40 H 8.416398 6.834222 -13.657269 0
M  V30 41 H 9.611088 5.587308 -13.889685 0
M  V30 42 H 4.754402 3.840531 -20.299104 0
M  V30 43 H 9.178704 3.223718 -17.995408 0
M  V30 44 H 6.262720 6.857842 -14.912793 0
M  V30 45 H 5.822733 5.614767 -16.021577 0
M  V30 46 H 8.036474 3.173098 -13.913595 0
M  V30 47 H 9.235368 3.215271 -12.640271 0
M  V30 48 H 7.543852 2.856681 -12.291661 0
M  V30 49 H 7.564064 4.169261 -10.016227 0
M  V30 50 H 8.606310 8.985247 -6.423524 0
M  V30 51 H 8.570680 8.169187 -7.973629 0
M  V30 52 H 5.944819 4.691711 -11.813164 0
M  V30 53 H 6.264707 6.326076 -12.319381 0
M  V30 54 H 5.034839 5.193299 -18.359957 0
M  V30 55 H 6.685504 3.991270 -16.940195 0
M  V30 56 H 4.660349 5.295216 -13.868955 0
M  V30 57 H 5.732176 3.950623 -14.155708 0
M  V30 58 H 9.390886 8.804184 -11.175104 0
M  V30 59 H 8.450834 8.186663 -10.021907 0
M  V30 60 H 5.574067 6.090310 -19.751791 0
M  V30 END ATOM
M  V30 BEGIN BOND
M  V30 1 1 9 1
M  V30 2 1 9 6
M  V30 3 2 10 3
M  V30 4 1 14 1
M  V30 5 2 14 2
M  V30 6 1 14 11
M  V30 7 1 17 8
M  V30 8 1 17 12
M  V30 9 1 18 5
M  V30 10 1 18 12
M  V30 11 1 17 19 CFG=3
M  V30 12 1 21 7
M  V30 13 2 21 12
M  V30 14 1 23 17
M  V30 15 2 24 16
M  V30 16 2 25 20
M  V30 17 1 25 22
M  V30 18 1 26 9
M  V30 19 1 26 24
M  V30 20 1 27 5
M  V30 21 2 27 7
M  V30 22 1 28 10
M  V30 23 1 28 11
M  V30 24 1 28 24
M  V30 25 1 29 8
M  V30 26 1 29 10
M  V30 27 1 29 13
M  V30 28 1 30 13
M  V30 29 1 30 23
M  V30 30 1 31 5
M  V30 31 1 32 4
M  V30 32 1 32 15
M  V30 33 1 32 25
M  V30 34 1 32 27
M  V30 35 1 33 1
M  V30 36 1 34 1
M  V30 37 1 5 35 CFG=3
M  V30 38 1 36 6
M  V30 39 1 37 6
M  V30 40 1 38 6
M  V30 41 1 39 7
M  V30 42 1 40 8
M  V30 43 1 41 8
M  V30 44 1 9 42 CFG=3
M  V30 45 1 43 11
M  V30 46 1 44 13
M  V30 47 1 45 13
M  V30 48 1 46 19
M  V30 49 1 47 19
M  V30 50 1 48 19
M  V30 51 1 49 21
M  V30 52 1 50 22
M  V30 53 1 51 22
M  V30 54 1 52 23
M  V30 55 1 53 23
M  V30 56 1 54 26
M  V30 57 1 28 55 CFG=1
M  V30 58 1 56 30
M  V30 59 1 57 30
M  V30 60 1 58 31
M  V30 61 1 59 31
M  V30 62 1 60 26
M  V30 END BOND
M  V30 END CTAB
M  END
>  <i_epik_Tot_Q>  (1) 
0

>  <i_epik_Tot_abs_Q>  (1) 
0

>  <i_i_glide_confnum>  (1) 
18

>  <i_i_glide_lignum>  (1) 
96

>  <i_i_glide_posenum>  (1) 
226

>  <i_i_glide_rotatable_bonds>  (1) 
5

>  <i_lp_mmshare_version>  (1) 
72125

>  <i_m_source_file_index>  (1) 
39

>  <i_f3d_flags>  (1) 
0

>  <num_sample>  (1) 
50

>  <b_lp_Chiralities_Consistent>  (1) 
1

>  <r_epik_Charging_Adjusted_Penalty>  (1) 
0.0043173356697657605

>  <r_epik_Ionization_Penalty>  (1) 
2.5101429145755949

>  <r_epik_Ionization_Penalty_Charging>  (1) 
0

>  <r_epik_Ionization_Penalty_Neutral>  (1) 
2.5101429145755949

>  <r_epik_State_Penalty>  (1) 
0.0043173356697657605

>  <r_glide_ring_energy>  (1) 
0.02445303134611268

>  <r_i_docking_score>  (1) 
-5.3138929349500374

>  <r_i_glide_ecoul>  (1) 
-4.4745145780729016

>  <r_i_glide_eff_state_penalty>  (1) 
0.0043173356697657605

>  <r_i_glide_einternal>  (1) 
0.80225177419565519

>  <r_i_glide_emodel>  (1) 
-54.233342739703225

>  <r_i_glide_emodel_strain>  (1) 
0.51901760487701409

>  <r_i_glide_energy>  (1) 
-42.19414595407212

>  <r_i_glide_erotb>  (1) 
0.36503894659470715

>  <r_i_glide_esite>  (1) 
-0.13599926579110422

>  <r_i_glide_evdw>  (1) 
-37.719631375999221

>  <r_i_glide_gscore>  (1) 
-5.3182102706198036

>  <r_i_glide_gscore_strain>  (1) 
0

>  <r_i_glide_hbond>  (1) 
-0.26314613495519579

>  <r_i_glide_ligand_efficiency>  (1) 
-0.16605915421718867

>  <r_i_glide_ligand_efficiency_ln>  (1) 
-1.1899254793859555

>  <r_i_glide_ligand_efficiency_sa>  (1) 
-0.52720495218662966

>  <r_i_glide_lipo>  (1) 
-1.0497389126590819

>  <r_i_glide_metal>  (1) 
-0

>  <r_i_glide_rewards>  (1) 
-1.6772061482982321

>  <r_lp_Energy>  (1) 
72.958390999999992

>  <r_lp_tautomer_probability>  (1) 
0.99999998000000001

>  <s_epik_Chemistry_Notes>  (1) 
This compound contains an acetal/aminal-like group ( X-CH(R)-Y where X, Y are N, S, or O) that may be acid/base labile, releasing an aldehyde.

>  <s_epik_cmdline>  (1) 
J2VwaWtfcHl0aG9uJywgJy1waHQnLCAnMS4wJywgJy1waCcsICc3LjQnLCAnLXRuJywgJzgnLCAnLW1hJywgJzUwMCcsICctaW1hZScsICc8aW5maWxlLm1hZT4nLCAnLW9tYWUnLCAnPG91dGZpbGUubWFlPic=

>  <s_epik_input>  (1) 
W0NIM11bQ0BASF0xW0NIMl1DKD1PKVtOSF1bQ0BIXShDKD1PKVtDSDJdMSlDKD1TKU4oW0NIMl1bQ0gyXVtDSDJdMilbQ0gyXVtDQEBdMihbQ0gzXSlDKE9bQ0BASF0zW05IMl0pPVtDSF1bQ0hdPUMzQyhGKShGKUMoPU8pW05IMl0=

>  <s_glide_docking_method>  (1) 
confgen

>  <s_i_glide_gridfile>  (1) 
gpcr_drd2_6luq_protein_autoprepared_prepared

>  <s_lp_Force_Field>  (1) 
S-OPLS

>  <s_lp_Variant>  (1) 
DiffSBDD_38_num_sample_50-4

>  <s_m_source_file>  (1) 
generated__ligand_DiffSBDD_2026-05-06_prepared.sdf

>  <GenAI_Model>  (1) 
DiffSBDD

>  <Protein>  (1) 
generic_title2

$$$$
DiffSBDD_13_num_sample_50
     RDKit          3D

  0  0  0  0  0  0  0  0  0  0999 V3000
M  V30 BEGIN CTAB
M  V30 COUNTS 46 50 0 0 1
M  V30 BEGIN ATOM
M  V30 1 C 8.023368 5.435512 -12.860104 0
M  V30 2 N 6.421831 2.610756 -13.891503 0 CFG=1 CHG=1
M  V30 3 C 11.277194 8.199299 -5.470309 0
M  V30 4 C 10.186604 7.026712 -7.339731 0
M  V30 5 C 6.698062 4.344686 -11.132635 0
M  V30 6 C 10.982143 7.840514 -8.225915 0
M  V30 7 C 8.857347 5.988783 -11.868989 0
M  V30 8 C 6.613533 -0.230478 -13.978106 0
M  V30 9 C 10.375253 7.235611 -5.949277 0
M  V30 10 C 7.085039 -0.102188 -15.435298 0
M  V30 11 O 4.830804 3.842199 -13.092510 0 CHG=-1
M  V30 12 C 7.416417 2.373644 -14.947879 0 CFG=1
M  V30 13 O 12.913300 9.885385 -5.891714 0
M  V30 14 C 7.525463 4.892073 -10.148471 0
M  V30 15 S 10.634881 7.457878 -9.862239 0
M  V30 16 C 7.685060 2.009509 -13.506900 0 CFG=2
M  V30 17 C 6.037649 4.001078 -13.558654 0 CFG=1
M  V30 18 C 9.301075 6.129121 -8.076987 0
M  V30 19 C 6.939102 4.613193 -12.491718 0
M  V30 20 C 12.029357 8.971233 -6.363782 0
M  V30 21 C 9.424337 6.324982 -9.440535 0
M  V30 22 C 7.503479 0.587933 -13.033860 0
M  V30 23 C 8.610212 5.721914 -10.497607 0
M  V30 24 C 6.950761 1.335634 -15.959589 0
M  V30 25 Cl 8.329297 5.769287 -14.523357 0
M  V30 26 C 11.885981 8.785973 -7.739162 0
M  V30 27 H 11.396452 8.339294 -4.406343 0
M  V30 28 H 5.869304 3.714451 -10.843261 0
M  V30 29 H 9.677400 6.625156 -12.161191 0
M  V30 30 H 6.635545 -1.266004 -13.653790 0
M  V30 31 H 5.566709 0.066687 -13.892069 0
M  V30 32 H 9.804530 6.648300 -5.245389 0
M  V30 33 H 8.126105 -0.422651 -15.499049 0
M  V30 34 H 6.518889 -0.780268 -16.074737 0
M  V30 35 H 7.809468 3.300450 -15.353062 0
M  V30 36 H 13.000052 9.871569 -4.951307 0
M  V30 37 H 7.318095 4.685673 -9.111501 0
M  V30 38 H 8.372619 2.633948 -12.944734 0
M  V30 39 H 6.120060 4.566471 -14.482802 0
M  V30 40 H 8.604600 5.455466 -7.604999 0
M  V30 41 H 7.084357 0.581408 -12.027525 0
M  V30 42 H 8.497689 0.148833 -12.969290 0
M  V30 43 H 5.921142 1.537501 -16.255007 0
M  V30 44 H 7.547353 1.439555 -16.866405 0
M  V30 45 H 12.471532 9.370007 -8.429379 0
M  V30 46 H 5.647934 1.965402 -13.916828 0
M  V30 END ATOM
M  V30 BEGIN BOND
M  V30 1 2 6 4
M  V30 2 1 7 1
M  V30 3 2 9 3
M  V30 4 1 9 4
M  V30 5 1 10 8
M  V30 6 1 12 2
M  V30 7 2 14 5
M  V30 8 1 15 6
M  V30 9 1 16 2
M  V30 10 1 16 12
M  V30 11 1 17 2
M  V30 12 1 17 11
M  V30 13 1 18 4
M  V30 14 2 19 1
M  V30 15 1 19 5
M  V30 16 1 19 17
M  V30 17 1 20 3
M  V30 18 1 20 13
M  V30 19 1 21 15
M  V30 20 2 21 18
M  V30 21 1 22 8
M  V30 22 1 22 16
M  V30 23 2 23 7
M  V30 24 1 23 14
M  V30 25 1 23 21
M  V30 26 1 24 10
M  V30 27 1 24 12
M  V30 28 1 25 1
M  V30 29 1 26 6
M  V30 30 2 26 20
M  V30 31 1 27 3
M  V30 32 1 28 5
M  V30 33 1 29 7
M  V30 34 1 30 8
M  V30 35 1 31 8
M  V30 36 1 32 9
M  V30 37 1 33 10
M  V30 38 1 34 10
M  V30 39 1 12 35 CFG=3
M  V30 40 1 36 13
M  V30 41 1 37 14
M  V30 42 1 16 38 CFG=1
M  V30 43 1 17 39 CFG=3
M  V30 44 1 40 18
M  V30 45 1 41 22
M  V30 46 1 42 22
M  V30 47 1 43 24
M  V30 48 1 44 24
M  V30 49 1 45 26
M  V30 50 1 2 46 CFG=3
M  V30 END BOND
M  V30 END CTAB
M  END
>  <i_epik_Tot_Q>  (1) 
0

>  <i_epik_Tot_abs_Q>  (1) 
2

>  <i_i_glide_confnum>  (1) 
1

>  <i_i_glide_lignum>  (1) 
48

>  <i_i_glide_posenum>  (1) 
326

>  <i_i_glide_rotatable_bonds>  (1) 
4

>  <i_lp_mmshare_version>  (1) 
72125

>  <i_m_source_file_index>  (1) 
14

>  <i_f3d_flags>  (1) 
0

>  <num_sample>  (1) 
50

>  <b_lp_Chiralities_Consistent>  (1) 
1

>  <r_epik_Charging_Adjusted_Penalty>  (1) 
0.011735890959206876

>  <r_epik_Ionization_Penalty>  (1) 
0.011735890959206876

>  <r_epik_Ionization_Penalty_Charging>  (1) 
0.0019353161310539371

>  <r_epik_Ionization_Penalty_Neutral>  (1) 
0.009800574828152938

>  <r_epik_State_Penalty>  (1) 
0.0098005748281529397

>  <r_glide_ring_energy>  (1) 
0

>  <r_i_docking_score>  (1) 
-5.3069751891634791

>  <r_i_glide_ecoul>  (1) 
-1.6344088480011698

>  <r_i_glide_eff_state_penalty>  (1) 
0.0098005748281529397

>  <r_i_glide_einternal>  (1) 
3.4857659054388916

>  <r_i_glide_emodel>  (1) 
-44.597313363143542

>  <r_i_glide_emodel_strain>  (1) 
0.05491330051014387

>  <r_i_glide_energy>  (1) 
-33.81458388623394

>  <r_i_glide_erotb>  (1) 
0.39195233306171845

>  <r_i_glide_esite>  (1) 
0

>  <r_i_glide_evdw>  (1) 
-32.180175038232768

>  <r_i_glide_gscore>  (1) 
-5.3167757639916324

>  <r_i_glide_gscore_strain>  (1) 
0

>  <r_i_glide_hbond>  (1) 
0

>  <r_i_glide_ligand_efficiency>  (1) 
-0.20411443035244151

>  <r_i_glide_ligand_efficiency_ln>  (1) 
-1.24632570956913

>  <r_i_glide_ligand_efficiency_sa>  (1) 
-0.60468819742431812

>  <r_i_glide_lipo>  (1) 
-1.9780951937931683

>  <r_i_glide_metal>  (1) 
-0

>  <r_i_glide_rewards>  (1) 
-1.8764628241483676

>  <r_lp_Energy>  (1) 
53.532539999999997

>  <s_epik_Chemistry_Notes>  (1) 
This compound contains an acetal/aminal-like group ( X-CH(R)-Y where X, Y are N, S, or O) that may be acid/base labile, releasing an aldehyde.

>  <s_epik_cmdline>  (1) 
J2VwaWtfcHl0aG9uJywgJy1waHQnLCAnMS4wJywgJy1waCcsICc3LjQnLCAnLXRuJywgJzgnLCAnLW1hJywgJzUwMCcsICctaW1hZScsICc8aW5maWxlLm1hZT4nLCAnLW9tYWUnLCAnPG91dGZpbGUubWFlPic=

>  <s_epik_input>  (1) 
W2NIXTFbY0hdYyhbT0hdKVtjSF1jKGMxMilzYyhbY0hdMiktYyhbY0hdYzNDbClbY0hdW2NIXWMzW0NASF0oW09IXSlONFtDQEhdKFtDQEhdNDUpW0NIMl1bQ0gyXVtDSDJdW0NIMl01

>  <s_glide_docking_method>  (1) 
confgen

>  <s_i_glide_gridfile>  (1) 
gpcr_drd2_6luq_protein_autoprepared_prepared

>  <s_lp_Force_Field>  (1) 
S-OPLS

>  <s_lp_Variant>  (1) 
DiffSBDD_13_num_sample_50-1

>  <s_m_source_file>  (1) 
generated__ligand_DiffSBDD_2026-05-06_prepared.sdf

>  <GenAI_Model>  (1) 
DiffSBDD

>  <Protein>  (1) 
generic_title2

$$$$
DiffSBDD_6_num_sample_50
     RDKit          3D

  0  0  0  0  0  0  0  0  0  0999 V3000
M  V30 BEGIN CTAB
M  V30 COUNTS 43 43 0 0 1
M  V30 BEGIN ATOM
M  V30 1 C 6.650638 5.768941 -17.133056 0
M  V30 2 C 5.108112 7.128394 -20.178939 0
M  V30 3 O 6.412585 0.451253 -15.050625 0
M  V30 4 C 7.765645 6.375001 -12.141653 0 CFG=1
M  V30 5 O 7.825517 1.068522 -12.718451 0
M  V30 6 C 6.513165 1.767667 -14.553809 0
M  V30 7 O 7.504063 4.798374 -15.142654 0
M  V30 8 C 9.036622 7.183773 -11.800123 0
M  V30 9 C 5.414231 6.797413 -18.753034 0
M  V30 10 O 8.589938 4.380958 -17.113853 0
M  V30 11 C 8.155575 3.397308 -13.345110 0 CFG=2
M  V30 12 C 7.681291 4.914237 -16.473342 0
M  V30 13 N 7.662268 5.025822 -11.538214 0
M  V30 14 C 7.035449 4.934480 -10.213831 0
M  V30 15 N 6.532930 6.017239 -18.434406 0
M  V30 16 C 7.847520 1.949361 -13.829761 0 CFG=1
M  V30 17 F 9.214399 7.421839 -10.504001 0
M  V30 18 S 5.434846 6.569272 -16.166665 0
M  V30 19 F 10.116602 6.565396 -12.278328 0
M  V30 20 O 7.987570 5.369286 -9.276772 0
M  V30 21 C 4.700467 7.174809 -17.633314 0
M  V30 22 O 6.575640 7.095553 -11.891667 0
M  V30 23 C 7.060696 4.056024 -12.460923 0
M  V30 24 N 8.634771 4.269110 -14.422559 0
M  V30 25 H 4.284283 7.838304 -20.255150 0
M  V30 26 H 5.972422 7.571142 -20.674399 0
M  V30 27 H 4.828324 6.234890 -20.737080 0
M  V30 28 H 6.524511 -0.140965 -14.318559 0
M  V30 29 H 7.788851 6.280174 -13.221746 0
M  V30 30 H 8.611023 1.182610 -12.192834 0
M  V30 31 H 5.674538 1.970360 -13.888569 0
M  V30 32 H 6.449694 2.444473 -15.402438 0
M  V30 33 H 9.004542 8.157572 -12.288988 0
M  V30 34 H 9.035844 3.282826 -12.709753 0
M  V30 35 H 6.807436 3.901861 -9.950382 0
M  V30 36 H 6.101242 5.489725 -10.132904 0
M  V30 37 H 8.634976 1.608744 -14.496942 0
M  V30 38 H 7.781406 6.286238 -9.091806 0
M  V30 39 H 3.800721 7.769286 -17.584065 0
M  V30 40 H 6.634810 7.419501 -10.984786 0
M  V30 41 H 6.588297 3.255790 -11.892605 0
M  V30 42 H 6.250531 4.504758 -13.037109 0
M  V30 43 H 9.170260 3.766562 -15.118894 0
M  V30 END ATOM
M  V30 BEGIN BOND
M  V30 1 1 6 3
M  V30 2 1 8 4
M  V30 3 1 9 2
M  V30 4 1 12 1
M  V30 5 1 12 7
M  V30 6 2 12 10
M  V30 7 1 13 4
M  V30 8 1 14 13
M  V30 9 2 15 1
M  V30 10 1 15 9
M  V30 11 1 16 5
M  V30 12 1 16 6
M  V30 13 1 16 11
M  V30 14 1 17 8
M  V30 15 1 18 1
M  V30 16 1 19 8
M  V30 17 1 20 14
M  V30 18 2 21 9
M  V30 19 1 21 18
M  V30 20 1 22 4
M  V30 21 1 23 11
M  V30 22 1 23 13
M  V30 23 1 24 7
M  V30 24 1 24 11
M  V30 25 1 25 2
M  V30 26 1 26 2
M  V30 27 1 27 2
M  V30 28 1 28 3
M  V30 29 1 4 29 CFG=3
M  V30 30 1 30 5
M  V30 31 1 31 6
M  V30 32 1 32 6
M  V30 33 1 33 8
M  V30 34 1 11 34 CFG=1
M  V30 35 1 35 14
M  V30 36 1 36 14
M  V30 37 1 16 37 CFG=3
M  V30 38 1 38 20
M  V30 39 1 39 21
M  V30 40 1 40 22
M  V30 41 1 41 23
M  V30 42 1 42 23
M  V30 43 1 43 24
M  V30 END BOND
M  V30 END CTAB
M  END
>  <i_epik_Tot_Q>  (1) 
0

>  <i_epik_Tot_abs_Q>  (1) 
0

>  <i_i_glide_confnum>  (1) 
668

>  <i_i_glide_lignum>  (1) 
15

>  <i_i_glide_posenum>  (1) 
368

>  <i_i_glide_rotatable_bonds>  (1) 
15

>  <i_lp_mmshare_version>  (1) 
72125

>  <i_m_source_file_index>  (1) 
7

>  <i_f3d_flags>  (1) 
0

>  <num_sample>  (1) 
50

>  <b_lp_Chiralities_Consistent>  (1) 
1

>  <r_epik_Charging_Adjusted_Penalty>  (1) 
0

>  <r_epik_Ionization_Penalty>  (1) 
3.5581637296787179e-06

>  <r_epik_Ionization_Penalty_Charging>  (1) 
0

>  <r_epik_Ionization_Penalty_Neutral>  (1) 
3.5581637296787179e-06

>  <r_epik_State_Penalty>  (1) 
-0

>  <r_glide_ring_energy>  (1) 
0

>  <r_i_docking_score>  (1) 
-5.3033673782314423

>  <r_i_glide_ecoul>  (1) 
-11.012842582534855

>  <r_i_glide_eff_state_penalty>  (1) 
-0

>  <r_i_glide_einternal>  (1) 
10.163099812962248

>  <r_i_glide_emodel>  (1) 
-46.252523460751036

>  <r_i_glide_emodel_strain>  (1) 
0.50641514319875114

>  <r_i_glide_energy>  (1) 
-36.254103511243599

>  <r_i_glide_erotb>  (1) 
1.3996290448132942

>  <r_i_glide_esite>  (1) 
-0.23870777779950789

>  <r_i_glide_evdw>  (1) 
-25.241260928708741

>  <r_i_glide_gscore>  (1) 
-5.3033673782314423

>  <r_i_glide_gscore_strain>  (1) 
0

>  <r_i_glide_hbond>  (1) 
-0.57599999999999996

>  <r_i_glide_ligand_efficiency>  (1) 
-0.22097364075964343

>  <r_i_glide_ligand_efficiency_ln>  (1) 
-1.2693391692825033

>  <r_i_glide_ligand_efficiency_sa>  (1) 
-0.63739827686971873

>  <r_i_glide_lipo>  (1) 
-1.5131107520466318

>  <r_i_glide_metal>  (1) 
-0

>  <r_i_glide_rewards>  (1) 
-1.4611884593829321

>  <r_lp_Energy>  (1) 
11.251940999999999

>  <r_lp_tautomer_probability>  (1) 
1

>  <s_epik_Chemistry_Notes>  (1) 
This compound contains an acetal/aminal-like group ( X-CH(R)-Y where X, Y are N, S, or O) that may be acid/base labile, releasing an aldehyde. This compound has a N-S or N-O group and may undergo hydrolysis at high or low pH.

>  <s_epik_cmdline>  (1) 
J2VwaWtfcHl0aG9uJywgJy1waHQnLCAnMS4wJywgJy1waCcsICc3LjQnLCAnLXRuJywgJzgnLCAnLW1hJywgJzUwMCcsICctaW1hZScsICc8aW5maWxlLm1hZT4nLCAnLW9tYWUnLCAnPG91dGZpbGUubWFlPic=

>  <s_epik_input>  (1) 
czFbY0hdYyhbQ0gzXSluYzFDKD1PKU9bTkhdW0NASF0oW0NAQEhdKFtPSF0pW0NIMl1bT0hdKVtDSDJdTihbQ0BIXShbQ0hdKEYpRilbT0hdKVtDSDJdW09IXQ==

>  <s_glide_docking_method>  (1) 
confgen

>  <s_i_glide_gridfile>  (1) 
gpcr_drd2_6luq_protein_autoprepared_prepared

>  <s_lp_Force_Field>  (1) 
S-OPLS

>  <s_lp_Variant>  (1) 
DiffSBDD_6_num_sample_50-1

>  <s_m_source_file>  (1) 
generated__ligand_DiffSBDD_2026-05-06_prepared.sdf

>  <GenAI_Model>  (1) 
DiffSBDD

>  <Protein>  (1) 
generic_title2

$$$$
DiffSBDD_30_num_sample_50
     RDKit          3D

  0  0  0  0  0  0  0  0  0  0999 V3000
M  V30 BEGIN CTAB
M  V30 COUNTS 51 53 0 0 1
M  V30 BEGIN ATOM
M  V30 1 C 11.049187 7.053491 -8.007240 0 CFG=1
M  V30 2 O 13.546415 7.837518 -8.770756 0 CHG=-1
M  V30 3 C 8.111901 5.303325 -15.987547 0
M  V30 4 N 11.371308 7.697500 -9.295765 0
M  V30 5 C 9.138127 5.946139 -9.239466 0
M  V30 6 C 7.563971 4.982362 -13.620851 0
M  V30 7 O 12.886538 8.569437 -10.691684 0
M  V30 8 C 6.258941 5.452446 -13.868743 0
M  V30 9 C 12.711996 6.164464 -1.617810 0
M  V30 10 C 11.736917 10.146120 -5.830550 0
M  V30 11 C 12.642405 8.049312 -9.598932 0
M  V30 12 C 8.496421 4.910661 -14.690968 0
M  V30 13 C 6.806032 5.769577 -16.225503 0
M  V30 14 F 6.438869 6.145522 -17.474508 0
M  V30 15 O 11.826516 7.681379 -3.136131 0
M  V30 16 C 11.364692 7.379913 -5.497567 0
M  V30 17 C 11.841882 9.571391 -4.557670 0
M  V30 18 O 7.909843 4.594979 -12.337078 0
M  V30 19 C 11.276909 7.946474 -6.780843 0
M  V30 20 C 9.278215 4.512672 -11.948720 0
M  V30 21 C 9.889591 5.917769 -11.787893 0
M  V30 22 C 5.881826 5.846728 -15.167521 0
M  V30 23 C 9.848148 6.122303 -8.108094 0
M  V30 24 C 12.635005 6.569316 -3.063313 0
M  V30 25 C 10.246068 7.966218 -10.212014 0
M  V30 26 C 9.408911 6.711516 -10.535532 0 CFG=2
M  V30 27 C 11.675011 8.204814 -4.386424 0
M  V30 28 C 11.468912 9.334711 -6.941121 0
M  V30 29 H 11.828323 6.314784 -7.841660 0
M  V30 30 H 8.820518 5.245545 -16.802043 0
M  V30 31 H 8.304773 5.257616 -9.246191 0
M  V30 32 H 5.547395 5.513171 -13.059291 0
M  V30 33 H 13.437317 5.369377 -1.461019 0
M  V30 34 H 13.034831 7.048099 -1.077987 0
M  V30 35 H 11.741819 5.817600 -1.257197 0
M  V30 36 H 11.882623 11.207674 -5.960110 0
M  V30 37 H 9.498570 4.556913 -14.524033 0
M  V30 38 H 11.231940 6.317061 -5.371471 0
M  V30 39 H 12.069379 10.169279 -3.703958 0
M  V30 40 H 9.854733 3.893923 -12.632901 0
M  V30 41 H 9.333198 3.966936 -11.008175 0
M  V30 42 H 9.628381 6.508990 -12.665316 0
M  V30 43 H 10.972247 5.861969 -11.891612 0
M  V30 44 H 4.882563 6.206572 -15.353275 0
M  V30 45 H 9.590354 5.562573 -7.221198 0
M  V30 46 H 12.234843 5.741820 -3.650991 0
M  V30 47 H 13.596075 6.969296 -3.401215 0
M  V30 48 H 9.606206 8.679296 -9.689308 0
M  V30 49 H 10.530421 8.472502 -11.126022 0
M  V30 50 H 8.424385 7.073095 -10.830259 0
M  V30 51 H 11.434748 9.770065 -7.923150 0
M  V30 END ATOM
M  V30 BEGIN BOND
M  V30 1 1 4 1
M  V30 2 2 8 6
M  V30 3 1 11 2
M  V30 4 1 11 4
M  V30 5 2 11 7
M  V30 6 2 12 3
M  V30 7 1 12 6
M  V30 8 1 13 3
M  V30 9 1 14 13
M  V30 10 2 17 10
M  V30 11 1 18 6
M  V30 12 1 19 1
M  V30 13 1 19 16
M  V30 14 1 20 18
M  V30 15 1 21 20
M  V30 16 1 22 8
M  V30 17 2 22 13
M  V30 18 1 23 1
M  V30 19 2 23 5
M  V30 20 1 24 9
M  V30 21 1 24 15
M  V30 22 1 25 4
M  V30 23 1 26 5
M  V30 24 1 26 21
M  V30 25 1 26 25
M  V30 26 1 27 15
M  V30 27 2 27 16
M  V30 28 1 27 17
M  V30 29 1 28 10
M  V30 30 2 28 19
M  V30 31 1 1 29 CFG=1
M  V30 32 1 30 3
M  V30 33 1 31 5
M  V30 34 1 32 8
M  V30 35 1 33 9
M  V30 36 1 34 9
M  V30 37 1 35 9
M  V30 38 1 36 10
M  V30 39 1 37 12
M  V30 40 1 38 16
M  V30 41 1 39 17
M  V30 42 1 40 20
M  V30 43 1 41 20
M  V30 44 1 42 21
M  V30 45 1 43 21
M  V30 46 1 44 22
M  V30 47 1 45 23
M  V30 48 1 46 24
M  V30 49 1 47 24
M  V30 50 1 48 25
M  V30 51 1 49 25
M  V30 52 1 26 50 CFG=3
M  V30 53 1 51 28
M  V30 END BOND
M  V30 END CTAB
M  END
>  <i_epik_Tot_Q>  (1) 
-1

>  <i_epik_Tot_abs_Q>  (1) 
1

>  <i_i_glide_confnum>  (1) 
421

>  <i_i_glide_lignum>  (1) 
77

>  <i_i_glide_posenum>  (1) 
326

>  <i_i_glide_rotatable_bonds>  (1) 
8

>  <i_lp_mmshare_version>  (1) 
72125

>  <i_m_source_file_index>  (1) 
31

>  <i_f3d_flags>  (1) 
0

>  <num_sample>  (1) 
50

>  <b_lp_Chiralities_Consistent>  (1) 
1

>  <r_epik_Charging_Adjusted_Penalty>  (1) 
0.0017651190196060487

>  <r_epik_Ionization_Penalty>  (1) 
0.001765159031891192

>  <r_epik_Ionization_Penalty_Charging>  (1) 
0.0017651190196060487

>  <r_epik_Ionization_Penalty_Neutral>  (1) 
4.0012285143307813e-08

>  <r_epik_State_Penalty>  (1) 
-0

>  <r_glide_ring_energy>  (1) 
1.1509255290509894

>  <r_i_docking_score>  (1) 
-5.2977950980089537

>  <r_i_glide_ecoul>  (1) 
-1.4433440813064209

>  <r_i_glide_eff_state_penalty>  (1) 
-0

>  <r_i_glide_einternal>  (1) 
17.034204284451338

>  <r_i_glide_emodel>  (1) 
-25.518995224732137

>  <r_i_glide_emodel_strain>  (1) 
2.1093655680012517

>  <r_i_glide_energy>  (1) 
-28.338679690175084

>  <r_i_glide_erotb>  (1) 
0.6577867668732289

>  <r_i_glide_esite>  (1) 
0

>  <r_i_glide_evdw>  (1) 
-26.895335608868663

>  <r_i_glide_gscore>  (1) 
-5.2977950980089537

>  <r_i_glide_gscore_strain>  (1) 
0

>  <r_i_glide_hbond>  (1) 
0

>  <r_i_glide_ligand_efficiency>  (1) 
-0.18920696778603405

>  <r_i_glide_ligand_efficiency_ln>  (1) 
-1.2228866586436149

>  <r_i_glide_ligand_efficiency_sa>  (1) 
-0.57454379178110482

>  <r_i_glide_lipo>  (1) 
-2.7026825849906166

>  <r_i_glide_metal>  (1) 
-0

>  <r_i_glide_rewards>  (1) 
-1.691630887252169

>  <r_lp_Energy>  (1) 
49.407502999999998

>  <r_lp_tautomer_probability>  (1) 
1

>  <s_epik_cmdline>  (1) 
J2VwaWtfcHl0aG9uJywgJy1waHQnLCAnMS4wJywgJy1waCcsICc3LjQnLCAnLXRuJywgJzgnLCAnLW1hJywgJzUwMCcsICctaW1hZScsICc8aW5maWxlLm1hZT4nLCAnLW9tYWUnLCAnPG91dGZpbGUubWFlPic=

>  <s_epik_input>  (1) 
W0NIM11bQ0gyXU9jKFtjSF1bY0hdW2NIXTEpW2NIXWMxW0NAQEhdMk4oQyg9TylbT0hdKVtDSDJdW0NASF0oW0NIXT1bQ0hdMilbQ0gyXVtDSDJdT2MzW2NIXVtjSF1jKEYpW2NIXVtjSF0z

>  <s_glide_docking_method>  (1) 
confgen

>  <s_i_glide_gridfile>  (1) 
gpcr_drd2_6luq_protein_autoprepared_prepared

>  <s_lp_Force_Field>  (1) 
S-OPLS

>  <s_lp_Variant>  (1) 
DiffSBDD_30_num_sample_50-1

>  <s_m_source_file>  (1) 
generated__ligand_DiffSBDD_2026-05-06_prepared.sdf

>  <GenAI_Model>  (1) 
DiffSBDD

>  <Protein>  (1) 
generic_title2

$$$$
DiffSBDD_5_num_sample_50
     RDKit          3D

  0  0  0  0  0  0  0  0  0  0999 V3000
M  V30 BEGIN CTAB
M  V30 COUNTS 55 58 0 0 1
M  V30 BEGIN ATOM
M  V30 1 C 8.008295 4.519704 -12.120580 0 CFG=1
M  V30 2 C 6.265974 6.572680 -20.063685 0
M  V30 3 C 9.077681 3.470577 -12.262485 0
M  V30 4 O 8.209406 6.759030 -12.979059 0
M  V30 5 C 5.614965 6.639073 -16.205374 0 CFG=1
M  V30 6 O 6.338342 5.514803 -10.691666 0
M  V30 7 C 7.615026 4.914737 -10.700762 0 CFG=2
M  V30 8 C 8.695945 6.033527 -20.598003 0
M  V30 9 C 7.015816 6.561328 -15.642645 0 CFG=1
M  V30 10 O 10.237304 7.768603 -6.282531 0
M  V30 11 C 9.742566 6.605046 -8.028475 0
M  V30 12 C 4.875151 7.953161 -16.128793 0
M  V30 13 N 9.436637 6.976875 -6.737330 0
M  V30 14 C 7.921895 5.580704 -13.190143 0
M  V30 15 N 8.634836 5.769007 -10.085051 0
M  V30 16 C 6.160743 5.262764 -19.287510 0
M  V30 17 C 6.437941 8.997455 -21.496685 0
M  V30 18 O 7.712574 3.186942 -12.577043 0
M  V30 19 C 7.478260 6.936066 -20.697183 0
M  V30 20 C 5.235983 8.639144 -20.858620 0
M  V30 21 C 8.734525 5.619198 -8.629988 0
M  V30 22 C 5.151318 7.429675 -20.143732 0
M  V30 23 C 9.232068 5.936213 -19.159397 0
M  V30 24 C 7.558519 8.148818 -21.416200 0
M  V30 25 C 6.996518 5.222440 -17.991492 0 CFG=1
M  V30 26 C 8.484752 4.921034 -18.275093 0
M  V30 27 S 7.355304 4.988993 -14.808824 0
M  V30 28 O 10.712075 6.988820 -8.689269 0
M  V30 29 C 6.790363 6.473984 -17.140916 0 CFG=1
M  V30 30 H 9.768954 3.552856 -13.091666 0
M  V30 31 H 9.434840 2.969306 -11.368126 0
M  V30 32 H 4.985042 5.769299 -16.044386 0
M  V30 33 H 6.406762 6.350331 -10.229882 0
M  V30 34 H 7.508103 4.000740 -10.123519 0
M  V30 35 H 8.466956 5.046261 -21.000286 0
M  V30 36 H 9.480357 6.437578 -21.238163 0
M  V30 37 H 7.434822 7.453492 -15.183260 0
M  V30 38 H 5.491960 8.764682 -16.514155 0
M  V30 39 H 3.954805 7.905951 -16.710309 0
M  V30 40 H 4.634842 8.178501 -15.091342 0
M  V30 41 H 8.394179 6.742109 -10.279687 0
M  V30 42 H 6.419336 4.428691 -19.940044 0
M  V30 43 H 5.113377 5.104131 -19.026941 0
M  V30 44 H 6.502216 9.925488 -22.045708 0
M  V30 45 H 4.377334 9.292626 -20.916827 0
M  V30 46 H 7.761932 5.769350 -8.164079 0
M  V30 47 H 9.054533 4.608208 -8.374672 0
M  V30 48 H 4.234755 7.159891 -19.653363 0
M  V30 49 H 10.271309 5.608388 -19.212570 0
M  V30 50 H 9.256892 6.921804 -18.692844 0
M  V30 51 H 8.481525 8.429671 -21.902231 0
M  V30 52 H 6.634830 4.366181 -17.424453 0
M  V30 53 H 9.014666 4.834247 -17.326669 0
M  V30 54 H 8.560696 3.935645 -18.736063 0
M  V30 55 H 7.034844 7.369306 -17.692955 0
M  V30 END ATOM
M  V30 BEGIN BOND
M  V30 1 1 3 1
M  V30 2 1 7 1
M  V30 3 1 7 6
M  V30 4 1 9 5
M  V30 5 1 12 5
M  V30 6 2 13 10
M  V30 7 1 13 11
M  V30 8 1 1 14 CFG=3
M  V30 9 2 14 4
M  V30 10 1 15 7
M  V30 11 1 16 2
M  V30 12 1 18 1
M  V30 13 1 18 3
M  V30 14 1 19 2
M  V30 15 1 19 8
M  V30 16 2 20 17
M  V30 17 1 21 11
M  V30 18 1 21 15
M  V30 19 2 22 2
M  V30 20 1 22 20
M  V30 21 1 23 8
M  V30 22 1 24 17
M  V30 23 2 24 19
M  V30 24 1 25 16
M  V30 25 1 26 23
M  V30 26 1 26 25
M  V30 27 1 27 9
M  V30 28 1 27 14
M  V30 29 2 28 11
M  V30 30 1 29 5
M  V30 31 1 29 9
M  V30 32 1 29 25
M  V30 33 1 30 3
M  V30 34 1 31 3
M  V30 35 1 5 32 CFG=1
M  V30 36 1 33 6
M  V30 37 1 7 34 CFG=1
M  V30 38 1 35 8
M  V30 39 1 36 8
M  V30 40 1 9 37 CFG=3
M  V30 41 1 38 12
M  V30 42 1 39 12
M  V30 43 1 40 12
M  V30 44 1 41 15
M  V30 45 1 42 16
M  V30 46 1 43 16
M  V30 47 1 44 17
M  V30 48 1 45 20
M  V30 49 1 46 21
M  V30 50 1 47 21
M  V30 51 1 48 22
M  V30 52 1 49 23
M  V30 53 1 50 23
M  V30 54 1 51 24
M  V30 55 1 25 52 CFG=1
M  V30 56 1 53 26
M  V30 57 1 54 26
M  V30 58 1 29 55 CFG=3
M  V30 END BOND
M  V30 END CTAB
M  END
>  <i_epik_Tot_Q>  (1) 
0

>  <i_epik_Tot_abs_Q>  (1) 
0

>  <i_i_glide_confnum>  (1) 
208

>  <i_i_glide_lignum>  (1) 
14

>  <i_i_glide_posenum>  (1) 
67

>  <i_i_glide_rotatable_bonds>  (1) 
10

>  <i_lp_mmshare_version>  (1) 
72125

>  <i_m_source_file_index>  (1) 
6

>  <i_f3d_flags>  (1) 
0

>  <num_sample>  (1) 
50

>  <b_lp_Chiralities_Consistent>  (1) 
1

>  <r_epik_Charging_Adjusted_Penalty>  (1) 
0

>  <r_epik_Ionization_Penalty>  (1) 
0.00033857845250697777

>  <r_epik_Ionization_Penalty_Charging>  (1) 
0

>  <r_epik_Ionization_Penalty_Neutral>  (1) 
0.00033857845250697777

>  <r_epik_State_Penalty>  (1) 
-0

>  <r_glide_ring_energy>  (1) 
0

>  <r_i_docking_score>  (1) 
-5.2888718018084475

>  <r_i_glide_ecoul>  (1) 
-6.7947205999975573

>  <r_i_glide_eff_state_penalty>  (1) 
-0

>  <r_i_glide_einternal>  (1) 
9.0365971483436152

>  <r_i_glide_emodel>  (1) 
-44.928776606301149

>  <r_i_glide_emodel_strain>  (1) 
0.78015120860729326

>  <r_i_glide_energy>  (1) 
-38.732640980362696

>  <r_i_glide_erotb>  (1) 
0.90319655978703284

>  <r_i_glide_esite>  (1) 
-0.15004623627241012

>  <r_i_glide_evdw>  (1) 
-31.937920380365139

>  <r_i_glide_gscore>  (1) 
-5.2888718018084475

>  <r_i_glide_gscore_strain>  (1) 
0

>  <r_i_glide_hbond>  (1) 
-0.24103264496593663

>  <r_i_glide_ligand_efficiency>  (1) 
-0.18237488971753268

>  <r_i_glide_ligand_efficiency_ln>  (1) 
-1.2110175283969318

>  <r_i_glide_ligand_efficiency_sa>  (1) 
-0.56031344226177648

>  <r_i_glide_lipo>  (1) 
-2.1975721181603785

>  <r_i_glide_metal>  (1) 
-0

>  <r_i_glide_rewards>  (1) 
-0.98731325317886465

>  <r_lp_Energy>  (1) 
19.075084

>  <r_lp_tautomer_probability>  (1) 
1

>  <s_epik_Chemistry_Notes>  (1) 
This compound contains an acetal/aminal-like group ( X-CH(R)-Y where X, Y are N, S, or O) that may be acid/base labile, releasing an aldehyde.

>  <s_epik_cmdline>  (1) 
J2VwaWtfcHl0aG9uJywgJy1waHQnLCAnMS4wJywgJy1waCcsICc3LjQnLCAnLXRuJywgJzgnLCAnLW1hJywgJzUwMCcsICctaW1hZScsICc8aW5maWxlLm1hZT4nLCAnLW9tYWUnLCAnPG91dGZpbGUubWFlPic=

>  <s_epik_input>  (1) 
Tz1OQyg9TylbQ0gyXVtOSF1bQ0BASF0oW09IXSlbQ0BdMShbQ0gyXU8xKUMoPU8pU1tDSF0oW0NASF0yW0NIM10pW0NIXTJbQ0BASF0oW0NIMl0zKVtDSDJdW0NIMl1bQ0gyXWMoYzM0KVtjSF1bY0hdW2NIXVtjSF00

>  <s_glide_docking_method>  (1) 
confgen

>  <s_i_glide_gridfile>  (1) 
gpcr_drd2_6luq_protein_autoprepared_prepared

>  <s_lp_Force_Field>  (1) 
S-OPLS

>  <s_lp_Variant>  (1) 
DiffSBDD_5_num_sample_50-1

>  <s_m_source_file>  (1) 
generated__ligand_DiffSBDD_2026-05-06_prepared.sdf

>  <GenAI_Model>  (1) 
DiffSBDD

>  <Protein>  (1) 
generic_title2

$$$$
DiffSBDD_34_num_sample_50
     RDKit          3D

  0  0  0  0  0  0  0  0  0  0999 V3000
M  V30 BEGIN CTAB
M  V30 COUNTS 109 114 0 0 1
M  V30 BEGIN ATOM
M  V30 1 C 8.760674 0.906108 -20.950276 0
M  V30 2 C 9.809991 4.959919 -17.347903 0
M  V30 3 C 7.979163 4.403178 -15.601423 0
M  V30 4 C 5.770916 -0.631786 -20.321235 0
M  V30 5 C 9.088190 4.152365 -11.474660 0
M  V30 6 C 5.625911 -5.755467 -18.172526 0 CFG=2
M  V30 7 C 11.114819 4.259760 -16.899754 0 CFG=2
M  V30 8 C 7.411164 5.801529 -15.262094 0
M  V30 9 O 8.373228 -1.388685 -19.963793 0
M  V30 10 C 3.744351 -3.874942 -21.629729 0 CFG=1
M  V30 11 N 6.234842 -5.430705 -15.786732 0 CHG=1
M  V30 12 C 7.782418 -1.926050 -21.141528 0 CFG=1
M  V30 13 O 12.029659 0.767573 -19.296495 0
M  V30 14 C 8.495098 4.192138 -17.046937 0 CFG=1
M  V30 15 C 9.818137 -0.008198 -18.711460 0
M  V30 16 F 9.584759 -3.193775 -21.891560 0
M  V30 17 C 8.157229 -4.255869 -20.319159 0
M  V30 18 C 8.115398 5.139489 -9.284120 0
M  V30 19 O 6.741177 -5.021021 -18.655800 0
M  V30 20 C 7.425574 4.467657 -18.125295 0
M  V30 21 C 12.230956 5.293285 -16.655971 0
M  V30 22 C 11.562372 3.165000 -17.891710 0
M  V30 23 C 9.208554 5.189300 -10.376430 0 CFG=2
M  V30 24 C 6.131830 0.597452 -21.181930 0
M  V30 25 O 8.234861 8.018453 -12.691651 0
M  V30 26 O 10.721504 2.075365 -17.891444 0
M  V30 27 C 7.092395 2.236408 -19.405137 0
M  V30 28 C 8.333314 6.879278 -12.235473 0
M  V30 29 C 8.321483 -3.306115 -21.501693 0 CFG=1
M  V30 30 C 6.277157 -1.990755 -20.881748 0 CFG=1
M  V30 31 C 10.985088 0.979192 -18.675613 0
M  V30 32 O 12.569664 3.297992 -18.592585 0
M  V30 33 O 10.041908 7.435241 -10.559050 0
M  V30 34 C 7.789268 4.415061 -12.204471 0
M  V30 35 C 7.327844 1.480869 -20.734973 0 CFG=1
M  V30 36 C 4.374425 -4.881761 -17.973755 0
M  V30 37 C 4.280228 -3.547653 -20.218572 0 CFG=1
M  V30 38 C 3.666634 -4.618503 -19.294479 0
M  V30 39 C 5.436350 5.126322 -13.713940 0
M  V30 40 C 6.681343 -4.502187 -19.986398 0 CFG=1
M  V30 41 C 6.065614 -6.420082 -16.863119 0
M  V30 42 O 4.091047 -3.069439 -22.759244 0
M  V30 43 C 6.725725 5.953022 -13.878139 0 CFG=1
M  V30 44 C 9.278927 6.577989 -11.007811 0
M  V30 45 C 5.797458 -3.218298 -20.014063 0 CFG=1
M  V30 46 N 7.656549 5.787829 -12.738415 0
M  V30 47 C 9.293371 -0.317354 -20.130752 0 CFG=2
M  V30 48 C 7.646885 3.678350 -19.431516 0
M  V30 49 C 4.556922 -4.428118 -22.770724 0
M  V30 50 H 8.844219 0.659344 -22.008529 0
M  V30 51 H 9.469704 1.726627 -20.844732 0
M  V30 52 H 9.888928 5.161520 -18.416957 0
M  V30 53 H 9.752774 5.950028 -16.897817 0
M  V30 54 H 8.790655 4.170766 -14.912423 0
M  V30 55 H 7.207830 3.655149 -15.420531 0
M  V30 56 H 6.103350 -0.482059 -19.293702 0
M  V30 57 H 4.684032 -0.665360 -20.264338 0
M  V30 58 H 9.118662 3.136795 -11.091645 0
M  V30 59 H 9.928976 4.227837 -12.167153 0
M  V30 60 H 5.413618 -6.559996 -18.878308 0
M  V30 61 H 10.931375 3.772524 -15.945840 0
M  V30 62 H 6.692236 6.095994 -16.026554 0
M  V30 63 H 8.215767 6.531120 -15.313208 0
M  V30 64 H 2.692050 -4.156127 -21.634475 0
M  V30 65 H 6.577177 -5.886854 -14.956169 0
M  V30 66 H 6.887771 -4.707541 -16.063414 0
M  V30 67 H 7.952022 -1.294297 -22.010363 0
M  V30 68 H 8.693694 3.125407 -17.101993 0
M  V30 69 H 9.015266 0.347072 -18.069504 0
M  V30 70 H 10.168337 -0.934451 -18.255851 0
M  V30 71 H 8.659807 -5.203073 -20.514473 0
M  V30 72 H 8.634840 -3.826148 -19.441348 0
M  V30 73 H 8.318574 5.872433 -8.502201 0
M  V30 74 H 7.122422 5.369332 -9.670229 0
M  V30 75 H 8.054775 4.170157 -8.796440 0
M  V30 76 H 6.429711 4.242724 -17.751925 0
M  V30 77 H 7.415050 5.536089 -18.346620 0
M  V30 78 H 13.154957 4.812304 -16.331994 0
M  V30 79 H 12.448385 5.871482 -17.554975 0
M  V30 80 H 11.944862 5.995435 -15.871554 0
M  V30 81 H 10.154521 5.029511 -9.863061 0
M  V30 82 H 5.251788 1.242488 -21.198405 0
M  V30 83 H 6.254950 0.299742 -22.223867 0
M  V30 84 H 7.492798 1.677248 -18.564550 0
M  V30 85 H 6.019789 2.301864 -19.217836 0
M  V30 86 H 7.795836 -3.697776 -22.372322 0
M  V30 87 H 5.879504 -2.078599 -21.881054 0
M  V30 88 H 6.939637 4.203524 -11.555264 0
M  V30 89 H 7.711021 3.684041 -13.006459 0
M  V30 90 H 7.283566 2.269723 -21.487482 0
M  V30 91 H 3.673855 -5.418820 -17.332300 0
M  V30 92 H 4.598216 -3.949554 -17.454002 0
M  V30 93 H 3.834844 -2.621622 -19.891703 0
M  V30 94 H 3.583124 -5.568188 -19.825603 0
M  V30 95 H 2.635033 -4.329262 -19.088907 0
M  V30 96 H 4.673182 5.456240 -14.415733 0
M  V30 97 H 5.589877 4.059702 -13.870230 0
M  V30 98 H 5.034839 5.255993 -12.709912 0
M  V30 99 H 6.297919 -5.259579 -20.669574 0
M  V30 100 H 5.323223 -7.152476 -16.543508 0
M  V30 101 H 7.002256 -6.960027 -17.009292 0
M  V30 102 H 6.358119 6.980524 -13.851968 0
M  V30 103 H 5.894622 -2.830404 -18.999188 0
M  V30 104 H 10.135365 -0.727893 -20.691193 0
M  V30 105 H 7.146521 4.219837 -20.235325 0
M  V30 106 H 8.703782 3.671487 -19.695912 0
M  V30 107 H 5.635579 -4.521497 -22.695005 0
M  V30 108 H 4.063224 -5.065977 -23.501239 0
M  V30 109 H 5.339797 -4.977409 -15.546423 0
M  V30 END ATOM
M  V30 BEGIN BOND
M  V30 1 1 7 2
M  V30 2 1 8 3
M  V30 3 1 12 9
M  V30 4 1 14 2
M  V30 5 1 14 3
M  V30 6 1 19 6
M  V30 7 1 20 14
M  V30 8 1 21 7
M  V30 9 1 22 7
M  V30 10 1 23 5
M  V30 11 1 23 18
M  V30 12 1 24 4
M  V30 13 1 26 22
M  V30 14 2 28 25
M  V30 15 1 29 12
M  V30 16 1 29 16
M  V30 17 1 29 17
M  V30 18 1 30 4
M  V30 19 1 30 12
M  V30 20 2 31 13
M  V30 21 1 31 15
M  V30 22 1 31 26
M  V30 23 2 32 22
M  V30 24 1 34 5
M  V30 25 1 35 1
M  V30 26 1 35 24
M  V30 27 1 35 27
M  V30 28 1 36 6
M  V30 29 1 37 10
M  V30 30 1 38 36
M  V30 31 1 38 37
M  V30 32 1 40 17
M  V30 33 1 40 19
M  V30 34 1 41 6
M  V30 35 1 41 11
M  V30 36 1 42 10
M  V30 37 1 43 8
M  V30 38 1 43 39
M  V30 39 1 44 23
M  V30 40 1 44 28
M  V30 41 2 44 33
M  V30 42 1 45 30
M  V30 43 1 45 37
M  V30 44 1 45 40
M  V30 45 1 46 28
M  V30 46 1 46 34
M  V30 47 1 46 43
M  V30 48 1 47 1
M  V30 49 1 47 9
M  V30 50 1 47 15
M  V30 51 1 48 20
M  V30 52 1 48 27
M  V30 53 1 49 10
M  V30 54 1 49 42
M  V30 55 1 50 1
M  V30 56 1 51 1
M  V30 57 1 52 2
M  V30 58 1 53 2
M  V30 59 1 54 3
M  V30 60 1 55 3
M  V30 61 1 56 4
M  V30 62 1 57 4
M  V30 63 1 58 5
M  V30 64 1 59 5
M  V30 65 1 6 60 CFG=3
M  V30 66 1 7 61 CFG=1
M  V30 67 1 62 8
M  V30 68 1 63 8
M  V30 69 1 10 64 CFG=1
M  V30 70 1 65 11
M  V30 71 1 66 11
M  V30 72 1 12 67 CFG=3
M  V30 73 1 14 68 CFG=1
M  V30 74 1 69 15
M  V30 75 1 70 15
M  V30 76 1 71 17
M  V30 77 1 72 17
M  V30 78 1 73 18
M  V30 79 1 74 18
M  V30 80 1 75 18
M  V30 81 1 76 20
M  V30 82 1 77 20
M  V30 83 1 78 21
M  V30 84 1 79 21
M  V30 85 1 80 21
M  V30 86 1 23 81 CFG=1
M  V30 87 1 82 24
M  V30 88 1 83 24
M  V30 89 1 84 27
M  V30 90 1 85 27
M  V30 91 1 29 86 CFG=3
M  V30 92 1 30 87 CFG=3
M  V30 93 1 88 34
M  V30 94 1 89 34
M  V30 95 1 35 90 CFG=3
M  V30 96 1 91 36
M  V30 97 1 92 36
M  V30 98 1 37 93 CFG=1
M  V30 99 1 94 38
M  V30 100 1 95 38
M  V30 101 1 96 39
M  V30 102 1 97 39
M  V30 103 1 98 39
M  V30 104 1 40 99 CFG=3
M  V30 105 1 100 41
M  V30 106 1 101 41
M  V30 107 1 43 102 CFG=3
M  V30 108 1 45 103 CFG=1
M  V30 109 1 47 104 CFG=3
M  V30 110 1 105 48
M  V30 111 1 106 48
M  V30 112 1 107 49
M  V30 113 1 108 49
M  V30 114 1 109 11
M  V30 END BOND
M  V30 END CTAB
M  END
>  <i_epik_Tot_Q>  (1) 
1

>  <i_epik_Tot_abs_Q>  (1) 
1

>  <i_i_glide_confnum>  (1) 
159

>  <i_i_glide_lignum>  (1) 
87

>  <i_i_glide_posenum>  (1) 
189

>  <i_i_glide_rotatable_bonds>  (1) 
6

>  <i_lp_mmshare_version>  (1) 
72125

>  <i_m_source_file_index>  (1) 
35

>  <i_f3d_flags>  (1) 
0

>  <num_sample>  (1) 
50

>  <b_lp_Chiralities_Consistent>  (1) 
1

>  <r_epik_Charging_Adjusted_Penalty>  (1) 
0.0091647518509246212

>  <r_epik_Ionization_Penalty>  (1) 
0.0045823761218381463

>  <r_epik_Ionization_Penalty_Charging>  (1) 
0.0045823759254623037

>  <r_epik_Ionization_Penalty_Neutral>  (1) 
1.9637584269267853e-10

>  <r_epik_State_Penalty>  (1) 
0.0045823759254623184

>  <r_glide_ring_energy>  (1) 
0.075723670429018577

>  <r_i_docking_score>  (1) 
-5.2884789027315984

>  <r_i_glide_ecoul>  (1) 
-9.6162645933808211

>  <r_i_glide_eff_state_penalty>  (1) 
0.0045823759254623184

>  <r_i_glide_einternal>  (1) 
15.512838718699816

>  <r_i_glide_emodel>  (1) 
-49.072533505896082

>  <r_i_glide_emodel_strain>  (1) 
0.19615288493967853

>  <r_i_glide_energy>  (1) 
-43.039706000909852

>  <r_i_glide_erotb>  (1) 
0.051949520036259446

>  <r_i_glide_esite>  (1) 
-0.224218871817083

>  <r_i_glide_evdw>  (1) 
-33.423441407529033

>  <r_i_glide_gscore>  (1) 
-5.2930612786570608

>  <r_i_glide_gscore_strain>  (1) 
0

>  <r_i_glide_hbond>  (1) 
-0.20000000000000001

>  <r_i_glide_ligand_efficiency>  (1) 
-0.10792814087207343

>  <r_i_glide_ligand_efficiency_ln>  (1) 
-1.0810860948375747

>  <r_i_glide_ligand_efficiency_sa>  (1) 
-0.39494206216534206

>  <r_i_glide_lipo>  (1) 
-1.311396598345109

>  <r_i_glide_metal>  (1) 
-0

>  <r_i_glide_rewards>  (1) 
-0.49578356914755378

>  <r_lp_Energy>  (1) 
81.194295999999994

>  <r_lp_tautomer_probability>  (1) 
0.99995000000000001

>  <s_epik_cmdline>  (1) 
J2VwaWtfcHl0aG9uJywgJy1waHQnLCAnMS4wJywgJy1waCcsICc3LjQnLCAnLXRuJywgJzgnLCAnLW1hJywgJzUwMCcsICctaW1hZScsICc8aW5maWxlLm1hZT4nLCAnLW9tYWUnLCAnPG91dGZpbGUubWFlPic=

>  <s_epik_input>  (1) 
W0NIMl0xT1tDQEBIXTFbQ0BIXTJbQ0gyXVtDSDJdW0NASF0oW0NIMl1bTkgyXSlPW0NASF0oW0NIMl1bQ0BASF0zRilbQ0BIXTJbQ0BIXShbQ0BIXTM0KVtDSDJdW0NIMl1bQ0BASF01W0NIMl1bQ0BIXShPNClbQ0gyXUMoPU8pT0MoPU8pW0NAQEhdKFtDSDNdKVtDSDJdW0NASF0oW0NIMl1bQ0gyXVtDSDJdNSlbQ0gyXVtDSDJdW0NAQEhdKFtDSDNdKU4oQyg9TylDNj1PKVtDSDJdW0NIMl1bQ0BASF02W0NIM10=

>  <s_glide_docking_method>  (1) 
confgen

>  <s_i_glide_gridfile>  (1) 
gpcr_drd2_6luq_protein_autoprepared_prepared

>  <s_lp_Force_Field>  (1) 
S-OPLS

>  <s_lp_Variant>  (1) 
DiffSBDD_34_num_sample_50-1

>  <s_m_source_file>  (1) 
generated__ligand_DiffSBDD_2026-05-06_prepared.sdf

>  <GenAI_Model>  (1) 
DiffSBDD

>  <Protein>  (1) 
generic_title2

$$$$
DiffSBDD_38_num_sample_50
     RDKit          3D

  0  0  0  0  0  0  0  0  0  0999 V3000
M  V30 BEGIN CTAB
M  V30 COUNTS 60 62 0 0 1
M  V30 BEGIN ATOM
M  V30 1 C 6.642793 2.650942 -19.735289 0
M  V30 2 O 8.948270 1.997402 -19.615977 0
M  V30 3 S 10.050071 4.969304 -16.437195 0
M  V30 4 F 11.068948 6.052995 -6.800971 0
M  V30 5 C 9.434841 5.315687 -8.852157 0 CFG=1
M  V30 6 C 5.160124 4.000106 -21.291546 0
M  V30 7 C 10.257946 7.342194 -10.047574 0
M  V30 8 C 8.634718 5.769297 -13.771980 0
M  V30 9 C 6.277764 4.056768 -20.244582 0 CFG=1
M  V30 10 C 8.402318 4.858159 -16.086351 0
M  V30 11 N 8.111194 3.033498 -17.797392 0
M  V30 12 C 8.987698 5.661779 -11.245161 0
M  V30 13 C 6.371106 5.403269 -14.736508 0
M  V30 14 C 8.009475 2.543848 -19.044691 0
M  V30 15 F 12.150394 7.487179 -7.955395 0
M  V30 16 O 7.503627 6.410726 -18.291655 0
M  V30 17 C 8.310208 5.012667 -12.465019 0 CFG=2
M  V30 18 O 8.923427 4.885292 -10.100909 0
M  V30 19 C 8.857315 3.578722 -12.602704 0
M  V30 20 O 10.941279 8.788912 -5.932310 0
M  V30 21 C 9.625094 6.853033 -11.235818 0
M  V30 22 N 9.034838 8.548741 -7.091680 0
M  V30 23 C 6.772087 4.995724 -12.252138 0
M  V30 24 C 6.995617 5.298123 -18.162213 0
M  V30 25 C 10.292059 8.221968 -6.809514 0
M  V30 26 C 5.838948 4.964438 -19.089256 0
M  V30 27 C 10.197325 6.643458 -8.911309 0
M  V30 28 C 7.481217 4.203203 -17.150218 0 CFG=2
M  V30 29 N 7.824513 5.302592 -14.906682 0
M  V30 30 C 5.974052 4.567662 -13.506318 0
M  V30 31 N 8.377175 5.369295 -7.891662 0
M  V30 32 C 10.919446 7.086382 -7.631047 0
M  V30 33 H 5.869268 2.271161 -19.065960 0
M  V30 34 H 6.662393 1.957548 -20.577710 0
M  V30 35 H 10.150691 4.552830 -8.546668 0
M  V30 36 H 4.234862 3.657360 -20.833471 0
M  V30 37 H 4.970961 4.984307 -21.721343 0
M  V30 38 H 5.407442 3.324468 -22.111301 0
M  V30 39 H 10.808123 8.271064 -10.077999 0
M  V30 40 H 8.343433 6.812138 -13.644845 0
M  V30 41 H 9.713024 5.769141 -13.914718 0
M  V30 42 H 7.153141 4.490390 -20.732890 0
M  V30 43 H 8.990656 2.788972 -17.363436 0
M  V30 44 H 6.147077 6.450326 -14.528235 0
M  V30 45 H 5.753586 5.170343 -15.595633 0
M  V30 46 H 8.460084 3.057633 -13.472889 0
M  V30 47 H 9.942575 3.591611 -12.691673 0
M  V30 48 H 8.634848 2.970056 -11.733307 0
M  V30 49 H 9.679098 7.441091 -12.137392 0
M  V30 50 H 8.578224 9.281711 -6.573401 0
M  V30 51 H 8.531919 8.056602 -7.823907 0
M  V30 52 H 6.513577 4.350003 -11.411230 0
M  V30 53 H 6.445634 5.996785 -11.963934 0
M  V30 54 H 5.034855 4.504138 -18.520747 0
M  V30 55 H 6.634847 3.732772 -16.661359 0
M  V30 56 H 4.907020 4.676185 -13.317168 0
M  V30 57 H 6.137701 3.509159 -13.711236 0
M  V30 58 H 8.703422 5.637326 -6.974766 0
M  V30 59 H 7.659896 6.042408 -8.155010 0
M  V30 60 H 5.442103 5.900463 -19.484647 0
M  V30 END ATOM
M  V30 BEGIN BOND
M  V30 1 1 9 1
M  V30 2 1 9 6
M  V30 3 2 10 3
M  V30 4 1 14 1
M  V30 5 2 14 2
M  V30 6 1 14 11
M  V30 7 1 17 8
M  V30 8 1 17 12
M  V30 9 1 18 5
M  V30 10 1 18 12
M  V30 11 1 17 19 CFG=3
M  V30 12 1 21 7
M  V30 13 2 21 12
M  V30 14 1 23 17
M  V30 15 2 24 16
M  V30 16 2 25 20
M  V30 17 1 25 22
M  V30 18 1 26 9
M  V30 19 1 26 24
M  V30 20 1 27 5
M  V30 21 2 27 7
M  V30 22 1 28 10
M  V30 23 1 28 11
M  V30 24 1 28 24
M  V30 25 1 29 8
M  V30 26 1 29 10
M  V30 27 1 29 13
M  V30 28 1 30 13
M  V30 29 1 30 23
M  V30 30 1 31 5
M  V30 31 1 32 4
M  V30 32 1 32 15
M  V30 33 1 32 25
M  V30 34 1 32 27
M  V30 35 1 33 1
M  V30 36 1 34 1
M  V30 37 1 5 35 CFG=1
M  V30 38 1 36 6
M  V30 39 1 37 6
M  V30 40 1 38 6
M  V30 41 1 39 7
M  V30 42 1 40 8
M  V30 43 1 41 8
M  V30 44 1 9 42 CFG=3
M  V30 45 1 43 11
M  V30 46 1 44 13
M  V30 47 1 45 13
M  V30 48 1 46 19
M  V30 49 1 47 19
M  V30 50 1 48 19
M  V30 51 1 49 21
M  V30 52 1 50 22
M  V30 53 1 51 22
M  V30 54 1 52 23
M  V30 55 1 53 23
M  V30 56 1 54 26
M  V30 57 1 28 55 CFG=1
M  V30 58 1 56 30
M  V30 59 1 57 30
M  V30 60 1 58 31
M  V30 61 1 59 31
M  V30 62 1 60 26
M  V30 END BOND
M  V30 END CTAB
M  END
>  <i_epik_Tot_Q>  (1) 
0

>  <i_epik_Tot_abs_Q>  (1) 
0

>  <i_i_glide_confnum>  (1) 
97

>  <i_i_glide_lignum>  (1) 
93

>  <i_i_glide_posenum>  (1) 
289

>  <i_i_glide_rotatable_bonds>  (1) 
5

>  <i_lp_mmshare_version>  (1) 
72125

>  <i_m_source_file_index>  (1) 
39

>  <i_f3d_flags>  (1) 
0

>  <num_sample>  (1) 
50

>  <b_lp_Chiralities_Consistent>  (1) 
1

>  <r_epik_Charging_Adjusted_Penalty>  (1) 
0.0043173356697657605

>  <r_epik_Ionization_Penalty>  (1) 
2.5101429145755949

>  <r_epik_Ionization_Penalty_Charging>  (1) 
0

>  <r_epik_Ionization_Penalty_Neutral>  (1) 
2.5101429145755949

>  <r_epik_State_Penalty>  (1) 
0.0043173356697657605

>  <r_glide_ring_energy>  (1) 
0.024453031346160229

>  <r_i_docking_score>  (1) 
-5.2845975409490977

>  <r_i_glide_ecoul>  (1) 
-2.0575138877405204

>  <r_i_glide_eff_state_penalty>  (1) 
0.0043173356697657605

>  <r_i_glide_einternal>  (1) 
0.94189744178319756

>  <r_i_glide_emodel>  (1) 
-56.137272315725909

>  <r_i_glide_emodel_strain>  (1) 
0

>  <r_i_glide_energy>  (1) 
-41.525989592970888

>  <r_i_glide_erotb>  (1) 
0.36503894659470715

>  <r_i_glide_esite>  (1) 
-0.075245646918579975

>  <r_i_glide_evdw>  (1) 
-39.468475705230368

>  <r_i_glide_gscore>  (1) 
-5.2889148766188638

>  <r_i_glide_gscore_strain>  (1) 
0

>  <r_i_glide_hbond>  (1) 
-0.27602315495140867

>  <r_i_glide_ligand_efficiency>  (1) 
-0.1651436731546593

>  <r_i_glide_ligand_efficiency_ln>  (1) 
-1.1833654421068647

>  <r_i_glide_ligand_efficiency_sa>  (1) 
-0.52429848098319742

>  <r_i_glide_lipo>  (1) 
-1.1264875955462914

>  <r_i_glide_metal>  (1) 
-0

>  <r_i_glide_rewards>  (1) 
-1.8941465573746941

>  <r_lp_Energy>  (1) 
65.752579999999995

>  <r_lp_tautomer_probability>  (1) 
0.99999998000000001

>  <s_epik_Chemistry_Notes>  (1) 
This compound contains an acetal/aminal-like group ( X-CH(R)-Y where X, Y are N, S, or O) that may be acid/base labile, releasing an aldehyde.

>  <s_epik_cmdline>  (1) 
J2VwaWtfcHl0aG9uJywgJy1waHQnLCAnMS4wJywgJy1waCcsICc3LjQnLCAnLXRuJywgJzgnLCAnLW1hJywgJzUwMCcsICctaW1hZScsICc8aW5maWxlLm1hZT4nLCAnLW9tYWUnLCAnPG91dGZpbGUubWFlPic=

>  <s_epik_input>  (1) 
W0NIM11bQ0BASF0xW0NIMl1DKD1PKVtOSF1bQ0BIXShDKD1PKVtDSDJdMSlDKD1TKU4oW0NIMl1bQ0gyXVtDSDJdMilbQ0gyXVtDQEBdMihbQ0gzXSlDKE9bQ0BASF0zW05IMl0pPVtDSF1bQ0hdPUMzQyhGKShGKUMoPU8pW05IMl0=

>  <s_glide_docking_method>  (1) 
confgen

>  <s_i_glide_gridfile>  (1) 
gpcr_drd2_6luq_protein_autoprepared_prepared

>  <s_lp_Force_Field>  (1) 
S-OPLS

>  <s_lp_Variant>  (1) 
DiffSBDD_38_num_sample_50-1

>  <s_m_source_file>  (1) 
generated__ligand_DiffSBDD_2026-05-06_prepared.sdf

>  <GenAI_Model>  (1) 
DiffSBDD

>  <Protein>  (1) 
generic_title2

$$$$
DiffSBDD_38_num_sample_50
     RDKit          3D

  0  0  0  0  0  0  0  0  0  0999 V3000
M  V30 BEGIN CTAB
M  V30 COUNTS 60 62 0 0 1
M  V30 BEGIN ATOM
M  V30 1 C 6.274441 2.090918 -18.913508 0
M  V30 2 O 8.393821 0.956989 -18.830914 0
M  V30 3 S 10.161984 4.969306 -16.503862 0
M  V30 4 F 10.995091 5.980823 -6.908112 0
M  V30 5 C 9.351948 5.290617 -8.978142 0 CFG=1
M  V30 6 C 6.724717 3.376668 -21.109742 0
M  V30 7 C 10.234843 7.298968 -10.157642 0
M  V30 8 C 8.632423 5.769298 -13.902012 0
M  V30 9 C 5.898880 3.310052 -19.810348 0 CFG=2
M  V30 10 C 8.505818 4.823168 -16.211908 0
M  V30 11 N 8.347115 3.057143 -18.018176 0
M  V30 12 C 8.919841 5.663128 -11.370297 0
M  V30 13 C 6.412854 5.404632 -14.975467 0
M  V30 14 C 7.771392 1.983128 -18.574010 0
M  V30 15 F 12.108601 7.398106 -8.050207 0
M  V30 16 O 7.597682 6.227013 -18.594790 0
M  V30 17 C 8.237661 5.037853 -12.600863 0 CFG=2
M  V30 18 O 8.818214 4.886687 -10.227926 0
M  V30 19 C 8.699748 3.570811 -12.710149 0
M  V30 20 O 10.888192 8.684602 -6.000665 0
M  V30 21 C 9.596814 6.832499 -11.352365 0
M  V30 22 N 9.034842 8.569303 -7.262395 0
M  V30 23 C 6.696414 5.108286 -12.446144 0
M  V30 24 C 7.102471 5.129428 -18.343415 0
M  V30 25 C 10.256932 8.169457 -6.922257 0
M  V30 26 C 5.838453 4.686545 -19.090764 0
M  V30 27 C 10.147994 6.597250 -9.025213 0
M  V30 28 C 7.647997 4.128038 -17.301427 0 CFG=2
M  V30 29 N 7.873318 5.284758 -15.067387 0
M  V30 30 C 5.932280 4.659780 -13.714551 0
M  V30 31 N 8.305932 5.369293 -8.006539 0
M  V30 32 C 10.868115 7.018709 -7.736512 0
M  V30 33 H 5.684359 2.081649 -17.998039 0
M  V30 34 H 5.995336 1.177083 -19.440201 0
M  V30 35 H 10.046811 4.502204 -8.687237 0
M  V30 36 H 7.768435 3.629027 -20.920591 0
M  V30 37 H 6.703965 2.421429 -21.635912 0
M  V30 38 H 6.324782 4.130689 -21.788026 0
M  V30 39 H 10.808616 8.213616 -10.179529 0
M  V30 40 H 8.335649 6.813608 -13.802401 0
M  V30 41 H 9.716299 5.757826 -13.993974 0
M  V30 42 H 4.875001 3.117257 -20.132826 0
M  V30 43 H 9.347749 3.020836 -17.878131 0
M  V30 44 H 6.188259 6.465374 -14.855971 0
M  V30 45 H 5.838048 5.105343 -15.844961 0
M  V30 46 H 8.358821 3.087989 -13.624894 0
M  V30 47 H 9.788395 3.502305 -12.691666 0
M  V30 48 H 8.327081 2.969338 -11.891670 0
M  V30 49 H 9.679164 7.419326 -12.252536 0
M  V30 50 H 8.590629 9.314950 -6.752395 0
M  V30 51 H 8.543367 8.114333 -8.027451 0
M  V30 52 H 6.375225 4.512186 -11.590615 0
M  V30 53 H 6.410249 6.135385 -12.212867 0
M  V30 54 H 5.034842 4.675303 -18.358530 0
M  V30 55 H 6.833793 3.621226 -16.793460 0
M  V30 56 H 4.864900 4.828338 -13.574325 0
M  V30 57 H 6.049955 3.585515 -13.858042 0
M  V30 58 H 7.667705 6.136784 -8.207919 0
M  V30 59 H 7.728843 4.541158 -8.034894 0
M  V30 60 H 5.573685 5.462123 -19.810214 0
M  V30 END ATOM
M  V30 BEGIN BOND
M  V30 1 1 9 1
M  V30 2 1 9 6
M  V30 3 2 10 3
M  V30 4 1 14 1
M  V30 5 2 14 2
M  V30 6 1 14 11
M  V30 7 1 17 8
M  V30 8 1 17 12
M  V30 9 1 18 5
M  V30 10 1 18 12
M  V30 11 1 17 19 CFG=3
M  V30 12 1 21 7
M  V30 13 2 21 12
M  V30 14 1 23 17
M  V30 15 2 24 16
M  V30 16 2 25 20
M  V30 17 1 25 22
M  V30 18 1 26 9
M  V30 19 1 26 24
M  V30 20 1 27 5
M  V30 21 2 27 7
M  V30 22 1 28 10
M  V30 23 1 28 11
M  V30 24 1 28 24
M  V30 25 1 29 8
M  V30 26 1 29 10
M  V30 27 1 29 13
M  V30 28 1 30 13
M  V30 29 1 30 23
M  V30 30 1 31 5
M  V30 31 1 32 4
M  V30 32 1 32 15
M  V30 33 1 32 25
M  V30 34 1 32 27
M  V30 35 1 33 1
M  V30 36 1 34 1
M  V30 37 1 5 35 CFG=1
M  V30 38 1 36 6
M  V30 39 1 37 6
M  V30 40 1 38 6
M  V30 41 1 39 7
M  V30 42 1 40 8
M  V30 43 1 41 8
M  V30 44 1 9 42 CFG=3
M  V30 45 1 43 11
M  V30 46 1 44 13
M  V30 47 1 45 13
M  V30 48 1 46 19
M  V30 49 1 47 19
M  V30 50 1 48 19
M  V30 51 1 49 21
M  V30 52 1 50 22
M  V30 53 1 51 22
M  V30 54 1 52 23
M  V30 55 1 53 23
M  V30 56 1 54 26
M  V30 57 1 28 55 CFG=1
M  V30 58 1 56 30
M  V30 59 1 57 30
M  V30 60 1 58 31
M  V30 61 1 59 31
M  V30 62 1 60 26
M  V30 END BOND
M  V30 END CTAB
M  END
>  <i_epik_Tot_Q>  (1) 
0

>  <i_epik_Tot_abs_Q>  (1) 
0

>  <i_i_glide_confnum>  (1) 
57

>  <i_i_glide_lignum>  (1) 
95

>  <i_i_glide_posenum>  (1) 
362

>  <i_i_glide_rotatable_bonds>  (1) 
5

>  <i_lp_mmshare_version>  (1) 
72125

>  <i_m_source_file_index>  (1) 
39

>  <i_f3d_flags>  (1) 
0

>  <num_sample>  (1) 
50

>  <b_lp_Chiralities_Consistent>  (1) 
1

>  <r_epik_Charging_Adjusted_Penalty>  (1) 
0.0043173356697657605

>  <r_epik_Ionization_Penalty>  (1) 
2.5101429145755949

>  <r_epik_Ionization_Penalty_Charging>  (1) 
0

>  <r_epik_Ionization_Penalty_Neutral>  (1) 
2.5101429145755949

>  <r_epik_State_Penalty>  (1) 
0.0043173356697657605

>  <r_glide_ring_energy>  (1) 
0.02445303134611947

>  <r_i_docking_score>  (1) 
-5.2826426906655337

>  <r_i_glide_ecoul>  (1) 
-2.3747386496237857

>  <r_i_glide_eff_state_penalty>  (1) 
0.0043173356697657605

>  <r_i_glide_einternal>  (1) 
1.174901496488161

>  <r_i_glide_emodel>  (1) 
-54.612965550482187

>  <r_i_glide_emodel_strain>  (1) 
0

>  <r_i_glide_energy>  (1) 
-41.169856250221322

>  <r_i_glide_erotb>  (1) 
0.36503894659470715

>  <r_i_glide_esite>  (1) 
-0.077619338654203021

>  <r_i_glide_evdw>  (1) 
-38.795117600597536

>  <r_i_glide_gscore>  (1) 
-5.2869600263352998

>  <r_i_glide_gscore_strain>  (1) 
0

>  <r_i_glide_hbond>  (1) 
-0.34907220600990047

>  <r_i_glide_ligand_efficiency>  (1) 
-0.16508258408329793

>  <r_i_glide_ligand_efficiency_ln>  (1) 
-1.1829276978411687

>  <r_i_glide_ligand_efficiency_sa>  (1) 
-0.52410453527091183

>  <r_i_glide_lipo>  (1) 
-1.0203598272657617

>  <r_i_glide_metal>  (1) 
-0

>  <r_i_glide_rewards>  (1) 
-1.9089809235266972

>  <r_lp_Energy>  (1) 
66.989650999999995

>  <r_lp_tautomer_probability>  (1) 
0.99999998000000001

>  <s_epik_Chemistry_Notes>  (1) 
This compound contains an acetal/aminal-like group ( X-CH(R)-Y where X, Y are N, S, or O) that may be acid/base labile, releasing an aldehyde.

>  <s_epik_cmdline>  (1) 
J2VwaWtfcHl0aG9uJywgJy1waHQnLCAnMS4wJywgJy1waCcsICc3LjQnLCAnLXRuJywgJzgnLCAnLW1hJywgJzUwMCcsICctaW1hZScsICc8aW5maWxlLm1hZT4nLCAnLW9tYWUnLCAnPG91dGZpbGUubWFlPic=

>  <s_epik_input>  (1) 
W0NIM11bQ0BASF0xW0NIMl1DKD1PKVtOSF1bQ0BIXShDKD1PKVtDSDJdMSlDKD1TKU4oW0NIMl1bQ0gyXVtDSDJdMilbQ0gyXVtDQEBdMihbQ0gzXSlDKE9bQ0BASF0zW05IMl0pPVtDSF1bQ0hdPUMzQyhGKShGKUMoPU8pW05IMl0=

>  <s_glide_docking_method>  (1) 
confgen

>  <s_i_glide_gridfile>  (1) 
gpcr_drd2_6luq_protein_autoprepared_prepared

>  <s_lp_Force_Field>  (1) 
S-OPLS

>  <s_lp_Variant>  (1) 
DiffSBDD_38_num_sample_50-3

>  <s_m_source_file>  (1) 
generated__ligand_DiffSBDD_2026-05-06_prepared.sdf

>  <GenAI_Model>  (1) 
DiffSBDD

>  <Protein>  (1) 
generic_title2

$$$$
DiffSBDD_9_num_sample_50
     RDKit          3D

  0  0  0  0  0  0  0  0  0  0999 V3000
M  V30 BEGIN CTAB
M  V30 COUNTS 38 40 0 0 1
M  V30 BEGIN ATOM
M  V30 1 C 8.929052 6.436390 -10.929814 0 CFG=2
M  V30 2 F 12.123557 8.168460 -7.845146 0
M  V30 3 C 8.118773 1.326972 -14.431614 0
M  V30 4 C 6.945973 7.043862 -12.392098 0
M  V30 5 C 7.992538 1.131483 -16.966390 0
M  V30 6 C 7.246971 3.977476 -14.527084 0
M  V30 7 C 7.398690 3.272352 -15.736372 0
M  V30 8 F 12.634839 7.660312 -9.891665 0
M  V30 9 F 10.541744 6.136303 -8.525150 0
M  V30 10 C 8.412818 7.310721 -12.075477 0
M  V30 11 C 7.834838 1.927201 -15.687655 0
M  V30 12 O 10.160860 7.046379 -10.543875 0
M  V30 13 C 6.778038 5.288849 -14.371095 0
M  V30 14 F 9.434841 8.028802 -8.635500 0
M  V30 15 C 10.402391 7.288888 -9.221769 0
M  V30 16 C 6.629854 5.619531 -12.873117 0 CFG=1
M  V30 17 C 7.976926 2.083760 -13.245497 0
M  V30 18 C 11.681921 8.135715 -9.103108 0
M  V30 19 C 7.354296 4.344899 -12.132003 0 CFG=1
M  V30 20 C 7.536175 3.416203 -13.336519 0
M  V30 21 F 11.434888 9.381084 -9.491665 0
M  V30 22 C 6.476275 6.125676 -15.382346 0
M  V30 23 S 9.034848 4.709278 -11.487765 0
M  V30 24 H 8.234842 6.428663 -10.098205 0
M  V30 25 H 8.452306 0.300561 -14.381557 0
M  V30 26 H 6.361338 7.234820 -11.491669 0
M  V30 27 H 6.592150 7.769301 -13.119093 0
M  V30 28 H 8.337760 0.116982 -16.763724 0
M  V30 29 H 8.716593 1.612364 -17.624308 0
M  V30 30 H 7.038666 1.066990 -17.490673 0
M  V30 31 H 7.166898 3.738377 -16.681652 0
M  V30 32 H 9.025168 7.162682 -12.963421 0
M  V30 33 H 8.512915 8.360786 -11.797027 0
M  V30 34 H 5.561161 5.474754 -12.707450 0
M  V30 35 H 8.206126 1.644472 -12.291667 0
M  V30 36 H 6.722162 3.910593 -11.357074 0
M  V30 37 H 6.594524 5.825446 -16.411814 0
M  V30 38 H 6.106668 7.121097 -15.189445 0
M  V30 END ATOM
M  V30 BEGIN BOND
M  V30 1 1 7 6
M  V30 2 1 10 1
M  V30 3 1 10 4
M  V30 4 1 11 3
M  V30 5 1 11 5
M  V30 6 2 11 7
M  V30 7 1 12 1
M  V30 8 1 13 6
M  V30 9 1 15 9
M  V30 10 1 15 12
M  V30 11 1 15 14
M  V30 12 1 16 4
M  V30 13 1 16 13
M  V30 14 2 17 3
M  V30 15 1 18 2
M  V30 16 1 18 8
M  V30 17 1 18 15
M  V30 18 1 19 16
M  V30 19 2 20 6
M  V30 20 1 20 17
M  V30 21 1 20 19
M  V30 22 1 21 18
M  V30 23 2 22 13
M  V30 24 1 23 1
M  V30 25 1 23 19
M  V30 26 1 1 24 CFG=1
M  V30 27 1 25 3
M  V30 28 1 26 4
M  V30 29 1 27 4
M  V30 30 1 28 5
M  V30 31 1 29 5
M  V30 32 1 30 5
M  V30 33 1 31 7
M  V30 34 1 32 10
M  V30 35 1 33 10
M  V30 36 1 16 34 CFG=1
M  V30 37 1 35 17
M  V30 38 1 19 36 CFG=1
M  V30 39 1 37 22
M  V30 40 1 38 22
M  V30 END BOND
M  V30 END CTAB
M  END
>  <i_epik_Tot_Q>  (1) 
0

>  <i_epik_Tot_abs_Q>  (1) 
0

>  <i_i_glide_confnum>  (1) 
5

>  <i_i_glide_lignum>  (1) 
20

>  <i_i_glide_posenum>  (1) 
385

>  <i_i_glide_rotatable_bonds>  (1) 
3

>  <i_lp_mmshare_version>  (1) 
72125

>  <i_m_source_file_index>  (1) 
10

>  <i_f3d_flags>  (1) 
0

>  <num_sample>  (1) 
50

>  <b_lp_Chiralities_Consistent>  (1) 
1

>  <r_epik_Charging_Adjusted_Penalty>  (1) 
0

>  <r_epik_Ionization_Penalty>  (1) 
0

>  <r_epik_Ionization_Penalty_Charging>  (1) 
0

>  <r_epik_Ionization_Penalty_Neutral>  (1) 
0

>  <r_epik_State_Penalty>  (1) 
-0

>  <r_glide_ring_energy>  (1) 
0

>  <r_i_docking_score>  (1) 
-5.279812164686188

>  <r_i_glide_ecoul>  (1) 
-1.2512492704643097

>  <r_i_glide_eff_state_penalty>  (1) 
-0

>  <r_i_glide_einternal>  (1) 
3.1844729867403956

>  <r_i_glide_emodel>  (1) 
-29.39784186078359

>  <r_i_glide_emodel_strain>  (1) 
0.3944376591099541

>  <r_i_glide_energy>  (1) 
-23.999146759677018

>  <r_i_glide_erotb>  (1) 
0.31055348549958028

>  <r_i_glide_esite>  (1) 
-0.10000000000000001

>  <r_i_glide_evdw>  (1) 
-22.747897489212708

>  <r_i_glide_gscore>  (1) 
-5.279812164686188

>  <r_i_glide_gscore_strain>  (1) 
0

>  <r_i_glide_hbond>  (1) 
0

>  <r_i_glide_ligand_efficiency>  (1) 
-0.22955705063852991

>  <r_i_glide_ligand_efficiency_ln>  (1) 
-1.2767064561109382

>  <r_i_glide_ligand_efficiency_sa>  (1) 
-0.652829716303029

>  <r_i_glide_lipo>  (1) 
-1.7815241745092285

>  <r_i_glide_metal>  (1) 
-0

>  <r_i_glide_rewards>  (1) 
-2.3837592106462586

>  <r_lp_Energy>  (1) 
13.417608

>  <r_lp_tautomer_probability>  (1) 
1

>  <s_epik_Chemistry_Notes>  (1) 
This compound contains an acetal/aminal-like group ( X-CH(R)-Y where X, Y are N, S, or O) that may be acid/base labile, releasing an aldehyde.

>  <s_epik_cmdline>  (1) 
J2VwaWtfcHl0aG9uJywgJy1waHQnLCAnMS4wJywgJy1waCcsICc3LjQnLCAnLXRuJywgJzgnLCAnLW1hJywgJzUwMCcsICctaW1hZScsICc8aW5maWxlLm1hZT4nLCAnLW9tYWUnLCAnPG91dGZpbGUubWFlPic=

>  <s_epik_input>  (1) 
RkMoRikoRilDKEYpKEYpT1tDQEhdKFMxKVtDSDJdW0NIMl1bQ0BASF0oQzI9W0NIMl0pW0NASF0xYyhjMjMpW2NIXVtjSF1jKFtDSDNdKVtjSF0z

>  <s_glide_docking_method>  (1) 
confgen

>  <s_i_glide_gridfile>  (1) 
gpcr_drd2_6luq_protein_autoprepared_prepared

>  <s_lp_Force_Field>  (1) 
S-OPLS

>  <s_lp_Variant>  (1) 
DiffSBDD_9_num_sample_50-1

>  <s_m_source_file>  (1) 
generated__ligand_DiffSBDD_2026-05-06_prepared.sdf

>  <GenAI_Model>  (1) 
DiffSBDD

>  <Protein>  (1) 
generic_title2

$$$$
DiffSBDD_33_num_sample_50
     RDKit          3D

  0  0  0  0  0  0  0  0  0  0999 V3000
M  V30 BEGIN CTAB
M  V30 COUNTS 69 72 0 0 1
M  V30 BEGIN ATOM
M  V30 1 O 6.984203 -0.907862 -19.241323 0
M  V30 2 C 8.184739 1.979181 -17.504372 0
M  V30 3 O 5.091933 -1.120789 -17.228786 0
M  V30 4 C 6.211785 0.468212 -15.769006 0
M  V30 5 C 9.048559 4.683912 -11.027685 0
M  V30 6 C 6.621558 1.262419 -12.692419 0
M  V30 7 C 5.631295 5.534048 -14.900689 0
M  V30 8 C 5.071880 -2.318108 -19.294230 0
M  V30 9 N 8.233873 1.793143 -16.098952 0
M  V30 10 C 5.586069 4.631195 -13.668236 0
M  V30 11 C 7.775228 6.530834 -14.129645 0
M  V30 12 C 7.169390 1.923132 -13.960009 0
M  V30 13 N 8.155254 0.712331 -18.139267 0
M  V30 14 C 6.328633 6.835676 -14.543458 0 CFG=1
M  V30 15 N 9.434848 7.312111 -8.229539 0 CHG=1
M  V30 16 C 7.922196 5.493966 -13.019852 0
M  V30 17 C 4.428476 -1.204418 -18.481872 0 CFG=2
M  V30 18 C 6.149049 -0.243453 -17.078623 0
M  V30 19 C 9.138744 6.640746 -6.944650 0
M  V30 20 C 10.367547 8.442996 -8.056092 0
M  V30 21 N 8.784905 5.639923 -12.088144 0
M  V30 22 C 6.983423 4.270629 -13.133754 0 CFG=2
M  V30 23 F 4.367443 -0.058879 -19.167139 0
M  V30 24 C 6.234775 7.826938 -15.710766 0
M  V30 25 C 7.076316 -0.130597 -18.104296 0
M  V30 26 O 7.613726 3.290455 -13.960676 0
M  V30 27 C 6.579075 -2.259744 -19.107004 0
M  V30 28 C 9.857418 6.394873 -9.306450 0
M  V30 29 C 8.794805 5.339475 -9.664622 0
M  V30 30 C 8.098808 1.264608 -12.965207 0
M  V30 31 C 7.175236 1.345301 -15.343515 0
M  V30 32 F 5.238050 0.169313 -14.893157 0
M  V30 33 H 9.065728 2.531893 -17.831284 0
M  V30 34 H 7.304333 2.562303 -17.779949 0
M  V30 35 H 8.477262 3.769308 -11.086071 0
M  V30 36 H 10.082903 4.355697 -11.099548 0
M  V30 37 H 6.234855 1.882492 -11.891814 0
M  V30 38 H 6.146288 0.286259 -12.748068 0
M  V30 39 H 4.634945 5.769286 -15.258276 0
M  V30 40 H 6.153874 5.031448 -15.716619 0
M  V30 41 H 4.708434 -3.290178 -18.959616 0
M  V30 42 H 4.797767 -2.217791 -20.344952 0
M  V30 43 H 8.864307 2.425036 -15.626915 0
M  V30 44 H 5.026582 3.726461 -13.879827 0
M  V30 45 H 5.034918 5.141769 -12.879079 0
M  V30 46 H 8.234864 7.458769 -13.794172 0
M  V30 47 H 5.814604 7.287409 -13.692771 0
M  V30 48 H 3.395711 -1.475171 -18.291652 0
M  V30 49 H 8.768578 0.630014 -18.936473 0
M  V30 50 H 10.025031 6.151608 -6.539875 0
M  V30 51 H 8.790885 7.377244 -6.222875 0
M  V30 52 H 8.342811 5.902478 -7.045074 0
M  V30 53 H 11.361896 8.091236 -7.778429 0
M  V30 54 H 10.450200 9.014911 -8.980616 0
M  V30 55 H 10.011518 9.106256 -7.267838 0
M  V30 56 H 6.785065 3.883488 -12.142519 0
M  V30 57 H 6.634849 7.401794 -16.631253 0
M  V30 58 H 5.196979 8.103906 -15.904885 0
M  V30 59 H 6.783120 8.739724 -15.491623 0
M  V30 60 H 6.889185 -2.677063 -18.146483 0
M  V30 61 H 7.072146 -2.856790 -19.873368 0
M  V30 62 H 10.777549 5.906539 -8.998705 0
M  V30 63 H 10.089434 6.993795 -10.188095 0
M  V30 64 H 7.792846 5.769310 -9.661911 0
M  V30 65 H 8.788421 4.569311 -8.894941 0
M  V30 66 H 8.554093 0.317868 -13.248714 0
M  V30 67 H 8.721447 1.905789 -12.348520 0
M  V30 68 H 8.541767 7.693124 -8.552569 0
M  V30 69 H 8.340475 6.169313 -14.990109 0
M  V30 END ATOM
M  V30 BEGIN BOND
M  V30 1 1 9 2
M  V30 2 1 10 7
M  V30 3 1 12 6
M  V30 4 1 13 2
M  V30 5 1 14 7
M  V30 6 1 14 11
M  V30 7 1 16 11
M  V30 8 1 17 3
M  V30 9 1 17 8
M  V30 10 1 18 3
M  V30 11 1 18 4
M  V30 12 1 19 15
M  V30 13 1 20 15
M  V30 14 1 21 5
M  V30 15 2 21 16
M  V30 16 1 22 10
M  V30 17 1 22 16
M  V30 18 1 23 17
M  V30 19 1 24 14
M  V30 20 1 25 1
M  V30 21 1 25 13
M  V30 22 2 25 18
M  V30 23 1 26 12
M  V30 24 1 26 22
M  V30 25 1 27 1
M  V30 26 1 27 8
M  V30 27 1 28 15
M  V30 28 1 29 5
M  V30 29 1 29 28
M  V30 30 1 30 6
M  V30 31 1 30 12
M  V30 32 2 31 4
M  V30 33 1 31 9
M  V30 34 1 31 12
M  V30 35 1 32 4
M  V30 36 1 33 2
M  V30 37 1 34 2
M  V30 38 1 35 5
M  V30 39 1 36 5
M  V30 40 1 37 6
M  V30 41 1 38 6
M  V30 42 1 39 7
M  V30 43 1 40 7
M  V30 44 1 41 8
M  V30 45 1 42 8
M  V30 46 1 43 9
M  V30 47 1 44 10
M  V30 48 1 45 10
M  V30 49 1 46 11
M  V30 50 1 14 47 CFG=1
M  V30 51 1 17 48 CFG=1
M  V30 52 1 49 13
M  V30 53 1 50 19
M  V30 54 1 51 19
M  V30 55 1 52 19
M  V30 56 1 53 20
M  V30 57 1 54 20
M  V30 58 1 55 20
M  V30 59 1 22 56 CFG=1
M  V30 60 1 57 24
M  V30 61 1 58 24
M  V30 62 1 59 24
M  V30 63 1 60 27
M  V30 64 1 61 27
M  V30 65 1 62 28
M  V30 66 1 63 28
M  V30 67 1 64 29
M  V30 68 1 65 29
M  V30 69 1 66 30
M  V30 70 1 67 30
M  V30 71 1 68 15
M  V30 72 1 69 11
M  V30 END BOND
M  V30 END CTAB
M  END
>  <i_epik_Tot_Q>  (1) 
1

>  <i_epik_Tot_abs_Q>  (1) 
1

>  <i_i_glide_confnum>  (1) 
248

>  <i_i_glide_lignum>  (1) 
85

>  <i_i_glide_posenum>  (1) 
55

>  <i_i_glide_rotatable_bonds>  (1) 
7

>  <i_lp_mmshare_version>  (1) 
72125

>  <i_m_source_file_index>  (1) 
34

>  <i_f3d_flags>  (1) 
0

>  <num_sample>  (1) 
50

>  <b_lp_Chiralities_Consistent>  (1) 
1

>  <r_epik_Charging_Adjusted_Penalty>  (1) 
0.41789118993368612

>  <r_epik_Ionization_Penalty>  (1) 
0.0076682513750627552

>  <r_epik_Ionization_Penalty_Charging>  (1) 
0.0072113509810821487

>  <r_epik_Ionization_Penalty_Neutral>  (1) 
0.0004569003939806066

>  <r_epik_State_Penalty>  (1) 
0.41067983895260396

>  <r_glide_ring_energy>  (1) 
0

>  <r_i_docking_score>  (1) 
-5.273226910451144

>  <r_i_glide_ecoul>  (1) 
-3.0012050385107081

>  <r_i_glide_eff_state_penalty>  (1) 
0.41067983895260396

>  <r_i_glide_einternal>  (1) 
11.420169044987832

>  <r_i_glide_emodel>  (1) 
-47.467396580260846

>  <r_i_glide_emodel_strain>  (1) 
1.3233817045450706

>  <r_i_glide_energy>  (1) 
-38.316213272284514

>  <r_i_glide_erotb>  (1) 
0.58078846603177925

>  <r_i_glide_esite>  (1) 
-0.15109335328699253

>  <r_i_glide_evdw>  (1) 
-35.31500823377381

>  <r_i_glide_gscore>  (1) 
-5.6839067494037483

>  <r_i_glide_gscore_strain>  (1) 
0

>  <r_i_glide_hbond>  (1) 
-0.20000000000000001

>  <r_i_glide_ligand_efficiency>  (1) 
-0.16478834095159825

>  <r_i_glide_ligand_efficiency_ln>  (1) 
-1.1808192479866919

>  <r_i_glide_ligand_efficiency_sa>  (1) 
-0.52317037155732282

>  <r_i_glide_lipo>  (1) 
-2.4388273939151199

>  <r_i_glide_metal>  (1) 
-0

>  <r_i_glide_rewards>  (1) 
-1.2588433007681183

>  <r_lp_Energy>  (1) 
47.505379999999995

>  <r_lp_tautomer_probability>  (1) 
0.49999519497573586

>  <s_epik_Chemistry_Notes>  (1) 
This compound has an imine and may undergo hydrolysis. This compound contains an acetal/aminal-like group ( X-CH(R)-Y where X, Y are N, S, or O) that may be acid/base labile, releasing an aldehyde.

>  <s_epik_cmdline>  (1) 
J2VwaWtfcHl0aG9uJywgJy1waHQnLCAnMS4wJywgJy1waCcsICc3LjQnLCAnLXRuJywgJzgnLCAnLW1hJywgJzUwMCcsICctaW1hZScsICc8aW5maWxlLm1hZT4nLCAnLW9tYWUnLCAnPG91dGZpbGUubWFlPic=

>  <s_epik_input>  (1) 
TzFbQ0BASF0oRilbQ0gyXVtDSDJdT0MoW0NAQEhdMTIpPU5bQ0gyXVtOSF1DKD1DMkYpQzMoW0NIMl1bQ0gyXTMpT1tDQEBIXShbQ0gyXVtDSDJdW0NAQEhdNFtDSDNdKUMoPVtDSF00KVtOSF1bQ0gyXVtDSDJdW0NIMl1OKFtDSDNdKVtDSDNd

>  <s_glide_docking_method>  (1) 
confgen

>  <s_i_glide_gridfile>  (1) 
gpcr_drd2_6luq_protein_autoprepared_prepared

>  <s_lp_Force_Field>  (1) 
S-OPLS

>  <s_lp_Variant>  (1) 
DiffSBDD_33_num_sample_50-3

>  <s_m_source_file>  (1) 
generated__ligand_DiffSBDD_2026-05-06_prepared.sdf

>  <GenAI_Model>  (1) 
DiffSBDD

>  <Protein>  (1) 
generic_title2

$$$$
DiffSBDD_43_num_sample_50
     RDKit          3D

  0  0  0  0  0  0  0  0  0  0999 V3000
M  V30 BEGIN CTAB
M  V30 COUNTS 59 59 0 0 1
M  V30 BEGIN ATOM
M  V30 1 C 9.872264 7.064984 -11.891666 0
M  V30 2 C 6.575037 1.801691 -12.937218 0
M  V30 3 N 11.834844 9.419432 -2.612124 0
M  V30 4 O 10.986483 8.393109 -7.207644 0
M  V30 5 C 8.230973 5.190576 -11.535237 0
M  V30 6 C 7.196911 4.248232 -13.707848 0 CFG=2
M  V30 7 C 10.146642 6.906409 -8.763815 0 CFG=1
M  V30 8 O 5.810045 3.769307 -11.788207 0
M  V30 9 O 8.030346 -0.048832 -15.589479 0
M  V30 10 N 9.034840 6.552025 -9.672969 0 CHG=1
M  V30 11 C 7.192774 0.421297 -14.910066 0
M  V30 12 F 11.197544 7.369295 -9.445062 0
M  V30 13 O 11.018026 6.969300 -12.382123 0
M  V30 14 C 12.661529 7.022309 -2.700406 0
M  V30 15 C 12.096663 9.474329 -4.039953 0 CFG=2
M  V30 16 C 9.752612 7.991179 -7.764276 0
M  V30 17 C 9.426104 5.941105 -10.957038 0 CFG=2
M  V30 18 C 8.481991 4.445042 -12.863602 0
M  V30 19 O 10.736905 9.209959 -5.997372 0
M  V30 20 C 6.154431 3.286395 -13.068099 0 CFG=2
M  V30 21 F 13.224696 8.569302 -1.091666 0
M  V30 22 C 11.270805 8.562282 -4.923268 0
M  V30 23 C 6.260349 0.969206 -14.166310 0
M  V30 24 O 9.062955 8.000697 -12.084139 0 CHG=-1
M  V30 25 C 11.034838 7.244707 -4.721001 0
M  V30 26 C 11.552882 6.424365 -3.556299 0
M  V30 27 C 7.534013 3.869565 -15.166155 0
M  V30 28 C 8.106810 5.024560 -16.003645 0
M  V30 29 F 13.398423 9.369348 -4.291679 0
M  V30 30 C 12.213399 8.228578 -1.877159 0 CFG=1
M  V30 31 H 7.632078 1.713355 -12.687256 0
M  V30 32 H 6.031642 1.331573 -12.116225 0
M  V30 33 H 12.337235 10.177258 -2.165693 0
M  V30 34 H 7.403748 5.893817 -11.654312 0
M  V30 35 H 7.919839 4.466810 -10.781768 0
M  V30 36 H 6.705464 5.220338 -13.767998 0
M  V30 37 H 10.495877 6.010875 -8.249185 0
M  V30 38 H 5.557887 4.677420 -11.862268 0
M  V30 39 H 8.457313 7.369295 -9.887511 0
M  V30 40 H 12.991671 6.247095 -2.007401 0
M  V30 41 H 13.537472 7.256599 -3.298976 0
M  V30 42 H 11.834725 10.480772 -4.362950 0
M  V30 43 H 9.281661 8.845091 -8.254764 0
M  V30 44 H 9.058873 7.610143 -7.013501 0
M  V30 45 H 10.228116 5.222188 -10.812692 0
M  V30 46 H 8.979138 3.495767 -12.666644 0
M  V30 47 H 9.196944 5.008113 -13.457800 0
M  V30 48 H 5.228141 3.352823 -13.633405 0
M  V30 49 H 5.215643 0.843033 -14.406206 0
M  V30 50 H 10.417164 6.710435 -5.425156 0
M  V30 51 H 10.700986 6.166027 -2.927345 0
M  V30 52 H 11.914053 5.491966 -3.981797 0
M  V30 53 H 8.234944 3.037170 -15.177853 0
M  V30 54 H 6.634861 3.511955 -15.664478 0
M  V30 55 H 8.271759 4.704611 -17.032529 0
M  V30 56 H 7.423793 5.874383 -16.026027 0
M  V30 57 H 9.064796 5.376780 -15.621636 0
M  V30 58 H 11.390275 7.962960 -1.213839 0
M  V30 59 H 8.417482 5.924498 -9.182200 0
M  V30 END ATOM
M  V30 BEGIN BOND
M  V30 1 1 10 7
M  V30 2 2 11 9
M  V30 3 1 12 7
M  V30 4 2 13 1
M  V30 5 1 15 3
M  V30 6 1 16 4
M  V30 7 1 16 7
M  V30 8 1 17 1
M  V30 9 1 17 5
M  V30 10 1 17 10
M  V30 11 1 18 5
M  V30 12 1 18 6
M  V30 13 1 19 4
M  V30 14 1 20 2
M  V30 15 1 20 6
M  V30 16 1 20 8
M  V30 17 1 22 15
M  V30 18 1 22 19
M  V30 19 1 23 2
M  V30 20 2 23 11
M  V30 21 1 24 1
M  V30 22 2 25 22
M  V30 23 1 26 14
M  V30 24 1 26 25
M  V30 25 1 27 6
M  V30 26 1 28 27
M  V30 27 1 29 15
M  V30 28 1 30 3
M  V30 29 1 30 14
M  V30 30 1 30 21
M  V30 31 1 31 2
M  V30 32 1 32 2
M  V30 33 1 33 3
M  V30 34 1 34 5
M  V30 35 1 35 5
M  V30 36 1 6 36 CFG=3
M  V30 37 1 7 37 CFG=1
M  V30 38 1 38 8
M  V30 39 1 39 10
M  V30 40 1 40 14
M  V30 41 1 41 14
M  V30 42 1 15 42 CFG=3
M  V30 43 1 43 16
M  V30 44 1 44 16
M  V30 45 1 17 45 CFG=1
M  V30 46 1 46 18
M  V30 47 1 47 18
M  V30 48 1 20 48 CFG=3
M  V30 49 1 49 23
M  V30 50 1 50 25
M  V30 51 1 51 26
M  V30 52 1 52 26
M  V30 53 1 53 27
M  V30 54 1 54 27
M  V30 55 1 55 28
M  V30 56 1 56 28
M  V30 57 1 57 28
M  V30 58 1 30 58 CFG=1
M  V30 59 1 59 10
M  V30 END BOND
M  V30 END CTAB
M  END
>  <i_epik_Tot_Q>  (1) 
0

>  <i_epik_Tot_abs_Q>  (1) 
2

>  <i_i_glide_confnum>  (1) 
867

>  <i_i_glide_lignum>  (1) 
108

>  <i_i_glide_posenum>  (1) 
87

>  <i_i_glide_rotatable_bonds>  (1) 
15

>  <i_lp_mmshare_version>  (1) 
72125

>  <i_m_source_file_index>  (1) 
44

>  <i_f3d_flags>  (1) 
0

>  <num_sample>  (1) 
50

>  <b_lp_Chiralities_Consistent>  (1) 
1

>  <r_epik_Charging_Adjusted_Penalty>  (1) 
2.1322098409762558

>  <r_epik_Ionization_Penalty>  (1) 
1.0661195873001319

>  <r_epik_Ionization_Penalty_Charging>  (1) 
1.0661068903442914

>  <r_epik_Ionization_Penalty_Neutral>  (1) 
1.2696955840525338e-05

>  <r_epik_State_Penalty>  (1) 
1.0661029506319644

>  <r_glide_ring_energy>  (1) 
0

>  <r_i_docking_score>  (1) 
-5.2386500096195405

>  <r_i_glide_ecoul>  (1) 
-9.4081207870373866

>  <r_i_glide_eff_state_penalty>  (1) 
1.0661029506319644

>  <r_i_glide_einternal>  (1) 
21.467652452473107

>  <r_i_glide_emodel>  (1) 
-46.064932206596097

>  <r_i_glide_emodel_strain>  (1) 
3.8553862944500636

>  <r_i_glide_energy>  (1) 
-44.17519890117083

>  <r_i_glide_erotb>  (1) 
1.1415552716364241

>  <r_i_glide_esite>  (1) 
-0.14943919238321604

>  <r_i_glide_evdw>  (1) 
-34.767078114133447

>  <r_i_glide_gscore>  (1) 
-6.3047529602515047

>  <r_i_glide_gscore_strain>  (1) 
0

>  <r_i_glide_hbond>  (1) 
-0.34490780595062503

>  <r_i_glide_ligand_efficiency>  (1) 
-0.17462166698731801

>  <r_i_glide_ligand_efficiency_ln>  (1) 
-1.1902783618491366

>  <r_i_glide_ligand_efficiency_sa>  (1) 
-0.54259011990684447

>  <r_i_glide_lipo>  (1) 
-2.5834483138783848

>  <r_i_glide_metal>  (1) 
-0

>  <r_i_glide_rewards>  (1) 
-1.2189408959134229

>  <r_lp_Energy>  (1) 
8.1104409999999998

>  <s_epik_cmdline>  (1) 
J2VwaWtfcHl0aG9uJywgJy1waHQnLCAnMS4wJywgJy1waCcsICc3LjQnLCAnLXRuJywgJzgnLCAnLW1hJywgJzUwMCcsICctaW1hZScsICc8aW5maWxlLm1hZT4nLCAnLW9tYWUnLCAnPG91dGZpbGUubWFlPic=

>  <s_epik_input>  (1) 
Tz1DPVtDSF1bQ0gyXVtDQEBIXShbT0hdKVtDQEhdKFtDSDJdW0NIM10pW0NIMl1bQ0gyXVtDQEBIXShDKD1PKVtPSF0pW05IXVtDQEBIXShGKVtDSDJdT09DMT1bQ0hdW0NIMl1bQ0gyXVtDQEBIXShGKVtOSF1bQ0BIXTFG

>  <s_glide_docking_method>  (1) 
confgen

>  <s_i_glide_gridfile>  (1) 
gpcr_drd2_6luq_protein_autoprepared_prepared

>  <s_lp_Force_Field>  (1) 
S-OPLS

>  <s_lp_Variant>  (1) 
DiffSBDD_43_num_sample_50-3

>  <s_m_source_file>  (1) 
generated__ligand_DiffSBDD_2026-05-06_prepared.sdf

>  <GenAI_Model>  (1) 
DiffSBDD

>  <Protein>  (1) 
generic_title2

$$$$
DiffSBDD_19_num_sample_50
     RDKit          3D

  0  0  0  0  0  0  0  0  0  0999 V3000
M  V30 BEGIN CTAB
M  V30 COUNTS 78 83 0 0 1
M  V30 BEGIN ATOM
M  V30 1 C 6.453368 2.684686 -13.447209 0 CFG=1
M  V30 2 C 10.239851 8.496496 -6.512020 0
M  V30 3 O 4.635392 4.169262 -12.852548 0
M  V30 4 C 11.540374 8.764563 -6.607163 0
M  V30 5 C 9.552440 6.629019 -10.917992 0
M  V30 6 C 10.630345 6.569082 -11.683125 0
M  V30 7 C 7.553157 0.513976 -15.866784 0 CFG=2
M  V30 8 O 11.575528 9.768988 -4.533357 0 CHG=-1
M  V30 9 C 8.130348 4.441273 -13.178617 0 CFG=1
M  V30 10 C 8.423810 1.768076 -16.152414 0 CFG=1
M  V30 11 O 9.434921 7.541486 -9.952526 0
M  V30 12 O 13.455058 8.569302 -10.428262 0
M  V30 13 C 12.397264 8.365275 -7.797901 0
M  V30 14 C 5.751348 4.030262 -13.674280 0 CFG=1
M  V30 15 C 5.850330 1.357247 -14.022842 0
M  V30 16 C 5.517821 1.412346 -19.767237 0
M  V30 17 C 10.245932 7.745013 -8.908068 0
M  V30 18 C 8.454101 2.163751 -17.648990 0
M  V30 19 N 12.218649 9.481775 -5.539145 0 CHG=1
M  V30 20 C 6.790510 0.966775 -19.017938 0
M  V30 21 C 12.261363 7.984800 -10.356432 0
M  V30 22 C 11.569488 8.007163 -9.046659 0
M  V30 23 C 7.841030 0.656542 -20.113970 0
M  V30 24 O 8.130709 -0.228695 -14.804498 0
M  V30 25 C 7.640054 -0.503512 -17.048077 0
M  V30 26 O 7.165963 2.131645 -18.268046 0
M  V30 27 C 6.094042 0.935815 -15.511907 0 CFG=2
M  V30 28 C 7.907196 3.009063 -13.779017 0 CFG=2
M  V30 29 C 9.480407 7.792831 -7.590276 0
M  V30 30 O 8.452685 5.822298 -11.137151 0
M  V30 31 C 5.155563 -0.472713 -17.441514 0
M  V30 32 C 6.767190 5.131053 -13.354205 0
M  V30 33 C 5.112965 -0.172371 -15.928807 0
M  V30 34 C 8.173708 3.057739 -15.317182 0
M  V30 35 C 6.551696 -0.292473 -18.113012 0 CFG=1
M  V30 36 C 8.611869 4.509505 -11.704825 0
M  V30 37 O 13.401390 9.769235 -5.693913 0
M  V30 38 O 8.635530 2.028372 -13.091709 0
M  V30 39 C 11.830707 7.357718 -11.491783 0
M  V30 40 H 6.413526 2.536679 -12.365399 0
M  V30 41 H 9.682559 8.800466 -5.643707 0
M  V30 42 H 4.933352 4.211420 -11.955380 0
M  V30 43 H 10.629957 5.870654 -12.505186 0
M  V30 44 H 8.875529 4.990692 -13.754963 0
M  V30 45 H 9.434834 1.447958 -15.950703 0
M  V30 46 H 13.534661 9.203366 -9.727921 0
M  V30 47 H 13.124008 9.133791 -8.035421 0
M  V30 48 H 12.959747 7.478542 -7.512533 0
M  V30 49 H 5.435080 4.169305 -14.691619 0
M  V30 50 H 6.194456 0.539631 -13.386974 0
M  V30 51 H 4.776647 1.369959 -13.834811 0
M  V30 52 H 5.065656 0.586870 -20.320377 0
M  V30 53 H 5.743155 2.200838 -20.485780 0
M  V30 54 H 4.766302 1.825112 -19.095261 0
M  V30 55 H 8.819326 3.187580 -17.750415 0
M  V30 56 H 9.205913 1.580690 -18.177313 0
M  V30 57 H 7.440011 -0.036523 -20.853257 0
M  V30 58 H 8.743170 0.188788 -19.723834 0
M  V30 59 H 8.133186 1.562180 -20.646021 0
M  V30 60 H 7.788330 -1.116330 -14.813389 0
M  V30 61 H 8.641838 -0.521877 -17.480013 0
M  V30 62 H 7.501408 -1.523883 -16.691130 0
M  V30 63 H 5.841893 1.768421 -16.162163 0
M  V30 64 H 8.618685 8.416763 -7.775337 0
M  V30 65 H 9.141869 6.806652 -7.273494 0
M  V30 66 H 4.856812 -1.515100 -17.565234 0
M  V30 67 H 4.368318 0.073729 -17.949381 0
M  V30 68 H 6.471542 5.707052 -12.476405 0
M  V30 69 H 6.814148 5.844688 -14.176773 0
M  V30 70 H 5.361202 -1.077836 -15.377379 0
M  V30 71 H 4.090673 0.085483 -15.649239 0
M  V30 72 H 9.031858 3.707792 -15.496711 0
M  V30 73 H 7.358902 3.602975 -15.794189 0
M  V30 74 H 6.632867 -1.141305 -18.796774 0
M  V30 75 H 7.995582 3.843952 -11.101510 0
M  V30 76 H 9.626125 4.123274 -11.593324 0
M  V30 77 H 9.562530 2.178224 -13.185021 0
M  V30 78 H 12.500731 7.396954 -12.340853 0
M  V30 END ATOM
M  V30 BEGIN BOND
M  V30 1 2 4 2
M  V30 2 2 6 5
M  V30 3 1 10 7
M  V30 4 1 11 5
M  V30 5 1 13 4
M  V30 6 1 14 1
M  V30 7 1 14 3
M  V30 8 1 15 1
M  V30 9 1 17 11
M  V30 10 1 18 10
M  V30 11 1 19 4
M  V30 12 1 19 8
M  V30 13 1 20 16
M  V30 14 1 21 12
M  V30 15 1 22 13
M  V30 16 2 22 17
M  V30 17 1 22 21
M  V30 18 1 23 20
M  V30 19 1 7 24 CFG=1
M  V30 20 1 25 7
M  V30 21 1 26 18
M  V30 22 1 26 20
M  V30 23 1 27 7
M  V30 24 1 27 15
M  V30 25 1 28 1
M  V30 26 1 28 9
M  V30 27 1 29 2
M  V30 28 1 29 17
M  V30 29 1 30 5
M  V30 30 1 32 9
M  V30 31 1 32 14
M  V30 32 1 33 27
M  V30 33 1 33 31
M  V30 34 1 34 10
M  V30 35 1 34 28
M  V30 36 1 35 20
M  V30 37 1 35 25
M  V30 38 1 35 31
M  V30 39 1 36 9
M  V30 40 1 36 30
M  V30 41 2 37 19
M  V30 42 1 28 38 CFG=1
M  V30 43 1 39 6
M  V30 44 2 39 21
M  V30 45 1 1 40 CFG=1
M  V30 46 1 41 2
M  V30 47 1 42 3
M  V30 48 1 43 6
M  V30 49 1 9 44 CFG=3
M  V30 50 1 10 45 CFG=1
M  V30 51 1 46 12
M  V30 52 1 47 13
M  V30 53 1 48 13
M  V30 54 1 14 49 CFG=3
M  V30 55 1 50 15
M  V30 56 1 51 15
M  V30 57 1 52 16
M  V30 58 1 53 16
M  V30 59 1 54 16
M  V30 60 1 55 18
M  V30 61 1 56 18
M  V30 62 1 57 23
M  V30 63 1 58 23
M  V30 64 1 59 23
M  V30 65 1 60 24
M  V30 66 1 61 25
M  V30 67 1 62 25
M  V30 68 1 27 63 CFG=3
M  V30 69 1 64 29
M  V30 70 1 65 29
M  V30 71 1 66 31
M  V30 72 1 67 31
M  V30 73 1 68 32
M  V30 74 1 69 32
M  V30 75 1 70 33
M  V30 76 1 71 33
M  V30 77 1 72 34
M  V30 78 1 73 34
M  V30 79 1 35 74 CFG=3
M  V30 80 1 75 36
M  V30 81 1 76 36
M  V30 82 1 77 38
M  V30 83 1 78 39
M  V30 END BOND
M  V30 END CTAB
M  END
>  <i_epik_Tot_Q>  (1) 
0

>  <i_epik_Tot_abs_Q>  (1) 
2

>  <i_i_glide_confnum>  (1) 
1

>  <i_i_glide_lignum>  (1) 
56

>  <i_i_glide_posenum>  (1) 
17

>  <i_i_glide_rotatable_bonds>  (1) 
8

>  <i_lp_mmshare_version>  (1) 
72125

>  <i_m_source_file_index>  (1) 
20

>  <i_f3d_flags>  (1) 
0

>  <num_sample>  (1) 
50

>  <b_lp_Chiralities_Consistent>  (1) 
1

>  <r_epik_Charging_Adjusted_Penalty>  (1) 
0.77299719136223677

>  <r_epik_Ionization_Penalty>  (1) 
0.77299806013173578

>  <r_epik_Ionization_Penalty_Charging>  (1) 
0

>  <r_epik_Ionization_Penalty_Neutral>  (1) 
0.77299806013173578

>  <r_epik_State_Penalty>  (1) 
0.77299719136223677

>  <r_glide_ring_energy>  (1) 
0

>  <r_i_docking_score>  (1) 
-5.1832352223908051

>  <r_i_glide_ecoul>  (1) 
-6.8221250222591276

>  <r_i_glide_eff_state_penalty>  (1) 
0.77299719136223677

>  <r_i_glide_einternal>  (1) 
1.2934441749332324

>  <r_i_glide_emodel>  (1) 
-32.731889733500502

>  <r_i_glide_emodel_strain>  (1) 
1.4577907018541225

>  <r_i_glide_energy>  (1) 
-27.100042231115246

>  <r_i_glide_erotb>  (1) 
0.20863989142985551

>  <r_i_glide_esite>  (1) 
0

>  <r_i_glide_evdw>  (1) 
-20.277917208856117

>  <r_i_glide_gscore>  (1) 
-5.9562324137530416

>  <r_i_glide_gscore_strain>  (1) 
0

>  <r_i_glide_hbond>  (1) 
-0.30749208010886375

>  <r_i_glide_ligand_efficiency>  (1) 
-0.13290346724078989

>  <r_i_glide_ligand_efficiency_ln>  (1) 
-1.1114327665621067

>  <r_i_glide_ligand_efficiency_sa>  (1) 
-0.45070375892322512

>  <r_i_glide_lipo>  (1) 
-2.9034989446256914

>  <r_i_glide_metal>  (1) 
-0

>  <r_i_glide_rewards>  (1) 
-0.91666666666666663

>  <r_lp_Energy>  (1) 
64.670022000000003

>  <s_epik_cmdline>  (1) 
J2VwaWtfcHl0aG9uJywgJy1waHQnLCAnMS4wJywgJy1waCcsICc3LjQnLCAnLXRuJywgJzgnLCAnLW1hJywgJzUwMCcsICctaW1hZScsICc8aW5maWxlLm1hZT4nLCAnLW9tYWUnLCAnPG91dGZpbGUubWFlPic=

>  <s_epik_input>  (1) 
W09IXVtDQEBdMTJbQ0BIXTNbQ0gyXU9DKFtDSDNdKShbQ0gzXSlbQ0BASF0oW0NIMl0xKVtDSDJdW0NIMl1bQ0BIXTJbQ0gyXVtDQEhdNFtDQF0oW0NIMl0zKShbT0hdKVtDQEBIXShbQ0gyXVtDQEBIXTRbT0hdKVtDSDJdT0MoTzUpPVtDSF1bQ0hdPUMoW09IXSlDKD1DNTYpW0NIMl1DKFtOK10oW08tXSk9Tyk9W0NIXVtDSDJdNg==

>  <s_glide_docking_method>  (1) 
confgen

>  <s_i_glide_gridfile>  (1) 
gpcr_drd2_6luq_protein_autoprepared_prepared

>  <s_lp_Force_Field>  (1) 
S-OPLS

>  <s_lp_Variant>  (1) 
DiffSBDD_19_num_sample_50-2

>  <s_m_source_file>  (1) 
generated__ligand_DiffSBDD_2026-05-06_prepared.sdf

>  <GenAI_Model>  (1) 
DiffSBDD

>  <Protein>  (1) 
generic_title2

$$$$
DiffSBDD_14_num_sample_50
     RDKit          3D

  0  0  0  0  0  0  0  0  0  0999 V3000
M  V30 BEGIN CTAB
M  V30 COUNTS 69 73 0 0 1
M  V30 BEGIN ATOM
M  V30 1 C 8.822227 3.376008 -18.283419 0 CFG=2
M  V30 2 C 8.160246 6.688720 -12.224967 0 CFG=1
M  V30 3 C 10.248601 2.890485 -20.371766 0
M  V30 4 C 9.783000 5.613199 -18.069110 0
M  V30 5 C 7.630956 3.380079 -14.486227 0
M  V30 6 C 11.434921 7.148903 -4.681932 0
M  V30 7 O 11.574843 6.337877 -3.576735 0
M  V30 8 C 9.102583 7.279944 -11.183731 0
M  V30 9 O 8.194226 5.301462 -10.352339 0
M  V30 10 C 10.817584 6.741274 -8.426801 0
M  V30 11 N 9.434795 6.522519 -8.792623 0
M  V30 12 N 8.525896 4.169401 -13.873941 0
M  V30 13 C 8.739214 2.935033 -16.784672 0 CFG=2
M  V30 14 C 10.240845 3.129618 -18.854035 0 CFG=1
M  V30 15 C 8.725472 4.171348 -12.428509 0
M  V30 16 C 12.413194 8.283382 -2.387545 0
M  V30 17 O 11.834715 9.146379 -3.355165 0
M  V30 18 C 7.171907 5.492642 -18.529263 0
M  V30 19 O 6.909187 2.586796 -13.884165 0
M  V30 20 C 8.729079 1.391587 -16.675764 0
M  V30 21 C 7.870138 5.258024 -11.736378 0 CFG=2
M  V30 22 C 11.175854 6.568654 -5.935388 0
M  V30 23 O 6.964025 7.434608 -12.291581 0
M  V30 24 C 11.650059 6.956487 -2.301944 0
M  V30 25 C 8.552465 4.862109 -18.533829 0
M  V30 26 S 11.229476 4.592360 -18.443278 0
M  V30 27 C 11.434902 9.363923 -5.721341 0
M  V30 28 C 7.533374 3.516097 -16.007555 0
M  V30 29 C 7.896247 5.295588 -19.832417 0
M  V30 30 C 11.054936 7.374706 -7.077949 0
M  V30 31 C 11.180498 8.766022 -6.972384 0
M  V30 32 C 9.280267 6.147623 -10.168934 0 CFG=2
M  V30 33 C 11.570442 8.560030 -4.572915 0
M  V30 34 H 8.086768 2.797105 -18.843766 0
M  V30 35 H 8.611164 6.701012 -13.215345 0
M  V30 36 H 9.613285 2.045262 -20.637742 0
M  V30 37 H 9.898890 3.763329 -20.922425 0
M  V30 38 H 11.257341 2.669482 -20.721733 0
M  V30 39 H 9.862051 6.582611 -18.558115 0
M  V30 40 H 9.726593 5.773837 -16.992319 0
M  V30 41 H 10.071036 7.553814 -11.601478 0
M  V30 42 H 8.685018 8.160504 -10.692432 0
M  V30 43 H 11.295357 5.769460 -8.407815 0
M  V30 44 H 11.314979 7.342222 -9.189320 0
M  V30 45 H 8.799487 7.272996 -8.537568 0
M  V30 46 H 9.089474 4.796576 -14.428560 0
M  V30 47 H 9.638198 3.305248 -16.291677 0
M  V30 48 H 10.721732 2.271753 -18.388917 0
M  V30 49 H 9.787160 4.352585 -12.263159 0
M  V30 50 H 8.525055 3.191765 -11.992227 0
M  V30 51 H 12.427803 8.782730 -1.417427 0
M  V30 52 H 13.444003 8.091967 -2.669053 0
M  V30 53 H 6.312884 4.852134 -18.341835 0
M  V30 54 H 7.081905 6.508533 -18.150792 0
M  V30 55 H 7.881546 0.967669 -17.215163 0
M  V30 56 H 9.631168 0.937754 -17.083162 0
M  V30 57 H 8.641561 1.053950 -15.642755 0
M  V30 58 H 6.815015 5.002436 -11.851232 0
M  V30 59 H 11.086516 5.500211 -6.023177 0
M  V30 60 H 6.674203 7.561931 -11.390227 0
M  V30 61 H 10.650581 7.064611 -1.884549 0
M  V30 62 H 12.179132 6.275749 -1.635070 0
M  V30 63 H 11.535388 10.437173 -5.645320 0
M  V30 64 H 6.634841 3.018629 -16.357154 0
M  V30 65 H 7.408859 4.581055 -16.183416 0
M  V30 66 H 8.282374 6.180221 -20.333108 0
M  V30 67 H 7.514983 4.522935 -20.496037 0
M  V30 68 H 11.090947 9.369393 -7.855033 0
M  V30 69 H 10.134773 5.542516 -10.458600 0
M  V30 END ATOM
M  V30 BEGIN BOND
M  V30 1 1 7 6
M  V30 2 1 8 2
M  V30 3 1 11 10
M  V30 4 1 12 5
M  V30 5 1 13 1
M  V30 6 1 14 1
M  V30 7 1 14 3
M  V30 8 1 15 12
M  V30 9 1 17 16
M  V30 10 2 19 5
M  V30 11 1 20 13
M  V30 12 1 21 2
M  V30 13 1 21 9
M  V30 14 1 21 15
M  V30 15 1 22 6
M  V30 16 1 23 2
M  V30 17 1 24 7
M  V30 18 1 24 16
M  V30 19 1 25 1
M  V30 20 1 25 4
M  V30 21 1 25 18
M  V30 22 1 26 4
M  V30 23 1 26 14
M  V30 24 1 28 5
M  V30 25 1 28 13
M  V30 26 1 29 18
M  V30 27 1 29 25
M  V30 28 1 30 10
M  V30 29 2 30 22
M  V30 30 2 31 27
M  V30 31 1 31 30
M  V30 32 1 32 8
M  V30 33 1 32 9
M  V30 34 1 32 11
M  V30 35 2 33 6
M  V30 36 1 33 17
M  V30 37 1 33 27
M  V30 38 1 1 34 CFG=3
M  V30 39 1 2 35 CFG=3
M  V30 40 1 36 3
M  V30 41 1 37 3
M  V30 42 1 38 3
M  V30 43 1 39 4
M  V30 44 1 40 4
M  V30 45 1 41 8
M  V30 46 1 42 8
M  V30 47 1 43 10
M  V30 48 1 44 10
M  V30 49 1 45 11
M  V30 50 1 46 12
M  V30 51 1 13 47 CFG=1
M  V30 52 1 14 48 CFG=1
M  V30 53 1 49 15
M  V30 54 1 50 15
M  V30 55 1 51 16
M  V30 56 1 52 16
M  V30 57 1 53 18
M  V30 58 1 54 18
M  V30 59 1 55 20
M  V30 60 1 56 20
M  V30 61 1 57 20
M  V30 62 1 21 58 CFG=1
M  V30 63 1 59 22
M  V30 64 1 60 23
M  V30 65 1 61 24
M  V30 66 1 62 24
M  V30 67 1 63 27
M  V30 68 1 64 28
M  V30 69 1 65 28
M  V30 70 1 66 29
M  V30 71 1 67 29
M  V30 72 1 68 31
M  V30 73 1 32 69 CFG=3
M  V30 END BOND
M  V30 END CTAB
M  END
>  <i_epik_Tot_Q>  (1) 
0

>  <i_epik_Tot_abs_Q>  (1) 
0

>  <i_i_glide_confnum>  (1) 
2496

>  <i_i_glide_lignum>  (1) 
50

>  <i_i_glide_posenum>  (1) 
72

>  <i_i_glide_rotatable_bonds>  (1) 
10

>  <i_lp_mmshare_version>  (1) 
72125

>  <i_m_source_file_index>  (1) 
15

>  <i_f3d_flags>  (1) 
0

>  <num_sample>  (1) 
50

>  <b_lp_Chiralities_Consistent>  (1) 
1

>  <r_epik_Charging_Adjusted_Penalty>  (1) 
0.31292197521915999

>  <r_epik_Ionization_Penalty>  (1) 
0.31292203413354946

>  <r_epik_Ionization_Penalty_Charging>  (1) 
0

>  <r_epik_Ionization_Penalty_Neutral>  (1) 
0.31292203413354946

>  <r_epik_State_Penalty>  (1) 
0.31292197521915999

>  <r_glide_ring_energy>  (1) 
1.3868352500725076

>  <r_i_docking_score>  (1) 
-5.1808182905119553

>  <r_i_glide_ecoul>  (1) 
-3.2368236226347507

>  <r_i_glide_eff_state_penalty>  (1) 
0.31292197521915999

>  <r_i_glide_einternal>  (1) 
58.19554580120267

>  <r_i_glide_emodel>  (1) 
-19.728198610416221

>  <r_i_glide_emodel_strain>  (1) 
0.94466349737012933

>  <r_i_glide_energy>  (1) 
-39.533653372812324

>  <r_i_glide_erotb>  (1) 
0.80225646669221395

>  <r_i_glide_esite>  (1) 
-0.081551911020452755

>  <r_i_glide_evdw>  (1) 
-36.296829750177572

>  <r_i_glide_gscore>  (1) 
-5.4937402657311152

>  <r_i_glide_gscore_strain>  (1) 
0

>  <r_i_glide_hbond>  (1) 
-0.23894637088342918

>  <r_i_glide_ligand_efficiency>  (1) 
-0.15699449365187743

>  <r_i_glide_ligand_efficiency_ln>  (1) 
-1.1521871629683853

>  <r_i_glide_ligand_efficiency_sa>  (1) 
-0.50356522800870873

>  <r_i_glide_lipo>  (1) 
-2.8060450513325375

>  <r_i_glide_metal>  (1) 
-0

>  <r_i_glide_rewards>  (1) 
-0.86908836828281777

>  <r_lp_Energy>  (1) 
13.089316999999999

>  <r_lp_tautomer_probability>  (1) 
1

>  <s_epik_Chemistry_Notes>  (1) 
This compound contains an acetal/aminal-like group ( X-CH(R)-Y where X, Y are N, S, or O) that may be acid/base labile, releasing an aldehyde.

>  <s_epik_cmdline>  (1) 
J2VwaWtfcHl0aG9uJywgJy1waHQnLCAnMS4wJywgJy1waCcsICc3LjQnLCAnLXRuJywgJzgnLCAnLW1hJywgJzUwMCcsICctaW1hZScsICc8aW5maWxlLm1hZT4nLCAnLW9tYWUnLCAnPG91dGZpbGUubWFlPic=

>  <s_epik_input>  (1) 
W0NIMl0xU1tDQEhdKFtDSDNdKVtDQEhdKEMxMltDSDJdW0NIMl0yKVtDQEhdKFtDSDNdKVtDSDJdQyg9TylbTkhdW0NIMl1bQ0BIXTNPW0NAQEhdKFtDSDJdW0NAQEhdM1tPSF0pW05IXVtDSDJdYyhbY0hdNClbY0hdW2NIXWMoYzQ1KU9bQ0gyXVtDSDJdTzU=

>  <s_glide_docking_method>  (1) 
confgen

>  <s_i_glide_gridfile>  (1) 
gpcr_drd2_6luq_protein_autoprepared_prepared

>  <s_lp_Force_Field>  (1) 
S-OPLS

>  <s_lp_Variant>  (1) 
DiffSBDD_14_num_sample_50-1

>  <s_m_source_file>  (1) 
generated__ligand_DiffSBDD_2026-05-06_prepared.sdf

>  <GenAI_Model>  (1) 
DiffSBDD

>  <Protein>  (1) 
generic_title2

$$$$
DiffSBDD_37_num_sample_50
     RDKit          3D

  0  0  0  0  0  0  0  0  0  0999 V3000
M  V30 BEGIN CTAB
M  V30 COUNTS 43 45 0 0 1
M  V30 BEGIN ATOM
M  V30 1 C 11.034845 7.404271 -5.105855 0
M  V30 2 N 10.042482 6.576458 -8.631264 0
M  V30 3 N 7.722345 3.939293 -13.610779 0 CHG=1
M  V30 4 C 11.689936 8.645465 -5.276880 0
M  V30 5 C 11.817851 9.192858 -6.565146 0
M  V30 6 C 11.293927 8.517056 -7.689610 0
M  V30 7 C 8.939344 5.090437 -15.449664 0
M  V30 8 C 12.388252 8.656174 -2.956511 0
M  V30 9 C 8.066724 5.245524 -14.197179 0 CFG=2
M  V30 10 C 8.571471 5.033922 -9.413779 0
M  V30 11 C 7.612103 4.086098 -12.145536 0 CFG=2
M  V30 12 S 9.834839 7.161486 -10.334240 0
M  V30 13 C 10.609849 7.272911 -7.519757 0
M  V30 14 N 9.300907 5.439969 -8.379307 0
M  V30 15 C 8.724712 6.025809 -13.060265 0
M  V30 16 C 6.205127 3.690812 -11.673973 0
M  V30 17 O 12.218468 9.328305 -4.198514 0
M  V30 18 C 10.496038 6.727373 -6.214869 0
M  V30 19 O 11.455519 9.065625 -8.929696 0
M  V30 20 C 8.692243 5.769296 -10.503567 0
M  V30 21 C 7.963518 5.550054 -11.824152 0 CFG=2
M  V30 22 H 10.937815 6.969303 -4.124336 0
M  V30 23 H 6.867062 3.579724 -14.009075 0
M  V30 24 H 12.325310 10.135593 -6.691673 0
M  V30 25 H 9.169348 6.058629 -15.891669 0
M  V30 26 H 9.887575 4.601817 -15.222063 0
M  V30 27 H 8.432651 4.498595 -16.212593 0
M  V30 28 H 12.991394 9.277725 -2.295513 0
M  V30 29 H 11.435121 8.486010 -2.455900 0
M  V30 30 H 12.912558 7.706717 -3.078022 0
M  V30 31 H 7.130153 5.739544 -14.461934 0
M  V30 32 H 7.941704 4.169932 -9.270469 0
M  V30 33 H 8.360609 3.417789 -11.716811 0
M  V30 34 H 9.223895 5.072296 -7.443375 0
M  V30 35 H 8.634839 7.104904 -13.186796 0
M  V30 36 H 9.783009 5.768123 -12.985868 0
M  V30 37 H 6.101211 3.783478 -10.592517 0
M  V30 38 H 5.437105 4.317000 -12.129987 0
M  V30 39 H 5.987300 2.655980 -11.936011 0
M  V30 40 H 9.992177 5.787898 -6.061035 0
M  V30 41 H 12.063179 9.787270 -8.961725 0
M  V30 42 H 7.040723 6.131119 -11.766010 0
M  V30 43 H 8.477141 3.294419 -13.795304 0
M  V30 END ATOM
M  V30 BEGIN BOND
M  V30 1 1 4 1
M  V30 2 2 5 4
M  V30 3 1 6 5
M  V30 4 1 9 3
M  V30 5 1 9 7
M  V30 6 1 11 3
M  V30 7 1 12 2
M  V30 8 1 13 2
M  V30 9 2 13 6
M  V30 10 1 14 2
M  V30 11 1 14 10
M  V30 12 1 15 9
M  V30 13 1 16 11
M  V30 14 1 17 4
M  V30 15 1 17 8
M  V30 16 2 18 1
M  V30 17 1 18 13
M  V30 18 1 19 6
M  V30 19 2 20 10
M  V30 20 1 20 12
M  V30 21 1 21 11
M  V30 22 1 21 15
M  V30 23 1 21 20
M  V30 24 1 22 1
M  V30 25 1 23 3
M  V30 26 1 24 5
M  V30 27 1 25 7
M  V30 28 1 26 7
M  V30 29 1 27 7
M  V30 30 1 28 8
M  V30 31 1 29 8
M  V30 32 1 30 8
M  V30 33 1 9 31 CFG=3
M  V30 34 1 32 10
M  V30 35 1 11 33 CFG=1
M  V30 36 1 34 14
M  V30 37 1 35 15
M  V30 38 1 36 15
M  V30 39 1 37 16
M  V30 40 1 38 16
M  V30 41 1 39 16
M  V30 42 1 40 18
M  V30 43 1 41 19
M  V30 44 1 21 42 CFG=1
M  V30 45 1 43 3
M  V30 END BOND
M  V30 END CTAB
M  END
>  <i_epik_Tot_Q>  (1) 
1

>  <i_epik_Tot_abs_Q>  (1) 
1

>  <i_i_glide_confnum>  (1) 
4

>  <i_i_glide_lignum>  (1) 
92

>  <i_i_glide_posenum>  (1) 
348

>  <i_i_glide_rotatable_bonds>  (1) 
4

>  <i_lp_mmshare_version>  (1) 
72125

>  <i_m_source_file_index>  (1) 
38

>  <i_f3d_flags>  (1) 
0

>  <num_sample>  (1) 
50

>  <b_lp_Chiralities_Consistent>  (1) 
1

>  <r_epik_Charging_Adjusted_Penalty>  (1) 
0.0014043227577044803

>  <r_epik_Ionization_Penalty>  (1) 
0.0059697486383219651

>  <r_epik_Ionization_Penalty_Charging>  (1) 
0.0014043227577044803

>  <r_epik_Ionization_Penalty_Neutral>  (1) 
0.0045654258806174849

>  <r_epik_State_Penalty>  (1) 
-0

>  <r_glide_ring_energy>  (1) 
0

>  <r_i_docking_score>  (1) 
-5.1713018035027103

>  <r_i_glide_ecoul>  (1) 
-1.511593635796362

>  <r_i_glide_eff_state_penalty>  (1) 
-0

>  <r_i_glide_einternal>  (1) 
6.3633938107550794

>  <r_i_glide_emodel>  (1) 
-43.232216758978709

>  <r_i_glide_emodel_strain>  (1) 
0.13908885472514498

>  <r_i_glide_energy>  (1) 
-34.276163141079216

>  <r_i_glide_erotb>  (1) 
0.38898511058673108

>  <r_i_glide_esite>  (1) 
-0.067220700240852249

>  <r_i_glide_evdw>  (1) 
-32.764569505282857

>  <r_i_glide_gscore>  (1) 
-5.1713018035027103

>  <r_i_glide_gscore_strain>  (1) 
0

>  <r_i_glide_hbond>  (1) 
0

>  <r_i_glide_ligand_efficiency>  (1) 
-0.24625246683346239

>  <r_i_glide_ligand_efficiency_ln>  (1) 
-1.2785939213168338

>  <r_i_glide_ligand_efficiency_sa>  (1) 
-0.67939188424032959

>  <r_i_glide_lipo>  (1) 
-2.0811584762886661

>  <r_i_glide_metal>  (1) 
-0

>  <r_i_glide_rewards>  (1) 
-1.546940216926326

>  <r_lp_Energy>  (1) 
16.995556000000001

>  <r_lp_tautomer_probability>  (1) 
1

>  <s_epik_Chemistry_Notes>  (1) 
This compound has a N-S or N-O group and may undergo hydrolysis at high or low pH.

>  <s_epik_cmdline>  (1) 
J2VwaWtfcHl0aG9uJywgJy1waHQnLCAnMS4wJywgJy1waCcsICc3LjQnLCAnLXRuJywgJzgnLCAnLW1hJywgJzUwMCcsICctaW1hZScsICc8aW5maWxlLm1hZT4nLCAnLW9tYWUnLCAnPG91dGZpbGUubWFlPic=

>  <s_epik_input>  (1) 
W0NIM11PYzFbY0hdW2NIXWMoYyhbY0hdMSlbT0hdKU4yU0MoPVtDSF1bTkhdMilbQ0BASF0oW0NIMl0zKVtDQEBIXShbQ0gzXSlbTkhdW0NAQEhdM1tDSDNd

>  <s_glide_docking_method>  (1) 
confgen

>  <s_i_glide_gridfile>  (1) 
gpcr_drd2_6luq_protein_autoprepared_prepared

>  <s_lp_Force_Field>  (1) 
S-OPLS

>  <s_lp_Variant>  (1) 
DiffSBDD_37_num_sample_50-1

>  <s_m_source_file>  (1) 
generated__ligand_DiffSBDD_2026-05-06_prepared.sdf

>  <GenAI_Model>  (1) 
DiffSBDD

>  <Protein>  (1) 
generic_title2

$$$$
DiffSBDD_13_num_sample_50
     RDKit          3D

  0  0  0  0  0  0  0  0  0  0999 V3000
M  V30 BEGIN CTAB
M  V30 COUNTS 46 50 0 0 1
M  V30 BEGIN ATOM
M  V30 1 C 7.760393 5.833551 -13.490052 0
M  V30 2 N 8.305377 3.783947 -15.951086 0 CFG=1 CHG=1
M  V30 3 C 11.034843 7.678620 -5.838629 0
M  V30 4 C 10.129527 6.673157 -7.905386 0
M  V30 5 C 8.350553 3.623735 -12.626507 0
M  V30 6 C 10.566169 7.865033 -8.589941 0
M  V30 7 C 8.317543 6.421952 -12.339741 0
M  V30 8 C 10.760482 4.295247 -17.546491 0
M  V30 9 C 10.383867 6.625236 -6.506974 0
M  V30 10 C 10.255385 3.164128 -18.459596 0
M  V30 11 O 7.034841 2.480447 -14.753649 0 CHG=-1
M  V30 12 C 8.001304 3.329583 -17.310823 0 CFG=1
M  V30 13 O 12.106391 9.819733 -5.891637 0
M  V30 14 C 8.871874 4.218704 -11.464882 0
M  V30 15 S 10.134219 7.789075 -10.248269 0
M  V30 16 C 8.302560 4.777722 -17.010142 0 CFG=2
M  V30 17 C 7.231217 3.764012 -14.927824 0 CFG=1
M  V30 18 C 9.493627 5.712305 -8.832143 0
M  V30 19 C 7.789814 4.423366 -13.650051 0
M  V30 20 C 11.466018 8.807928 -6.544512 0
M  V30 21 C 9.434833 6.234108 -10.113606 0
M  V30 22 C 9.677099 5.365070 -17.297212 0
M  V30 23 C 8.873514 5.619854 -11.315669 0
M  V30 24 C 9.083645 2.394064 -17.823957 0
M  V30 25 Cl 7.035259 6.845007 -14.691668 0
M  V30 26 C 11.236075 8.898160 -7.919165 0
M  V30 27 H 11.209387 7.609421 -4.774933 0
M  V30 28 H 8.378405 2.548524 -12.730475 0
M  V30 29 H 8.295882 7.496002 -12.229775 0
M  V30 30 H 11.638803 4.765757 -17.989718 0
M  V30 31 H 11.095575 3.873567 -16.597900 0
M  V30 32 H 10.067510 5.769300 -5.943835 0
M  V30 33 H 9.942785 3.584409 -19.416512 0
M  V30 34 H 11.069121 2.472607 -18.680590 0
M  V30 35 H 6.970442 2.985519 -17.372112 0
M  V30 36 H 12.197266 9.668942 -4.963522 0
M  V30 37 H 9.295271 3.596195 -10.691678 0
M  V30 38 H 7.462942 5.465761 -16.967140 0
M  V30 39 H 6.400440 4.376354 -15.273842 0
M  V30 40 H 9.107290 4.749868 -8.534876 0
M  V30 41 H 9.972673 6.017138 -16.474498 0
M  V30 42 H 9.587532 5.998631 -18.180428 0
M  V30 43 H 9.434110 1.759463 -17.007832 0
M  V30 44 H 8.645684 1.724199 -18.564560 0
M  V30 45 H 11.560386 9.769284 -8.465251 0
M  V30 46 H 9.211596 3.468772 -15.646481 0
M  V30 END ATOM
M  V30 BEGIN BOND
M  V30 1 2 6 4
M  V30 2 1 7 1
M  V30 3 2 9 3
M  V30 4 1 9 4
M  V30 5 1 10 8
M  V30 6 1 12 2
M  V30 7 2 14 5
M  V30 8 1 15 6
M  V30 9 1 16 2
M  V30 10 1 16 12
M  V30 11 1 17 2
M  V30 12 1 17 11
M  V30 13 1 18 4
M  V30 14 2 19 1
M  V30 15 1 19 5
M  V30 16 1 19 17
M  V30 17 1 20 3
M  V30 18 1 20 13
M  V30 19 1 21 15
M  V30 20 2 21 18
M  V30 21 1 22 8
M  V30 22 1 22 16
M  V30 23 2 23 7
M  V30 24 1 23 14
M  V30 25 1 23 21
M  V30 26 1 24 10
M  V30 27 1 24 12
M  V30 28 1 25 1
M  V30 29 1 26 6
M  V30 30 2 26 20
M  V30 31 1 27 3
M  V30 32 1 28 5
M  V30 33 1 29 7
M  V30 34 1 30 8
M  V30 35 1 31 8
M  V30 36 1 32 9
M  V30 37 1 33 10
M  V30 38 1 34 10
M  V30 39 1 12 35 CFG=1
M  V30 40 1 36 13
M  V30 41 1 37 14
M  V30 42 1 16 38 CFG=1
M  V30 43 1 17 39 CFG=3
M  V30 44 1 40 18
M  V30 45 1 41 22
M  V30 46 1 42 22
M  V30 47 1 43 24
M  V30 48 1 44 24
M  V30 49 1 45 26
M  V30 50 1 2 46 CFG=1
M  V30 END BOND
M  V30 END CTAB
M  END
>  <i_epik_Tot_Q>  (1) 
0

>  <i_epik_Tot_abs_Q>  (1) 
2

>  <i_i_glide_confnum>  (1) 
5

>  <i_i_glide_lignum>  (1) 
48

>  <i_i_glide_posenum>  (1) 
333

>  <i_i_glide_rotatable_bonds>  (1) 
4

>  <i_lp_mmshare_version>  (1) 
72125

>  <i_m_source_file_index>  (1) 
14

>  <i_f3d_flags>  (1) 
0

>  <num_sample>  (1) 
50

>  <b_lp_Chiralities_Consistent>  (1) 
1

>  <r_epik_Charging_Adjusted_Penalty>  (1) 
0.011735890959206876

>  <r_epik_Ionization_Penalty>  (1) 
0.011735890959206876

>  <r_epik_Ionization_Penalty_Charging>  (1) 
0.0019353161310539371

>  <r_epik_Ionization_Penalty_Neutral>  (1) 
0.009800574828152938

>  <r_epik_State_Penalty>  (1) 
0.0098005748281529397

>  <r_glide_ring_energy>  (1) 
0

>  <r_i_docking_score>  (1) 
-5.1561296898360833

>  <r_i_glide_ecoul>  (1) 
-0.25184148379571036

>  <r_i_glide_eff_state_penalty>  (1) 
0.0098005748281529397

>  <r_i_glide_einternal>  (1) 
5.2520428097199359

>  <r_i_glide_emodel>  (1) 
-43.54878070295343

>  <r_i_glide_emodel_strain>  (1) 
2.4736933032187878

>  <r_i_glide_energy>  (1) 
-36.424899476280721

>  <r_i_glide_erotb>  (1) 
0.39195233306171845

>  <r_i_glide_esite>  (1) 
0

>  <r_i_glide_evdw>  (1) 
-36.173057992485013

>  <r_i_glide_gscore>  (1) 
-5.1659302646642367

>  <r_i_glide_gscore_strain>  (1) 
0

>  <r_i_glide_hbond>  (1) 
0

>  <r_i_glide_ligand_efficiency>  (1) 
-0.1983126803783109

>  <r_i_glide_ligand_efficiency_ln>  (1) 
-1.2109001390165455

>  <r_i_glide_ligand_efficiency_sa>  (1) 
-0.58750053593607365

>  <r_i_glide_lipo>  (1) 
-1.9277075611748764

>  <r_i_glide_metal>  (1) 
-0

>  <r_i_glide_rewards>  (1) 
-1.783745914357471

>  <r_lp_Energy>  (1) 
53.532539999999997

>  <s_epik_Chemistry_Notes>  (1) 
This compound contains an acetal/aminal-like group ( X-CH(R)-Y where X, Y are N, S, or O) that may be acid/base labile, releasing an aldehyde.

>  <s_epik_cmdline>  (1) 
J2VwaWtfcHl0aG9uJywgJy1waHQnLCAnMS4wJywgJy1waCcsICc3LjQnLCAnLXRuJywgJzgnLCAnLW1hJywgJzUwMCcsICctaW1hZScsICc8aW5maWxlLm1hZT4nLCAnLW9tYWUnLCAnPG91dGZpbGUubWFlPic=

>  <s_epik_input>  (1) 
W2NIXTFbY0hdYyhbT0hdKVtjSF1jKGMxMilzYyhbY0hdMiktYyhbY0hdYzNDbClbY0hdW2NIXWMzW0NASF0oW09IXSlONFtDQEhdKFtDQEhdNDUpW0NIMl1bQ0gyXVtDSDJdW0NIMl01

>  <s_glide_docking_method>  (1) 
confgen

>  <s_i_glide_gridfile>  (1) 
gpcr_drd2_6luq_protein_autoprepared_prepared

>  <s_lp_Force_Field>  (1) 
S-OPLS

>  <s_lp_Variant>  (1) 
DiffSBDD_13_num_sample_50-1

>  <s_m_source_file>  (1) 
generated__ligand_DiffSBDD_2026-05-06_prepared.sdf

>  <GenAI_Model>  (1) 
DiffSBDD

>  <Protein>  (1) 
generic_title2

$$$$
DiffSBDD_24_num_sample_50
     RDKit          3D

  0  0  0  0  0  0  0  0  0  0999 V3000
M  V30 BEGIN CTAB
M  V30 COUNTS 85 91 0 0 1
M  V30 BEGIN ATOM
M  V30 1 N 8.030542 4.448262 -17.739919 0
M  V30 2 C 9.404597 5.893313 -9.751228 0
M  V30 3 O 6.183424 0.413413 -15.288866 0
M  V30 4 C 9.313455 2.085856 -17.690718 0 CFG=2
M  V30 5 C 12.414081 6.033005 -18.300738 0 CFG=1
M  V30 6 C 9.060566 6.501972 -7.216140 0 CFG=2
M  V30 7 C 6.491926 1.823067 -13.425729 0 CFG=2
M  V30 8 C 7.799246 2.229020 -15.628312 0
M  V30 9 N 12.853310 4.905467 -19.122541 0
M  V30 10 N 8.172838 3.369252 -12.339347 0 CFG=2 CHG=1
M  V30 11 C 6.747708 4.137206 -14.356205 0
M  V30 12 C 7.264702 3.344188 -18.334575 0
M  V30 13 C 10.992206 5.760107 -17.809472 0
M  V30 14 C 7.581589 3.596351 -15.508361 0
M  V30 15 C 14.294772 5.075664 -19.275969 0
M  V30 16 C 8.499848 5.495048 -18.690073 0
M  V30 17 C 12.073597 4.870615 -20.368133 0 CFG=2
M  V30 18 O 8.773263 5.615080 -15.942674 0
M  V30 19 C 9.229888 8.006250 -7.088556 0
M  V30 20 F 6.634883 1.012501 -12.376707 0
M  V30 21 C 10.594347 4.602873 -19.994845 0
M  V30 22 C 9.821868 -0.375456 -18.264989 0
M  V30 23 C 14.832011 5.249590 -17.850082 0 CFG=1
M  V30 24 C 6.636685 -0.505873 -16.267767 0
M  V30 25 C 10.026181 5.641507 -19.006200 0 CFG=2
M  V30 26 C 8.237644 2.266269 -18.767492 0
M  V30 27 F 11.380055 6.928106 -6.716426 0
M  V30 28 C 9.885137 5.851073 -8.313996 0 CFG=2
M  V30 29 C 8.207854 4.622979 -16.386321 0
M  V30 30 C 10.367770 1.042756 -18.084059 0
M  V30 31 C 7.187754 1.208995 -14.664601 0 CFG=2
M  V30 32 C 6.874350 3.278041 -13.081706 0 CFG=1
M  V30 33 C 12.580137 3.774826 -21.324184 0
M  V30 34 S 13.600972 6.202313 -16.948717 0
M  V30 35 C 8.404953 4.655388 -11.685838 0 CFG=1
M  V30 36 O 8.641427 1.609954 -16.551465 0
M  V30 37 C 10.341169 7.118598 -7.610773 0 CFG=1
M  V30 38 Cl 15.036503 3.658342 -17.071121 0
M  V30 39 C 8.798359 4.569931 -10.229334 0
M  V30 40 C 9.319283 4.168308 -12.768116 0
M  V30 41 H 8.665212 6.683026 -9.859281 0
M  V30 42 H 10.234976 6.170979 -10.395575 0
M  V30 43 H 9.909202 2.963169 -17.464295 0
M  V30 44 H 12.450672 6.955653 -18.883399 0
M  V30 45 H 9.020244 5.960228 -6.274990 0
M  V30 46 H 5.417994 1.821582 -13.609206 0
M  V30 47 H 6.998739 5.175813 -14.138234 0
M  V30 48 H 5.712409 4.169451 -14.682839 0
M  V30 49 H 6.703999 3.691282 -19.202472 0
M  V30 50 H 6.493579 2.930893 -17.692491 0
M  V30 51 H 10.994197 4.854377 -17.205737 0
M  V30 52 H 10.695027 6.569197 -17.151377 0
M  V30 53 H 14.763081 4.224280 -19.770491 0
M  V30 54 H 14.496851 5.967254 -19.871512 0
M  V30 55 H 7.977367 5.388090 -19.641445 0
M  V30 56 H 8.144855 6.456082 -18.315724 0
M  V30 57 H 12.151700 5.835317 -20.872506 0
M  V30 58 H 8.720281 8.635820 -7.813471 0
M  V30 59 H 9.325056 8.422256 -6.088314 0
M  V30 60 H 9.981965 4.576262 -20.896897 0
M  V30 61 H 10.547200 3.612941 -19.557196 0
M  V30 62 H 10.634784 -1.030743 -18.544001 0
M  V30 63 H 9.073001 -0.438850 -19.053151 0
M  V30 64 H 9.390579 -0.763668 -17.343338 0
M  V30 65 H 15.799567 5.752146 -17.837220 0
M  V30 66 H 5.859103 -1.244203 -16.462415 0
M  V30 67 H 7.531240 -1.030610 -15.934994 0
M  V30 68 H 6.852495 -0.004734 -17.209520 0
M  V30 69 H 10.095091 6.596081 -19.531510 0
M  V30 70 H 7.687441 1.343282 -18.945419 0
M  V30 71 H 8.683942 2.529000 -19.723947 0
M  V30 72 H 10.465843 4.968637 -8.063894 0
M  V30 73 H 10.864600 1.353789 -19.003681 0
M  V30 74 H 11.147037 1.024003 -17.321638 0
M  V30 75 H 8.002368 0.569573 -14.318431 0
M  V30 76 H 6.121176 3.630072 -12.374398 0
M  V30 77 H 11.933322 3.697527 -22.198729 0
M  V30 78 H 12.597769 2.798650 -20.839346 0
M  V30 79 H 13.582344 3.987279 -21.695949 0
M  V30 80 H 7.662225 5.408811 -11.944596 0
M  V30 81 H 7.915806 4.327855 -9.635290 0
M  V30 82 H 9.528561 3.770310 -10.102882 0
M  V30 83 H 10.234669 3.650756 -12.502410 0
M  V30 84 H 9.261436 4.604659 -13.752392 0
M  V30 85 H 8.393955 2.601732 -11.717948 0
M  V30 END ATOM
M  V30 BEGIN BOND
M  V30 1 1 9 5
M  V30 2 1 12 1
M  V30 3 1 13 5
M  V30 4 2 14 8
M  V30 5 1 14 11
M  V30 6 1 15 9
M  V30 7 1 16 1
M  V30 8 1 17 9
M  V30 9 1 19 6
M  V30 10 1 20 7
M  V30 11 1 21 17
M  V30 12 1 23 15
M  V30 13 1 24 3
M  V30 14 1 25 13
M  V30 15 1 25 16
M  V30 16 1 25 21
M  V30 17 1 26 4
M  V30 18 1 26 12
M  V30 19 1 28 2
M  V30 20 1 28 6
M  V30 21 1 29 1
M  V30 22 1 29 14
M  V30 23 2 29 18
M  V30 24 1 30 4
M  V30 25 1 30 22
M  V30 26 1 31 3
M  V30 27 1 31 7
M  V30 28 1 31 8
M  V30 29 1 32 7
M  V30 30 1 32 10
M  V30 31 1 32 11
M  V30 32 1 33 17
M  V30 33 1 34 5
M  V30 34 1 34 23
M  V30 35 1 35 10
M  V30 36 1 36 4
M  V30 37 1 36 8
M  V30 38 1 37 6
M  V30 39 1 37 19
M  V30 40 1 37 27 CFG=1
M  V30 41 1 37 28
M  V30 42 1 38 23
M  V30 43 1 39 2
M  V30 44 1 39 35
M  V30 45 1 40 10
M  V30 46 1 40 35
M  V30 47 1 41 2
M  V30 48 1 42 2
M  V30 49 1 4 43 CFG=1
M  V30 50 1 5 44 CFG=3
M  V30 51 1 6 45 CFG=1
M  V30 52 1 7 46 CFG=3
M  V30 53 1 47 11
M  V30 54 1 48 11
M  V30 55 1 49 12
M  V30 56 1 50 12
M  V30 57 1 51 13
M  V30 58 1 52 13
M  V30 59 1 53 15
M  V30 60 1 54 15
M  V30 61 1 55 16
M  V30 62 1 56 16
M  V30 63 1 17 57 CFG=3
M  V30 64 1 58 19
M  V30 65 1 59 19
M  V30 66 1 60 21
M  V30 67 1 61 21
M  V30 68 1 62 22
M  V30 69 1 63 22
M  V30 70 1 64 22
M  V30 71 1 23 65 CFG=3
M  V30 72 1 66 24
M  V30 73 1 67 24
M  V30 74 1 68 24
M  V30 75 1 25 69 CFG=3
M  V30 76 1 70 26
M  V30 77 1 71 26
M  V30 78 1 28 72 CFG=1
M  V30 79 1 73 30
M  V30 80 1 74 30
M  V30 81 1 31 75 CFG=1
M  V30 82 1 32 76 CFG=1
M  V30 83 1 77 33
M  V30 84 1 78 33
M  V30 85 1 79 33
M  V30 86 1 35 80 CFG=3
M  V30 87 1 81 39
M  V30 88 1 82 39
M  V30 89 1 83 40
M  V30 90 1 84 40
M  V30 91 1 10 85 CFG=1
M  V30 END BOND
M  V30 END CTAB
M  END
>  <i_epik_Tot_Q>  (1) 
1

>  <i_epik_Tot_abs_Q>  (1) 
1

>  <i_i_glide_confnum>  (1) 
56

>  <i_i_glide_lignum>  (1) 
64

>  <i_i_glide_posenum>  (1) 
151

>  <i_i_glide_rotatable_bonds>  (1) 
8

>  <i_lp_mmshare_version>  (1) 
72125

>  <i_m_source_file_index>  (1) 
25

>  <i_f3d_flags>  (1) 
0

>  <num_sample>  (1) 
50

>  <b_lp_Chiralities_Consistent>  (1) 
1

>  <r_epik_Charging_Adjusted_Penalty>  (1) 
0.63439585009227506

>  <r_epik_Ionization_Penalty>  (1) 
0.31719815469996288

>  <r_epik_Ionization_Penalty_Charging>  (1) 
0.31719792504613759

>  <r_epik_Ionization_Penalty_Neutral>  (1) 
2.2965382529121371e-07

>  <r_epik_State_Penalty>  (1) 
0.31719792504613753

>  <r_glide_ring_energy>  (1) 
0

>  <r_i_docking_score>  (1) 
-5.1518101977455713

>  <r_i_glide_ecoul>  (1) 
-4.1293916829668591

>  <r_i_glide_eff_state_penalty>  (1) 
0.31719792504613753

>  <r_i_glide_einternal>  (1) 
17.376329587639177

>  <r_i_glide_emodel>  (1) 
-36.719844067986884

>  <r_i_glide_emodel_strain>  (1) 
0.52267476007554592

>  <r_i_glide_energy>  (1) 
-36.748415659553757

>  <r_i_glide_erotb>  (1) 
0.23102689348128655

>  <r_i_glide_esite>  (1) 
0

>  <r_i_glide_evdw>  (1) 
-32.619023976586895

>  <r_i_glide_gscore>  (1) 
-5.4690081227917089

>  <r_i_glide_gscore_strain>  (1) 
0

>  <r_i_glide_hbond>  (1) 
0

>  <r_i_glide_ligand_efficiency>  (1) 
-0.12879525494363928

>  <r_i_glide_ligand_efficiency_ln>  (1) 
-1.0987295041729999

>  <r_i_glide_ligand_efficiency_sa>  (1) 
-0.44047357599943232

>  <r_i_glide_lipo>  (1) 
-1.9471227109987972

>  <r_i_glide_metal>  (1) 
-0

>  <r_i_glide_rewards>  (1) 
-1.5025523539998245

>  <r_lp_Energy>  (1) 
54.516613999999997

>  <s_epik_Chemistry_Notes>  (1) 
This compound contains an acetal/aminal-like group ( X-CH(R)-Y where X, Y are N, S, or O) that may be acid/base labile, releasing an aldehyde.

>  <s_epik_cmdline>  (1) 
J2VwaWtfcHl0aG9uJywgJy1waHQnLCAnMS4wJywgJy1waCcsICc3LjQnLCAnLXRuJywgJzgnLCAnLW1hJywgJzUwMCcsICctaW1hZScsICc8aW5maWxlLm1hZT4nLCAnLW9tYWUnLCAnPG91dGZpbGUubWFlPic=

>  <s_epik_input>  (1) 
UzFbQ0BASF0oQ2wpW0NIMl1OKFtDQEhdMTIpW0NAQEhdKFtDSDNdKVtDSDJdW0NASF0oW0NIMl0yKVtDSDJdTihbQ0gyXVtDSDJdW0NAQEhdKE8zKVtDSDJdW0NIM10pQyg9TylDKD1DMzQpW0NIMl1bQ0BASF0oW0NASF0oRilbQ0BIXTRPW0NIM10pTjVbQ0BIXShbQ0gyXTUpW0NIMl1bQ0gyXVtDQEBIXTZbQ0hdKFtDSDJdNylDNjdG

>  <s_glide_docking_method>  (1) 
confgen

>  <s_i_glide_gridfile>  (1) 
gpcr_drd2_6luq_protein_autoprepared_prepared

>  <s_lp_Force_Field>  (1) 
S-OPLS

>  <s_lp_Variant>  (1) 
DiffSBDD_24_num_sample_50-1

>  <s_m_source_file>  (1) 
generated__ligand_DiffSBDD_2026-05-06_prepared.sdf

>  <GenAI_Model>  (1) 
DiffSBDD

>  <Protein>  (1) 
generic_title2

$$$$
DiffSBDD_20_num_sample_50
     RDKit          3D

  0  0  0  0  0  0  0  0  0  0999 V3000
M  V30 BEGIN CTAB
M  V30 COUNTS 65 70 0 0 1
M  V30 BEGIN ATOM
M  V30 1 F 13.863560 9.369325 -5.757017 0
M  V30 2 F 13.002974 10.169297 -3.953269 0
M  V30 3 F 11.834837 10.728385 -6.669159 0
M  V30 4 C 8.475357 4.425229 -12.966843 0 CFG=1
M  V30 5 C 4.987050 6.375512 -18.002099 0
M  V30 6 C 9.279731 5.727124 -9.724596 0
M  V30 7 C 7.535603 5.219311 -19.871245 0
M  V30 8 C 7.807577 4.207424 -14.271082 0 CFG=1
M  V30 9 N 10.844171 8.331220 -7.691594 0
M  V30 10 C 10.761842 8.031703 -9.865443 0
M  V30 11 C 5.303027 4.026292 -20.129509 0
M  V30 12 C 6.552903 4.940108 -14.707620 0
M  V30 13 C 8.555262 4.621862 -20.507123 0
M  V30 14 N 8.745340 5.978939 -11.046586 0
M  V30 15 C 10.025060 6.913987 -9.180896 0
M  V30 16 C 9.157112 3.599750 -11.966281 0
M  V30 17 F 10.644005 10.251608 -4.949104 0
M  V30 18 C 10.282245 7.577189 -5.770750 0
M  V30 19 C 7.511632 5.998541 -18.595216 0 CFG=2
M  V30 20 C 9.105157 5.088566 -14.099053 0
M  V30 21 C 6.080639 5.344961 -20.244264 0 CFG=1
M  V30 22 C 10.233378 7.321986 -7.914158 0
M  V30 23 C 7.578407 5.153998 -17.338785 0
M  V30 24 C 11.543144 9.758676 -5.803319 0
M  V30 25 C 9.730893 6.597613 -6.786106 0
M  V30 26 C 8.172323 4.749456 -11.556906 0 CFG=2
M  V30 27 N 10.925921 8.593212 -6.443777 0
M  V30 28 C 6.089988 6.384872 -19.071707 0 CFG=1
M  V30 29 C 11.266521 8.916061 -8.837648 0
M  V30 30 S 6.967695 6.169292 -15.969868 0 CHG=1
M  V30 31 C 5.427658 6.908608 -16.624253 0
M  V30 32 C 12.778840 9.369241 -4.982744 0
M  V30 33 C 5.647553 2.996696 -21.216018 0
M  V30 34 H 4.121069 6.939755 -18.350208 0
M  V30 35 H 4.634865 5.369293 -17.841889 0
M  V30 36 H 8.451906 5.494046 -9.053019 0
M  V30 37 H 9.937544 4.862124 -9.723409 0
M  V30 38 H 7.951410 3.234891 -14.737752 0
M  V30 39 H 10.892007 8.169103 -10.927920 0
M  V30 40 H 5.449109 3.566863 -19.152000 0
M  V30 41 H 4.236355 4.239258 -20.203815 0
M  V30 42 H 6.102838 5.440725 -13.849372 0
M  V30 43 H 5.834874 4.223638 -15.091093 0
M  V30 44 H 9.554652 4.641556 -20.097216 0
M  V30 45 H 8.403030 4.107973 -21.444228 0
M  V30 46 H 8.009250 6.667990 -10.907249 0
M  V30 47 H 8.832025 2.568854 -11.891767 0
M  V30 48 H 10.228078 3.769467 -11.891649 0
M  V30 49 H 10.234840 7.594160 -4.693374 0
M  V30 50 H 8.168284 6.868938 -18.562537 0
M  V30 51 H 10.044738 4.688759 -14.473516 0
M  V30 52 H 9.034542 6.169194 -14.051672 0
M  V30 53 H 5.888392 5.849569 -21.191716 0
M  V30 54 H 8.592168 4.809891 -17.130931 0
M  V30 55 H 6.950891 4.267960 -17.425693 0
M  V30 56 H 9.158743 5.685393 -6.692312 0
M  V30 57 H 7.218178 4.406637 -11.161803 0
M  V30 58 H 6.159009 7.385228 -19.505532 0
M  V30 59 H 11.834828 9.830377 -8.844144 0
M  V30 60 H 5.604170 7.981298 -16.712162 0
M  V30 61 H 4.634868 6.789220 -15.891292 0
M  V30 62 H 12.634839 8.390228 -4.527494 0
M  V30 63 H 5.026056 2.106845 -21.124965 0
M  V30 64 H 5.502677 3.406008 -22.215903 0
M  V30 65 H 6.679581 2.658937 -21.136164 0
M  V30 END ATOM
M  V30 BEGIN BOND
M  V30 1 1 8 4
M  V30 2 1 12 8
M  V30 3 2 13 7
M  V30 4 1 14 6
M  V30 5 1 15 6
M  V30 6 1 15 10
M  V30 7 1 4 16 CFG=1
M  V30 8 1 19 7
M  V30 9 1 20 4
M  V30 10 1 20 8
M  V30 11 1 21 7
M  V30 12 1 21 11
M  V30 13 1 22 9
M  V30 14 2 22 15
M  V30 15 1 23 19
M  V30 16 1 24 3
M  V30 17 1 24 17
M  V30 18 2 25 18
M  V30 19 1 25 22
M  V30 20 1 26 4
M  V30 21 1 26 14
M  V30 22 1 26 16
M  V30 23 1 27 9
M  V30 24 1 27 18
M  V30 25 1 27 24
M  V30 26 1 28 5
M  V30 27 1 28 19
M  V30 28 1 28 21
M  V30 29 1 29 9
M  V30 30 2 29 10
M  V30 31 1 30 12 CFG=1
M  V30 32 1 30 23
M  V30 33 1 31 5
M  V30 34 1 31 30
M  V30 35 1 32 1
M  V30 36 1 32 2
M  V30 37 1 32 24
M  V30 38 1 33 11
M  V30 39 1 34 5
M  V30 40 1 35 5
M  V30 41 1 36 6
M  V30 42 1 37 6
M  V30 43 1 8 38 CFG=3
M  V30 44 1 39 10
M  V30 45 1 40 11
M  V30 46 1 41 11
M  V30 47 1 42 12
M  V30 48 1 43 12
M  V30 49 1 44 13
M  V30 50 1 45 13
M  V30 51 1 46 14
M  V30 52 1 47 16
M  V30 53 1 48 16
M  V30 54 1 49 18
M  V30 55 1 19 50 CFG=3
M  V30 56 1 51 20
M  V30 57 1 52 20
M  V30 58 1 21 53 CFG=3
M  V30 59 1 54 23
M  V30 60 1 55 23
M  V30 61 1 56 25
M  V30 62 1 26 57 CFG=3
M  V30 63 1 28 58 CFG=3
M  V30 64 1 59 29
M  V30 65 1 60 31
M  V30 66 1 61 31
M  V30 67 1 62 32
M  V30 68 1 63 33
M  V30 69 1 64 33
M  V30 70 1 65 33
M  V30 END BOND
M  V30 END CTAB
M  END
>  <i_epik_Tot_Q>  (1) 
1

>  <i_epik_Tot_abs_Q>  (1) 
1

>  <i_i_glide_confnum>  (1) 
265

>  <i_i_glide_lignum>  (1) 
58

>  <i_i_glide_posenum>  (1) 
122

>  <i_i_glide_rotatable_bonds>  (1) 
8

>  <i_lp_mmshare_version>  (1) 
72125

>  <i_m_source_file_index>  (1) 
21

>  <i_f3d_flags>  (1) 
0

>  <num_sample>  (1) 
50

>  <b_lp_Chiralities_Consistent>  (1) 
1

>  <r_epik_Charging_Adjusted_Penalty>  (1) 
0.77841525475286655

>  <r_epik_Ionization_Penalty>  (1) 
0.77841525475286644

>  <r_epik_Ionization_Penalty_Charging>  (1) 
0

>  <r_epik_Ionization_Penalty_Neutral>  (1) 
0.77841525475286644

>  <r_epik_State_Penalty>  (1) 
0.77841525475286655

>  <r_glide_ring_energy>  (1) 
0

>  <r_i_docking_score>  (1) 
-5.1461810193018094

>  <r_i_glide_ecoul>  (1) 
-2.4111829033749124

>  <r_i_glide_eff_state_penalty>  (1) 
0.77841525475286655

>  <r_i_glide_einternal>  (1) 
5.6929569887994509

>  <r_i_glide_emodel>  (1) 
-39.443710359621278

>  <r_i_glide_emodel_strain>  (1) 
2.4560003983422121

>  <r_i_glide_energy>  (1) 
-31.388689124370451

>  <r_i_glide_erotb>  (1) 
0.52280608296046926

>  <r_i_glide_esite>  (1) 
0

>  <r_i_glide_evdw>  (1) 
-28.97750622099554

>  <r_i_glide_gscore>  (1) 
-5.924596274054676

>  <r_i_glide_gscore_strain>  (1) 
0

>  <r_i_glide_hbond>  (1) 
-0.088271280440348696

>  <r_i_glide_ligand_efficiency>  (1) 
-0.15594487937278209

>  <r_i_glide_ligand_efficiency_ln>  (1) 
-1.1444840131934408

>  <r_i_glide_ligand_efficiency_sa>  (1) 
-0.5001985541752566

>  <r_i_glide_lipo>  (1) 
-2.8348273996557016

>  <r_i_glide_metal>  (1) 
-0

>  <r_i_glide_rewards>  (1) 
-1.7137509303630805

>  <r_lp_Energy>  (1) 
9.9394679999999997

>  <s_epik_cmdline>  (1) 
J2VwaWtfcHl0aG9uJywgJy1waHQnLCAnMS4wJywgJy1waCcsICc3LjQnLCAnLXRuJywgJzgnLCAnLW1hJywgJzUwMCcsICctaW1hZScsICc8aW5maWxlLm1hZT4nLCAnLW9tYWUnLCAnPG91dGZpbGUubWFlPic=

>  <s_epik_input>  (1) 
RltDSF0oRilDKEYpKEYpbjFbY0hdW2NIXWMobjEyKWMoW2NIXVtjSF0yKVtDSDJdW05IXVtDQEBIXTNbQ0gyXVtDQF0zNFtDQEhdKFtDSDJdNClbQ0gyXVtTK10oW0NIMl01KVtDSDJdW0NIMl1bQ0BASF0oW0NAQEhdNTYpW0NAQEhdKEM2PVtDSDJdKVtDSDJdW0NIM10=

>  <s_glide_docking_method>  (1) 
confgen

>  <s_i_glide_gridfile>  (1) 
gpcr_drd2_6luq_protein_autoprepared_prepared

>  <s_lp_Force_Field>  (1) 
S-OPLS

>  <s_lp_Variant>  (1) 
DiffSBDD_20_num_sample_50-2

>  <s_m_source_file>  (1) 
generated__ligand_DiffSBDD_2026-05-06_prepared.sdf

>  <GenAI_Model>  (1) 
DiffSBDD

>  <Protein>  (1) 
generic_title2

$$$$
DiffSBDD_19_num_sample_50
     RDKit          3D

  0  0  0  0  0  0  0  0  0  0999 V3000
M  V30 BEGIN CTAB
M  V30 COUNTS 78 83 0 0 1
M  V30 BEGIN ATOM
M  V30 1 C 6.472764 2.688909 -13.414842 0 CFG=1
M  V30 2 C 10.067067 8.557839 -6.544331 0
M  V30 3 O 5.035227 4.252830 -12.273591 0
M  V30 4 C 11.356084 8.865049 -6.615151 0
M  V30 5 C 9.506448 6.685441 -11.015831 0
M  V30 6 C 10.618652 6.605468 -11.729847 0
M  V30 7 C 7.525132 0.485810 -15.849235 0 CFG=2
M  V30 8 O 11.436169 9.481770 -4.393387 0 CHG=-1
M  V30 9 C 8.145572 4.460387 -13.275074 0 CFG=1
M  V30 10 C 8.404332 1.725595 -16.177608 0 CFG=1
M  V30 11 O 9.356620 7.580227 -10.047503 0
M  V30 12 O 13.441131 8.569349 -10.391096 0
M  V30 13 C 12.174480 8.735191 -7.876265 0
M  V30 14 C 5.730311 4.047425 -13.475316 0 CFG=1
M  V30 15 C 5.850916 1.367543 -13.976123 0
M  V30 16 C 5.400264 1.320372 -19.733600 0
M  V30 17 C 10.120141 7.907586 -8.999388 0
M  V30 18 C 8.390454 2.094630 -17.684677 0
M  V30 19 N 12.049843 9.404242 -5.454312 0 CHG=1
M  V30 20 C 6.683573 0.884892 -18.995109 0
M  V30 21 C 12.218385 8.042126 -10.364155 0
M  V30 22 C 11.441905 8.187047 -9.102800 0
M  V30 23 C 7.701302 0.517153 -20.105737 0
M  V30 24 O 8.129246 -0.230444 -14.784902 0
M  V30 25 C 7.571357 -0.549692 -17.020470 0
M  V30 26 O 7.089697 2.062384 -18.279813 0
M  V30 27 C 6.076321 0.935514 -15.466104 0 CFG=2
M  V30 28 C 7.913407 3.013290 -13.810342 0 CFG=2
M  V30 29 C 9.292557 8.063015 -7.721264 0
M  V30 30 O 8.399245 5.916385 -11.302183 0
M  V30 31 C 5.076372 -0.508512 -17.348024 0
M  V30 32 C 6.801898 5.141664 -13.574403 0
M  V30 33 C 5.066114 -0.156803 -15.845576 0
M  V30 34 C 8.148906 3.023393 -15.356860 0
M  V30 35 C 6.453129 -0.348128 -18.054018 0 CFG=1
M  V30 36 C 8.545642 4.578082 -11.782183 0
M  V30 37 O 13.213249 9.768926 -5.593711 0
M  V30 38 O 8.659331 2.067397 -13.091377 0
M  V30 39 C 11.834984 7.369057 -11.490848 0
M  V30 40 H 6.509193 2.473703 -12.343894 0
M  V30 41 H 9.524522 8.679936 -5.624395 0
M  V30 42 H 4.440446 3.531418 -12.143886 0
M  V30 43 H 10.636166 5.908443 -12.553150 0
M  V30 44 H 8.930410 4.972789 -13.831225 0
M  V30 45 H 9.434250 1.427582 -15.996552 0
M  V30 46 H 13.512250 9.222141 -9.708336 0
M  V30 47 H 12.234881 9.769237 -8.167040 0
M  V30 48 H 13.160933 8.295945 -7.723437 0
M  V30 49 H 5.034814 4.166949 -14.291635 0
M  V30 50 H 6.213075 0.552829 -13.347683 0
M  V30 51 H 4.783986 1.369205 -13.757200 0
M  V30 52 H 4.911528 0.476179 -20.221201 0
M  V30 53 H 5.619525 2.057573 -20.505225 0
M  V30 54 H 4.681231 1.787051 -19.064789 0
M  V30 55 H 8.757107 3.113669 -17.810761 0
M  V30 56 H 9.122554 1.502280 -18.226098 0
M  V30 57 H 7.277467 -0.219959 -20.789543 0
M  V30 58 H 8.617572 0.072872 -19.719684 0
M  V30 59 H 7.976628 1.390626 -20.696917 0
M  V30 60 H 7.747987 -1.101195 -14.730086 0
M  V30 61 H 8.556788 -0.577735 -17.483190 0
M  V30 62 H 7.435973 -1.568899 -16.669053 0
M  V30 63 H 5.834868 1.768680 -16.118549 0
M  V30 64 H 8.540325 8.826220 -7.903414 0
M  V30 65 H 8.791766 7.124385 -7.480646 0
M  V30 66 H 4.783538 -1.557326 -17.416294 0
M  V30 67 H 4.277893 0.004737 -17.872105 0
M  V30 68 H 6.594110 6.003969 -12.939109 0
M  V30 69 H 6.821378 5.527184 -14.594974 0
M  V30 70 H 5.307234 -1.042101 -15.262200 0
M  V30 71 H 4.054486 0.122533 -15.551729 0
M  V30 72 H 8.990488 3.682411 -15.575552 0
M  V30 73 H 7.303168 3.538482 -15.815570 0
M  V30 74 H 6.502080 -1.211485 -18.720330 0
M  V30 75 H 7.871270 3.975122 -11.176241 0
M  V30 76 H 9.541435 4.172098 -11.597344 0
M  V30 77 H 9.579866 2.274539 -13.140144 0
M  V30 78 H 12.559949 7.344995 -12.291849 0
M  V30 END ATOM
M  V30 BEGIN BOND
M  V30 1 2 4 2
M  V30 2 2 6 5
M  V30 3 1 10 7
M  V30 4 1 11 5
M  V30 5 1 13 4
M  V30 6 1 14 1
M  V30 7 1 14 3
M  V30 8 1 15 1
M  V30 9 1 17 11
M  V30 10 1 18 10
M  V30 11 1 19 4
M  V30 12 1 19 8
M  V30 13 1 20 16
M  V30 14 1 21 12
M  V30 15 1 22 13
M  V30 16 2 22 17
M  V30 17 1 22 21
M  V30 18 1 23 20
M  V30 19 1 7 24 CFG=1
M  V30 20 1 25 7
M  V30 21 1 26 18
M  V30 22 1 26 20
M  V30 23 1 27 7
M  V30 24 1 27 15
M  V30 25 1 28 1
M  V30 26 1 28 9
M  V30 27 1 29 2
M  V30 28 1 29 17
M  V30 29 1 30 5
M  V30 30 1 32 9
M  V30 31 1 32 14
M  V30 32 1 33 27
M  V30 33 1 33 31
M  V30 34 1 34 10
M  V30 35 1 34 28
M  V30 36 1 35 20
M  V30 37 1 35 25
M  V30 38 1 35 31
M  V30 39 1 36 9
M  V30 40 1 36 30
M  V30 41 2 37 19
M  V30 42 1 28 38 CFG=1
M  V30 43 1 39 6
M  V30 44 2 39 21
M  V30 45 1 1 40 CFG=1
M  V30 46 1 41 2
M  V30 47 1 42 3
M  V30 48 1 43 6
M  V30 49 1 9 44 CFG=3
M  V30 50 1 10 45 CFG=1
M  V30 51 1 46 12
M  V30 52 1 47 13
M  V30 53 1 48 13
M  V30 54 1 14 49 CFG=3
M  V30 55 1 50 15
M  V30 56 1 51 15
M  V30 57 1 52 16
M  V30 58 1 53 16
M  V30 59 1 54 16
M  V30 60 1 55 18
M  V30 61 1 56 18
M  V30 62 1 57 23
M  V30 63 1 58 23
M  V30 64 1 59 23
M  V30 65 1 60 24
M  V30 66 1 61 25
M  V30 67 1 62 25
M  V30 68 1 27 63 CFG=3
M  V30 69 1 64 29
M  V30 70 1 65 29
M  V30 71 1 66 31
M  V30 72 1 67 31
M  V30 73 1 68 32
M  V30 74 1 69 32
M  V30 75 1 70 33
M  V30 76 1 71 33
M  V30 77 1 72 34
M  V30 78 1 73 34
M  V30 79 1 35 74 CFG=3
M  V30 80 1 75 36
M  V30 81 1 76 36
M  V30 82 1 77 38
M  V30 83 1 78 39
M  V30 END BOND
M  V30 END CTAB
M  END
>  <i_epik_Tot_Q>  (1) 
0

>  <i_epik_Tot_abs_Q>  (1) 
2

>  <i_i_glide_confnum>  (1) 
1

>  <i_i_glide_lignum>  (1) 
56

>  <i_i_glide_posenum>  (1) 
235

>  <i_i_glide_rotatable_bonds>  (1) 
8

>  <i_lp_mmshare_version>  (1) 
72125

>  <i_m_source_file_index>  (1) 
20

>  <i_f3d_flags>  (1) 
0

>  <num_sample>  (1) 
50

>  <b_lp_Chiralities_Consistent>  (1) 
1

>  <r_epik_Charging_Adjusted_Penalty>  (1) 
0.77299719136223677

>  <r_epik_Ionization_Penalty>  (1) 
0.77299806013173578

>  <r_epik_Ionization_Penalty_Charging>  (1) 
0

>  <r_epik_Ionization_Penalty_Neutral>  (1) 
0.77299806013173578

>  <r_epik_State_Penalty>  (1) 
0.77299719136223677

>  <r_glide_ring_energy>  (1) 
0

>  <r_i_docking_score>  (1) 
-5.1354492880868623

>  <r_i_glide_ecoul>  (1) 
-4.5828089532471763

>  <r_i_glide_eff_state_penalty>  (1) 
0.77299719136223677

>  <r_i_glide_einternal>  (1) 
1.2937482466503629

>  <r_i_glide_emodel>  (1) 
-31.695542987290722

>  <r_i_glide_emodel_strain>  (1) 
1.4313996760862437

>  <r_i_glide_energy>  (1) 
-26.099524120798915

>  <r_i_glide_erotb>  (1) 
0.20863989142985551

>  <r_i_glide_esite>  (1) 
0

>  <r_i_glide_evdw>  (1) 
-21.516715167551737

>  <r_i_glide_gscore>  (1) 
-5.9084464794490987

>  <r_i_glide_gscore_strain>  (1) 
0

>  <r_i_glide_hbond>  (1) 
-0.47384882298598302

>  <r_i_glide_ligand_efficiency>  (1) 
-0.13167818687402211

>  <r_i_glide_ligand_efficiency_ln>  (1) 
-1.1011861057629295

>  <r_i_glide_ligand_efficiency_sa>  (1) 
-0.44654857412254167

>  <r_i_glide_lipo>  (1) 
-3.0133137798616416

>  <r_i_glide_metal>  (1) 
-0

>  <r_i_glide_rewards>  (1) 
-0.8666666666666667

>  <r_lp_Energy>  (1) 
64.670022000000003

>  <s_epik_cmdline>  (1) 
J2VwaWtfcHl0aG9uJywgJy1waHQnLCAnMS4wJywgJy1waCcsICc3LjQnLCAnLXRuJywgJzgnLCAnLW1hJywgJzUwMCcsICctaW1hZScsICc8aW5maWxlLm1hZT4nLCAnLW9tYWUnLCAnPG91dGZpbGUubWFlPic=

>  <s_epik_input>  (1) 
W09IXVtDQEBdMTJbQ0BIXTNbQ0gyXU9DKFtDSDNdKShbQ0gzXSlbQ0BASF0oW0NIMl0xKVtDSDJdW0NIMl1bQ0BIXTJbQ0gyXVtDQEhdNFtDQF0oW0NIMl0zKShbT0hdKVtDQEBIXShbQ0gyXVtDQEBIXTRbT0hdKVtDSDJdT0MoTzUpPVtDSF1bQ0hdPUMoW09IXSlDKD1DNTYpW0NIMl1DKFtOK10oW08tXSk9Tyk9W0NIXVtDSDJdNg==

>  <s_glide_docking_method>  (1) 
confgen

>  <s_i_glide_gridfile>  (1) 
gpcr_drd2_6luq_protein_autoprepared_prepared

>  <s_lp_Force_Field>  (1) 
S-OPLS

>  <s_lp_Variant>  (1) 
DiffSBDD_19_num_sample_50-2

>  <s_m_source_file>  (1) 
generated__ligand_DiffSBDD_2026-05-06_prepared.sdf

>  <GenAI_Model>  (1) 
DiffSBDD

>  <Protein>  (1) 
generic_title2

$$$$
DiffSBDD_10_num_sample_50
     RDKit          3D

  0  0  0  0  0  0  0  0  0  0999 V3000
M  V30 BEGIN CTAB
M  V30 COUNTS 72 73 0 0 1
M  V30 BEGIN ATOM
M  V30 1 C 10.640640 7.755987 -8.874044 0 CFG=2
M  V30 2 C 5.106963 0.138272 -18.286651 0
M  V30 3 C 8.173804 2.417871 -16.016874 0
M  V30 4 C 8.198056 4.420421 -12.975718 0 CFG=1
M  V30 5 C 9.440782 6.824325 -9.123811 0 CFG=2
M  V30 6 N 5.231961 -1.030530 -16.187762 0
M  V30 7 N 7.581670 5.379534 -10.921509 0
M  V30 8 C 8.984561 5.066799 -10.823195 0 CFG=1
M  V30 9 S 10.887929 8.235295 -7.074662 0
M  V30 10 C 4.293088 -0.914696 -19.015205 0
M  V30 11 S 11.433848 6.384718 -6.286031 0 CHG=-1
M  V30 12 C 12.769882 8.970345 -9.768261 0
M  V30 13 O 7.346397 -0.626962 -22.582238 0
M  V30 14 O 12.035954 9.137791 -6.912998 0
M  V30 15 C 9.342183 8.340978 -9.336004 0 CFG=2
M  V30 16 C 8.311567 0.380455 -17.555599 0
M  V30 17 C 7.178883 5.368226 -12.318346 0 CFG=1
M  V30 18 N 5.834386 -0.923407 -20.999788 0 CHG=1
M  V30 19 N 6.245374 1.031233 -16.388293 0
M  V30 20 C 5.142392 -1.749961 -19.988111 0
M  V30 21 C 10.324546 5.915779 -12.817227 0
M  V30 22 C 11.877105 7.764861 -9.776052 0
M  V30 23 C 8.731648 5.997248 -8.049406 0
M  V30 24 C 8.241378 4.453822 -14.524652 0
M  V30 25 C 7.477962 1.264106 -16.627150 0
M  V30 26 O 9.034840 8.566820 -10.700782 0
M  V30 27 C 5.506698 0.033292 -17.005105 0
M  V30 28 O 9.601942 8.574316 -6.452885 0
M  V30 29 F 7.262828 6.610982 -12.796759 0
M  V30 30 N 8.698834 -0.853613 -16.896187 0
M  V30 31 C 6.740625 -1.683087 -21.875106 0
M  V30 32 C 9.507874 4.735258 -12.238302 0 CFG=2
M  V30 33 O 9.785850 6.085397 -10.299891 0
M  V30 34 C 7.559234 3.263007 -15.164778 0
M  V30 35 H 5.368361 1.018893 -18.853902 0
M  V30 36 H 9.209100 2.549585 -16.292589 0
M  V30 37 H 7.933140 3.404595 -12.673261 0
M  V30 38 H 4.644606 -1.795159 -16.489099 0
M  V30 39 H 7.339319 6.254123 -10.455295 0
M  V30 40 H 9.090130 4.201516 -10.168591 0
M  V30 41 H 3.474247 -0.404151 -19.520694 0
M  V30 42 H 3.814665 -1.584011 -18.301458 0
M  V30 43 H 13.408551 8.968937 -10.652260 0
M  V30 44 H 12.199398 9.897207 -9.774109 0
M  V30 45 H 13.437566 8.964389 -8.907636 0
M  V30 46 H 7.485697 -0.890196 -23.482247 0
M  V30 47 H 8.740908 8.961984 -8.672413 0
M  V30 48 H 7.752459 0.149311 -18.461921 0
M  V30 49 H 9.209198 0.912625 -17.872231 0
M  V30 50 H 6.149611 5.030175 -12.441751 0
M  V30 51 H 6.377027 -0.212874 -20.533324 0
M  V30 52 H 4.512644 -2.481058 -20.493693 0
M  V30 53 H 5.883372 -2.313510 -19.419129 0
M  V30 54 H 9.801833 6.865842 -12.712874 0
M  V30 55 H 11.275306 6.010533 -12.294965 0
M  V30 56 H 10.581541 5.773876 -13.864152 0
M  V30 57 H 12.529840 6.969195 -9.491257 0
M  V30 58 H 11.574621 7.594727 -10.804745 0
M  V30 59 H 8.572469 6.551682 -7.130058 0
M  V30 60 H 7.749610 5.672008 -8.381822 0
M  V30 61 H 9.317586 5.108313 -7.817911 0
M  V30 62 H 9.265931 4.458951 -14.890034 0
M  V30 63 H 7.784499 5.365012 -14.908471 0
M  V30 64 H 8.127425 8.294719 -10.787178 0
M  V30 65 H 7.893350 -1.311363 -16.482514 0
M  V30 66 H 9.092507 -1.507725 -17.556168 0
M  V30 67 H 6.192514 -2.343794 -22.545902 0
M  V30 68 H 7.482129 -2.252936 -21.314012 0
M  V30 69 H 10.147109 3.853154 -12.194320 0
M  V30 70 H 6.522715 3.107882 -14.906244 0
M  V30 71 H 5.474388 -1.019637 -15.203853 0
M  V30 72 H 5.137790 -0.470709 -21.581993 0
M  V30 END ATOM
M  V30 BEGIN BOND
M  V30 1 1 5 1
M  V30 2 1 8 7
M  V30 3 1 9 1
M  V30 4 1 10 2
M  V30 5 1 11 9
M  V30 6 2 14 9
M  V30 7 1 15 1
M  V30 8 1 15 5
M  V30 9 1 17 4
M  V30 10 1 17 7
M  V30 11 1 20 10
M  V30 12 1 20 18
M  V30 13 1 1 22 CFG=3
M  V30 14 1 22 12
M  V30 15 1 23 5
M  V30 16 1 24 4
M  V30 17 1 25 3
M  V30 18 1 25 16
M  V30 19 2 25 19
M  V30 20 1 26 15
M  V30 21 2 27 2
M  V30 22 1 27 6
M  V30 23 1 27 19
M  V30 24 2 28 9
M  V30 25 1 29 17
M  V30 26 1 30 16
M  V30 27 1 31 13
M  V30 28 1 31 18
M  V30 29 1 32 4
M  V30 30 1 32 8
M  V30 31 1 32 21
M  V30 32 1 5 33 CFG=3
M  V30 33 1 33 8
M  V30 34 2 34 3
M  V30 35 1 34 24
M  V30 36 1 35 2
M  V30 37 1 36 3
M  V30 38 1 4 37 CFG=3
M  V30 39 1 38 6
M  V30 40 1 39 7
M  V30 41 1 8 40 CFG=1
M  V30 42 1 41 10
M  V30 43 1 42 10
M  V30 44 1 43 12
M  V30 45 1 44 12
M  V30 46 1 45 12
M  V30 47 1 46 13
M  V30 48 1 15 47 CFG=1
M  V30 49 1 48 16
M  V30 50 1 49 16
M  V30 51 1 17 50 CFG=1
M  V30 52 1 51 18
M  V30 53 1 52 20
M  V30 54 1 53 20
M  V30 55 1 54 21
M  V30 56 1 55 21
M  V30 57 1 56 21
M  V30 58 1 57 22
M  V30 59 1 58 22
M  V30 60 1 59 23
M  V30 61 1 60 23
M  V30 62 1 61 23
M  V30 63 1 62 24
M  V30 64 1 63 24
M  V30 65 1 64 26
M  V30 66 1 65 30
M  V30 67 1 66 30
M  V30 68 1 67 31
M  V30 69 1 68 31
M  V30 70 1 32 69 CFG=1
M  V30 71 1 70 34
M  V30 72 1 71 6
M  V30 73 1 72 18
M  V30 END BOND
M  V30 END CTAB
M  END
>  <i_epik_Tot_Q>  (1) 
0

>  <i_epik_Tot_abs_Q>  (1) 
2

>  <i_i_glide_confnum>  (1) 
2971

>  <i_i_glide_lignum>  (1) 
24

>  <i_i_glide_posenum>  (1) 
61

>  <i_i_glide_rotatable_bonds>  (1) 
15

>  <i_lp_mmshare_version>  (1) 
72125

>  <i_m_source_file_index>  (1) 
11

>  <i_f3d_flags>  (1) 
0

>  <num_sample>  (1) 
50

>  <b_lp_Chiralities_Consistent>  (1) 
1

>  <r_epik_Charging_Adjusted_Penalty>  (1) 
0.33639934582642134

>  <r_epik_Ionization_Penalty>  (1) 
0.23315943830934333

>  <r_epik_Ionization_Penalty_Charging>  (1) 
0.10316865490585193

>  <r_epik_Ionization_Penalty_Neutral>  (1) 
0.12999078340349141

>  <r_epik_State_Penalty>  (1) 
0.23323069092056939

>  <r_glide_ring_energy>  (1) 
0

>  <r_i_docking_score>  (1) 
-5.1264545768340639

>  <r_i_glide_ecoul>  (1) 
-12.316873008711452

>  <r_i_glide_eff_state_penalty>  (1) 
0.23323069092056939

>  <r_i_glide_einternal>  (1) 
14.954711088774616

>  <r_i_glide_emodel>  (1) 
-52.639676168016841

>  <r_i_glide_emodel_strain>  (1) 
1.6663058818840568

>  <r_i_glide_energy>  (1) 
-45.397738628801143

>  <r_i_glide_erotb>  (1) 
0.82510599487301828

>  <r_i_glide_esite>  (1) 
-0.058298614413045673

>  <r_i_glide_evdw>  (1) 
-33.080865620089689

>  <r_i_glide_gscore>  (1) 
-5.3596852677546334

>  <r_i_glide_gscore_strain>  (1) 
0

>  <r_i_glide_hbond>  (1) 
-0.30276713164586405

>  <r_i_glide_ligand_efficiency>  (1) 
-0.15077807578923719

>  <r_i_glide_ligand_efficiency_ln>  (1) 
-1.1325776082029593

>  <r_i_glide_ligand_efficiency_sa>  (1) 
-0.48846243370072362

>  <r_i_glide_lipo>  (1) 
-1.5074859110755037

>  <r_i_glide_metal>  (1) 
-0

>  <r_i_glide_rewards>  (1) 
-0.81466537318203613

>  <r_lp_Energy>  (1) 
19.575572999999999

>  <s_epik_Chemistry_Notes>  (1) 
This compound has an imine and may undergo hydrolysis. This compound contains an acetal/aminal-like group ( X-CH(R)-Y where X, Y are N, S, or O) that may be acid/base labile, releasing an aldehyde.

>  <s_epik_cmdline>  (1) 
J2VwaWtfcHl0aG9uJywgJy1waHQnLCAnMS4wJywgJy1waCcsICc3LjQnLCAnLXRuJywgJzgnLCAnLW1hJywgJzUwMCcsICctaW1hZScsICc8aW5maWxlLm1hZT4nLCAnLW9tYWUnLCAnPG91dGZpbGUubWFlPic=

>  <s_epik_input>  (1) 
W1NIXVMoPU8pKD1PKVtDQEBdMShbQ0gyXVtDSDNdKVtDQEBdKFtDSDNdKShbQ0BASF0xW09IXSlPW0NASF0oW0NAQEhdMltDSDNdKVtOSF1bQ0BASF0oRilbQ0BIXTJbQ0gyXVxbQ0hdPVtDSF1cQyhbQ0gyXVtOSDJdKT1OXEMoPU5cW0hdKVxbQ0gyXVtDSDJdW0NIMl1bTkhdW0NIMl1bT0hd

>  <s_glide_docking_method>  (1) 
confgen

>  <s_i_glide_gridfile>  (1) 
gpcr_drd2_6luq_protein_autoprepared_prepared

>  <s_lp_Force_Field>  (1) 
S-OPLS

>  <s_lp_Variant>  (1) 
DiffSBDD_10_num_sample_50-4

>  <s_m_source_file>  (1) 
generated__ligand_DiffSBDD_2026-05-06_prepared.sdf

>  <GenAI_Model>  (1) 
DiffSBDD

>  <Protein>  (1) 
generic_title2

$$$$
DiffSBDD_43_num_sample_50
     RDKit          3D

  0  0  0  0  0  0  0  0  0  0999 V3000
M  V30 BEGIN CTAB
M  V30 COUNTS 59 59 0 0 1
M  V30 BEGIN ATOM
M  V30 1 C 10.029265 7.107144 -11.288784 0
M  V30 2 C 6.941858 2.260415 -14.866006 0
M  V30 3 N 11.840932 9.457340 -2.848768 0
M  V30 4 O 9.407841 8.491915 -6.677329 0
M  V30 5 C 8.351397 5.208373 -11.657181 0
M  V30 6 C 7.388341 4.720259 -14.006945 0 CFG=2
M  V30 7 C 9.429385 6.606146 -8.198371 0 CFG=1
M  V30 8 O 8.624748 3.667586 -15.818052 0
M  V30 9 O 6.633738 -0.232917 -12.348075 0
M  V30 10 N 8.682632 6.168882 -9.401817 0 CHG=1
M  V30 11 C 6.416797 0.738919 -12.973077 0
M  V30 12 F 10.625652 6.023857 -8.131669 0
M  V30 13 O 11.146686 6.969606 -11.830448 0
M  V30 14 C 12.633441 7.062884 -2.859217 0
M  V30 15 C 12.076046 9.466050 -4.291732 0 CFG=2
M  V30 16 C 9.520512 8.137841 -8.044228 0
M  V30 17 C 9.385812 5.854951 -10.680535 0 CFG=2
M  V30 18 C 8.480609 5.457920 -13.184970 0
M  V30 19 O 10.675489 9.164969 -6.233646 0
M  V30 20 C 7.943454 3.397895 -14.602615 0 CFG=2
M  V30 21 F 13.000410 8.569687 -1.149537 0
M  V30 22 C 11.235875 8.531207 -5.151912 0
M  V30 23 C 6.180435 1.856168 -13.619247 0
M  V30 24 O 9.388368 8.169005 -11.204915 0 CHG=-1
M  V30 25 C 11.014844 7.215444 -4.919932 0
M  V30 26 C 11.572153 6.420260 -3.751697 0
M  V30 27 C 6.727808 5.627814 -15.071655 0
M  V30 28 C 5.807788 6.697678 -14.466624 0
M  V30 29 F 13.372908 9.370029 -4.557818 0
M  V30 30 C 12.096344 8.254995 -2.073196 0 CFG=1
M  V30 31 H 6.234959 2.537800 -15.641295 0
M  V30 32 H 7.476660 1.389599 -15.250140 0
M  V30 33 H 12.382529 10.193843 -2.414991 0
M  V30 34 H 7.354999 5.549546 -11.376156 0
M  V30 35 H 8.350367 4.131615 -11.480476 0
M  V30 36 H 6.597168 4.462543 -13.303261 0
M  V30 37 H 8.857559 6.223734 -7.352455 0
M  V30 38 H 9.008301 2.863145 -16.133663 0
M  V30 39 H 7.973663 6.900989 -9.567291 0
M  V30 40 H 12.957820 6.303865 -2.142851 0
M  V30 41 H 13.526944 7.331083 -3.419119 0
M  V30 42 H 11.815823 10.468499 -4.631436 0
M  V30 43 H 10.417771 8.543113 -8.513546 0
M  V30 44 H 8.669078 8.633060 -8.516559 0
M  V30 45 H 10.185159 5.138906 -10.481152 0
M  V30 46 H 9.477096 5.188416 -13.538697 0
M  V30 47 H 8.400234 6.528878 -13.367169 0
M  V30 48 H 8.635489 2.985918 -13.874076 0
M  V30 49 H 5.423354 2.543087 -13.276992 0
M  V30 50 H 10.392854 6.657953 -5.600936 0
M  V30 51 H 10.731832 6.086491 -3.142139 0
M  V30 52 H 12.002442 5.526528 -4.188315 0
M  V30 53 H 7.492223 6.108770 -15.684108 0
M  V30 54 H 6.137353 5.011510 -15.750802 0
M  V30 55 H 5.302095 7.275779 -15.240927 0
M  V30 56 H 5.039664 6.241362 -13.846369 0
M  V30 57 H 6.354929 7.396485 -13.836563 0
M  V30 58 H 11.193626 7.978869 -1.524003 0
M  V30 59 H 8.184227 5.334522 -9.139722 0
M  V30 END ATOM
M  V30 BEGIN BOND
M  V30 1 1 10 7
M  V30 2 2 11 9
M  V30 3 1 12 7
M  V30 4 2 13 1
M  V30 5 1 15 3
M  V30 6 1 16 4
M  V30 7 1 16 7
M  V30 8 1 17 1
M  V30 9 1 17 5
M  V30 10 1 17 10
M  V30 11 1 18 5
M  V30 12 1 18 6
M  V30 13 1 19 4
M  V30 14 1 20 2
M  V30 15 1 20 6
M  V30 16 1 20 8
M  V30 17 1 22 15
M  V30 18 1 22 19
M  V30 19 1 23 2
M  V30 20 2 23 11
M  V30 21 1 24 1
M  V30 22 2 25 22
M  V30 23 1 26 14
M  V30 24 1 26 25
M  V30 25 1 27 6
M  V30 26 1 28 27
M  V30 27 1 29 15
M  V30 28 1 30 3
M  V30 29 1 30 14
M  V30 30 1 30 21
M  V30 31 1 31 2
M  V30 32 1 32 2
M  V30 33 1 33 3
M  V30 34 1 34 5
M  V30 35 1 35 5
M  V30 36 1 6 36 CFG=1
M  V30 37 1 7 37 CFG=1
M  V30 38 1 38 8
M  V30 39 1 39 10
M  V30 40 1 40 14
M  V30 41 1 41 14
M  V30 42 1 15 42 CFG=3
M  V30 43 1 43 16
M  V30 44 1 44 16
M  V30 45 1 17 45 CFG=1
M  V30 46 1 46 18
M  V30 47 1 47 18
M  V30 48 1 20 48 CFG=1
M  V30 49 1 49 23
M  V30 50 1 50 25
M  V30 51 1 51 26
M  V30 52 1 52 26
M  V30 53 1 53 27
M  V30 54 1 54 27
M  V30 55 1 55 28
M  V30 56 1 56 28
M  V30 57 1 57 28
M  V30 58 1 30 58 CFG=1
M  V30 59 1 59 10
M  V30 END BOND
M  V30 END CTAB
M  END
>  <i_epik_Tot_Q>  (1) 
0

>  <i_epik_Tot_abs_Q>  (1) 
2

>  <i_i_glide_confnum>  (1) 
1661

>  <i_i_glide_lignum>  (1) 
108

>  <i_i_glide_posenum>  (1) 
161

>  <i_i_glide_rotatable_bonds>  (1) 
15

>  <i_lp_mmshare_version>  (1) 
72125

>  <i_m_source_file_index>  (1) 
44

>  <i_f3d_flags>  (1) 
0

>  <num_sample>  (1) 
50

>  <b_lp_Chiralities_Consistent>  (1) 
1

>  <r_epik_Charging_Adjusted_Penalty>  (1) 
2.1322098409762558

>  <r_epik_Ionization_Penalty>  (1) 
1.0661195873001319

>  <r_epik_Ionization_Penalty_Charging>  (1) 
1.0661068903442914

>  <r_epik_Ionization_Penalty_Neutral>  (1) 
1.2696955840525338e-05

>  <r_epik_State_Penalty>  (1) 
1.0661029506319644

>  <r_glide_ring_energy>  (1) 
0

>  <r_i_docking_score>  (1) 
-5.1245033840297776

>  <r_i_glide_ecoul>  (1) 
-10.84981295538628

>  <r_i_glide_eff_state_penalty>  (1) 
1.0661029506319644

>  <r_i_glide_einternal>  (1) 
22.316968392355012

>  <r_i_glide_emodel>  (1) 
-43.449230464994699

>  <r_i_glide_emodel_strain>  (1) 
5.5593517766887715

>  <r_i_glide_energy>  (1) 
-43.986469503638446

>  <r_i_glide_erotb>  (1) 
1.1415552716364241

>  <r_i_glide_esite>  (1) 
-0.19959411080424183

>  <r_i_glide_evdw>  (1) 
-33.136656548252162

>  <r_i_glide_gscore>  (1) 
-6.1906063346617417

>  <r_i_glide_gscore_strain>  (1) 
0.38983794417219286

>  <r_i_glide_hbond>  (1) 
-0.30553175645527353

>  <r_i_glide_ligand_efficiency>  (1) 
-0.17081677946765925

>  <r_i_glide_ligand_efficiency_ln>  (1) 
-1.1643430047880421

>  <r_i_glide_ligand_efficiency_sa>  (1) 
-0.5307674497242626

>  <r_i_glide_lipo>  (1) 
-2.7499302533066698

>  <r_i_glide_metal>  (1) 
-0

>  <r_i_glide_rewards>  (1) 
-1.1826386591836235

>  <r_lp_Energy>  (1) 
8.1104409999999998

>  <s_epik_cmdline>  (1) 
J2VwaWtfcHl0aG9uJywgJy1waHQnLCAnMS4wJywgJy1waCcsICc3LjQnLCAnLXRuJywgJzgnLCAnLW1hJywgJzUwMCcsICctaW1hZScsICc8aW5maWxlLm1hZT4nLCAnLW9tYWUnLCAnPG91dGZpbGUubWFlPic=

>  <s_epik_input>  (1) 
Tz1DPVtDSF1bQ0gyXVtDQEBIXShbT0hdKVtDQEhdKFtDSDJdW0NIM10pW0NIMl1bQ0gyXVtDQEBIXShDKD1PKVtPSF0pW05IXVtDQEBIXShGKVtDSDJdT09DMT1bQ0hdW0NIMl1bQ0gyXVtDQEBIXShGKVtOSF1bQ0BIXTFG

>  <s_glide_docking_method>  (1) 
confgen

>  <s_i_glide_gridfile>  (1) 
gpcr_drd2_6luq_protein_autoprepared_prepared

>  <s_lp_Force_Field>  (1) 
S-OPLS

>  <s_lp_Variant>  (1) 
DiffSBDD_43_num_sample_50-3

>  <s_m_source_file>  (1) 
generated__ligand_DiffSBDD_2026-05-06_prepared.sdf

>  <GenAI_Model>  (1) 
DiffSBDD

>  <Protein>  (1) 
generic_title2

$$$$
DiffSBDD_10_num_sample_50
     RDKit          3D

  0  0  0  0  0  0  0  0  0  0999 V3000
M  V30 BEGIN CTAB
M  V30 COUNTS 72 73 0 0 1
M  V30 BEGIN ATOM
M  V30 1 C 9.915417 7.087415 -9.120735 0 CFG=2
M  V30 2 C 5.050917 -0.467885 -17.713009 0
M  V30 3 C 6.973227 2.373311 -16.269349 0
M  V30 4 C 7.374082 4.729295 -13.594568 0 CFG=1
M  V30 5 C 9.311191 7.662021 -10.455289 0 CFG=2
M  V30 6 N 7.449032 -0.330766 -17.982693 0
M  V30 7 N 7.106589 6.859642 -12.614438 0
M  V30 8 C 7.833109 6.111465 -11.632680 0 CFG=1
M  V30 9 S 9.820441 7.965249 -7.452009 0
M  V30 10 C 4.739969 -0.810975 -19.151177 0
M  V30 11 S 11.699806 8.960663 -7.294179 0 CHG=-1
M  V30 12 C 8.655529 4.979663 -8.326441 0
M  V30 13 O 4.541625 -4.596698 -17.491718 0
M  V30 14 O 8.764521 8.969300 -7.491700 0
M  V30 15 C 10.762765 7.899039 -10.084199 0 CFG=2
M  V30 16 C 7.038094 1.239434 -13.890450 0
M  V30 17 C 7.311223 6.231881 -13.903931 0 CFG=2
M  V30 18 N 5.547724 -3.199701 -18.905173 0 CHG=1
M  V30 19 N 6.497853 0.004465 -15.892850 0
M  V30 20 C 4.426181 -2.312496 -19.305370 0
M  V30 21 C 9.108890 3.846074 -11.781790 0
M  V30 22 C 9.968465 5.596500 -8.855498 0
M  V30 23 C 8.634833 8.969225 -10.872872 0
M  V30 24 C 8.213234 3.901000 -14.593338 0
M  V30 25 C 6.829315 1.129038 -15.393055 0
M  V30 26 O 11.514369 7.369296 -11.137357 0
M  V30 27 C 6.289664 -0.268077 -17.232921 0
M  V30 28 O 9.830321 6.982194 -6.357015 0
M  V30 29 F 6.320090 6.546477 -14.736746 0
M  V30 30 N 8.268864 0.586984 -13.479274 0
M  V30 31 C 5.578345 -3.646037 -17.494397 0
M  V30 32 C 7.832117 4.640692 -12.116143 0 CFG=2
M  V30 33 O 9.144121 6.610045 -11.449411 0
M  V30 34 C 7.548230 3.563006 -15.916028 0
M  V30 35 H 4.203851 -0.397847 -17.043243 0
M  V30 36 H 6.568778 2.267601 -17.264015 0
M  V30 37 H 6.349486 4.358437 -13.621537 0
M  V30 38 H 7.430300 -0.461654 -18.983332 0
M  V30 39 H 7.347602 7.838884 -12.606394 0
M  V30 40 H 7.311300 6.169307 -10.680594 0
M  V30 41 H 5.561812 -0.529284 -19.807390 0
M  V30 42 H 3.880694 -0.217793 -19.465907 0
M  V30 43 H 8.848805 4.000707 -7.891752 0
M  V30 44 H 8.177611 5.577744 -7.551952 0
M  V30 45 H 7.916588 4.845579 -9.112756 0
M  V30 46 H 4.234487 -4.631337 -16.579704 0
M  V30 47 H 11.047205 8.924286 -9.866286 0
M  V30 48 H 6.872042 2.223714 -13.476751 0
M  V30 49 H 6.241712 0.652729 -13.430313 0
M  V30 50 H 8.235138 6.585954 -14.349247 0
M  V30 51 H 6.413872 -2.727036 -19.112839 0
M  V30 52 H 4.235325 -2.514865 -20.358940 0
M  V30 53 H 3.514800 -2.571229 -18.763907 0
M  V30 54 H 10.014367 4.325887 -12.148203 0
M  V30 55 H 9.183378 3.691554 -10.713427 0
M  V30 56 H 9.089043 2.828794 -12.160626 0
M  V30 57 H 10.234806 5.114130 -9.773137 0
M  V30 58 H 10.775775 5.397303 -8.150767 0
M  V30 59 H 8.706226 9.720042 -10.093473 0
M  V30 60 H 9.034831 9.327462 -11.821943 0
M  V30 61 H 7.580795 8.855930 -11.091691 0
M  V30 62 H 8.634819 3.013396 -14.174285 0
M  V30 63 H 9.107119 4.473885 -14.836217 0
M  V30 64 H 10.902937 6.831925 -11.629722 0
M  V30 65 H 9.067844 1.088264 -13.839034 0
M  V30 66 H 8.362696 0.605770 -12.471299 0
M  V30 67 H 5.381663 -2.855054 -16.773017 0
M  V30 68 H 6.529651 -4.116153 -17.248609 0
M  V30 69 H 7.021587 4.154603 -11.572464 0
M  V30 70 H 7.553029 4.360023 -16.645741 0
M  V30 71 H 8.354485 -0.145866 -17.571821 0
M  V30 72 H 5.491880 -4.040771 -19.461508 0
M  V30 END ATOM
M  V30 BEGIN BOND
M  V30 1 1 5 1
M  V30 2 1 8 7
M  V30 3 1 9 1
M  V30 4 1 10 2
M  V30 5 1 11 9
M  V30 6 2 14 9
M  V30 7 1 15 1
M  V30 8 1 15 5
M  V30 9 1 17 4
M  V30 10 1 17 7
M  V30 11 1 20 10
M  V30 12 1 20 18
M  V30 13 1 1 22 CFG=1
M  V30 14 1 22 12
M  V30 15 1 23 5
M  V30 16 1 24 4
M  V30 17 1 25 3
M  V30 18 1 25 16
M  V30 19 2 25 19
M  V30 20 1 26 15
M  V30 21 2 27 2
M  V30 22 1 27 6
M  V30 23 1 27 19
M  V30 24 2 28 9
M  V30 25 1 29 17
M  V30 26 1 30 16
M  V30 27 1 31 13
M  V30 28 1 31 18
M  V30 29 1 32 4
M  V30 30 1 32 8
M  V30 31 1 32 21
M  V30 32 1 5 33 CFG=3
M  V30 33 1 33 8
M  V30 34 2 34 3
M  V30 35 1 34 24
M  V30 36 1 35 2
M  V30 37 1 36 3
M  V30 38 1 4 37 CFG=1
M  V30 39 1 38 6
M  V30 40 1 39 7
M  V30 41 1 8 40 CFG=1
M  V30 42 1 41 10
M  V30 43 1 42 10
M  V30 44 1 43 12
M  V30 45 1 44 12
M  V30 46 1 45 12
M  V30 47 1 46 13
M  V30 48 1 15 47 CFG=1
M  V30 49 1 48 16
M  V30 50 1 49 16
M  V30 51 1 17 50 CFG=3
M  V30 52 1 51 18
M  V30 53 1 52 20
M  V30 54 1 53 20
M  V30 55 1 54 21
M  V30 56 1 55 21
M  V30 57 1 56 21
M  V30 58 1 57 22
M  V30 59 1 58 22
M  V30 60 1 59 23
M  V30 61 1 60 23
M  V30 62 1 61 23
M  V30 63 1 62 24
M  V30 64 1 63 24
M  V30 65 1 64 26
M  V30 66 1 65 30
M  V30 67 1 66 30
M  V30 68 1 67 31
M  V30 69 1 68 31
M  V30 70 1 32 69 CFG=1
M  V30 71 1 70 34
M  V30 72 1 71 6
M  V30 73 1 72 18
M  V30 END BOND
M  V30 END CTAB
M  END
>  <i_epik_Tot_Q>  (1) 
0

>  <i_epik_Tot_abs_Q>  (1) 
2

>  <i_i_glide_confnum>  (1) 
1580

>  <i_i_glide_lignum>  (1) 
25

>  <i_i_glide_posenum>  (1) 
342

>  <i_i_glide_rotatable_bonds>  (1) 
15

>  <i_lp_mmshare_version>  (1) 
72125

>  <i_m_source_file_index>  (1) 
11

>  <i_f3d_flags>  (1) 
0

>  <num_sample>  (1) 
50

>  <b_lp_Chiralities_Consistent>  (1) 
1

>  <r_epik_Charging_Adjusted_Penalty>  (1) 
0.33639934582642134

>  <r_epik_Ionization_Penalty>  (1) 
0.23315943830934333

>  <r_epik_Ionization_Penalty_Charging>  (1) 
0.10316865490585193

>  <r_epik_Ionization_Penalty_Neutral>  (1) 
0.12999078340349141

>  <r_epik_State_Penalty>  (1) 
0.23323069092056939

>  <r_glide_ring_energy>  (1) 
0

>  <r_i_docking_score>  (1) 
-5.123029106497162

>  <r_i_glide_ecoul>  (1) 
-10.283222477311643

>  <r_i_glide_eff_state_penalty>  (1) 
0.23323069092056939

>  <r_i_glide_einternal>  (1) 
12.437037804042587

>  <r_i_glide_emodel>  (1) 
-46.043726279865275

>  <r_i_glide_emodel_strain>  (1) 
4.3712723569136358

>  <r_i_glide_energy>  (1) 
-41.88365910000531

>  <r_i_glide_erotb>  (1) 
0.82510599487301828

>  <r_i_glide_esite>  (1) 
-0.26401943247517518

>  <r_i_glide_evdw>  (1) 
-31.600436622693667

>  <r_i_glide_gscore>  (1) 
-5.3562597974177315

>  <r_i_glide_gscore_strain>  (1) 
0.092818089228408951

>  <r_i_glide_hbond>  (1) 
-0.31485179808631564

>  <r_i_glide_ligand_efficiency>  (1) 
-0.15067732666168124

>  <r_i_glide_ligand_efficiency_ln>  (1) 
-1.1318208257243492

>  <r_i_glide_ligand_efficiency_sa>  (1) 
-0.48813604563812496

>  <r_i_glide_lipo>  (1) 
-1.6869708989302634

>  <r_i_glide_metal>  (1) 
-0

>  <r_i_glide_rewards>  (1) 
-0.88583654929597588

>  <r_lp_Energy>  (1) 
28.206426

>  <s_epik_Chemistry_Notes>  (1) 
This compound has an imine and may undergo hydrolysis. This compound contains an acetal/aminal-like group ( X-CH(R)-Y where X, Y are N, S, or O) that may be acid/base labile, releasing an aldehyde.

>  <s_epik_cmdline>  (1) 
J2VwaWtfcHl0aG9uJywgJy1waHQnLCAnMS4wJywgJy1waCcsICc3LjQnLCAnLXRuJywgJzgnLCAnLW1hJywgJzUwMCcsICctaW1hZScsICc8aW5maWxlLm1hZT4nLCAnLW9tYWUnLCAnPG91dGZpbGUubWFlPic=

>  <s_epik_input>  (1) 
W1NIXVMoPU8pKD1PKVtDQEBdMShbQ0gyXVtDSDNdKVtDQEBdKFtDSDNdKShbQ0BASF0xW09IXSlPW0NASF0oW0NAQEhdMltDSDNdKVtOSF1bQ0BASF0oRilbQ0BIXTJbQ0gyXS9bQ0hdPVtDSF1cQyhbQ0gyXVtOSDJdKT1OL0MoPU4vW0hdKS9bQ0gyXVtDSDJdW0NIMl1bTkhdW0NIMl1bT0hd

>  <s_glide_docking_method>  (1) 
confgen

>  <s_i_glide_gridfile>  (1) 
gpcr_drd2_6luq_protein_autoprepared_prepared

>  <s_lp_Force_Field>  (1) 
S-OPLS

>  <s_lp_Variant>  (1) 
DiffSBDD_10_num_sample_50-5

>  <s_m_source_file>  (1) 
generated__ligand_DiffSBDD_2026-05-06_prepared.sdf

>  <GenAI_Model>  (1) 
DiffSBDD

>  <Protein>  (1) 
generic_title2

$$$$
DiffSBDD_43_num_sample_50
     RDKit          3D

  0  0  0  0  0  0  0  0  0  0999 V3000
M  V30 BEGIN CTAB
M  V30 COUNTS 59 59 0 0 1
M  V30 BEGIN ATOM
M  V30 1 C 9.860313 6.958023 -11.957416 0
M  V30 2 C 6.903074 5.665254 -14.687321 0
M  V30 3 N 11.834852 9.389099 -2.714470 0
M  V30 4 O 11.457824 7.332400 -7.137786 0
M  V30 5 C 8.260948 4.990831 -11.648616 0
M  V30 6 C 7.720271 3.384521 -13.703483 0 CFG=2
M  V30 7 C 10.106848 7.188840 -9.053641 0 CFG=1
M  V30 8 O 8.531561 4.299430 -15.797802 0
M  V30 9 O 4.710080 8.168427 -15.891715 0
M  V30 10 N 9.034879 6.433934 -9.739048 0 CHG=1
M  V30 11 C 5.522107 7.319092 -15.919328 0
M  V30 12 F 9.835117 8.492825 -9.120805 0
M  V30 13 O 11.063501 6.969278 -12.291979 0
M  V30 14 C 12.683093 7.035787 -2.425773 0
M  V30 15 C 12.111750 9.279592 -4.142357 0 CFG=2
M  V30 16 C 10.239796 6.780897 -7.594703 0
M  V30 17 C 9.409501 5.825018 -11.033039 0 CFG=2
M  V30 18 C 8.766644 4.019021 -12.747177 0
M  V30 19 O 11.165656 8.493451 -6.229802 0
M  V30 20 C 7.390885 4.232804 -14.962427 0 CFG=2
M  V30 21 F 13.266615 8.750439 -1.091662 0
M  V30 22 C 11.478187 8.135248 -4.947952 0
M  V30 23 C 6.444265 6.387858 -15.939714 0
M  V30 24 O 8.997456 7.797917 -12.291382 0 CHG=-1
M  V30 25 C 11.224787 6.881230 -4.504778 0
M  V30 26 C 11.541587 6.361312 -3.132321 0
M  V30 27 C 6.460836 2.811507 -13.000109 0
M  V30 28 C 6.476500 1.276618 -12.901882 0
M  V30 29 F 13.422433 9.369302 -4.346611 0
M  V30 30 C 12.235947 8.333364 -1.799943 0 CFG=1
M  V30 31 H 6.098626 5.659929 -13.948962 0
M  V30 32 H 7.719739 6.248797 -14.262789 0
M  V30 33 H 12.271250 10.233083 -2.365651 0
M  V30 34 H 7.484151 5.652125 -12.030177 0
M  V30 35 H 7.787530 4.414229 -10.854262 0
M  V30 36 H 8.231261 2.512234 -14.113322 0
M  V30 37 H 11.072287 7.039319 -9.540025 0
M  V30 38 H 8.785050 3.422576 -16.042187 0
M  V30 39 H 8.258941 7.084665 -9.890394 0
M  V30 40 H 13.032109 6.371878 -1.633206 0
M  V30 41 H 13.534207 7.179736 -3.092169 0
M  V30 42 H 11.716617 10.193198 -4.586876 0
M  V30 43 H 9.383875 7.088716 -6.990541 0
M  V30 44 H 10.324014 5.695197 -7.518812 0
M  V30 45 H 10.234839 5.142191 -10.858369 0
M  V30 46 H 9.307632 3.213426 -12.248337 0
M  V30 47 H 9.521111 4.519423 -13.355457 0
M  V30 48 H 6.635049 3.700558 -15.538225 0
M  V30 49 H 6.922027 6.100619 -16.865715 0
M  V30 50 H 10.767310 6.169116 -5.168921 0
M  V30 51 H 10.644520 6.264683 -2.519721 0
M  V30 52 H 11.904210 5.369441 -3.317760 0
M  V30 53 H 6.336350 3.223462 -12.001652 0
M  V30 54 H 5.557972 3.114173 -13.529725 0
M  V30 55 H 5.588143 0.900626 -12.395005 0
M  V30 56 H 6.507363 0.813350 -13.889024 0
M  V30 57 H 7.347149 0.927257 -12.346186 0
M  V30 58 H 11.426857 8.167020 -1.092576 0
M  V30 59 H 8.700313 5.709546 -9.123946 0
M  V30 END ATOM
M  V30 BEGIN BOND
M  V30 1 1 10 7
M  V30 2 2 11 9
M  V30 3 1 12 7
M  V30 4 2 13 1
M  V30 5 1 15 3
M  V30 6 1 16 4
M  V30 7 1 16 7
M  V30 8 1 17 1
M  V30 9 1 17 5
M  V30 10 1 17 10
M  V30 11 1 18 5
M  V30 12 1 18 6
M  V30 13 1 19 4
M  V30 14 1 20 2
M  V30 15 1 20 6
M  V30 16 1 20 8
M  V30 17 1 22 15
M  V30 18 1 22 19
M  V30 19 1 23 2
M  V30 20 2 23 11
M  V30 21 1 24 1
M  V30 22 2 25 22
M  V30 23 1 26 14
M  V30 24 1 26 25
M  V30 25 1 27 6
M  V30 26 1 28 27
M  V30 27 1 29 15
M  V30 28 1 30 3
M  V30 29 1 30 14
M  V30 30 1 30 21
M  V30 31 1 31 2
M  V30 32 1 32 2
M  V30 33 1 33 3
M  V30 34 1 34 5
M  V30 35 1 35 5
M  V30 36 1 6 36 CFG=3
M  V30 37 1 7 37 CFG=3
M  V30 38 1 38 8
M  V30 39 1 39 10
M  V30 40 1 40 14
M  V30 41 1 41 14
M  V30 42 1 15 42 CFG=3
M  V30 43 1 43 16
M  V30 44 1 44 16
M  V30 45 1 17 45 CFG=1
M  V30 46 1 46 18
M  V30 47 1 47 18
M  V30 48 1 20 48 CFG=3
M  V30 49 1 49 23
M  V30 50 1 50 25
M  V30 51 1 51 26
M  V30 52 1 52 26
M  V30 53 1 53 27
M  V30 54 1 54 27
M  V30 55 1 55 28
M  V30 56 1 56 28
M  V30 57 1 57 28
M  V30 58 1 30 58 CFG=1
M  V30 59 1 59 10
M  V30 END BOND
M  V30 END CTAB
M  END
>  <i_epik_Tot_Q>  (1) 
0

>  <i_epik_Tot_abs_Q>  (1) 
2

>  <i_i_glide_confnum>  (1) 
430

>  <i_i_glide_lignum>  (1) 
108

>  <i_i_glide_posenum>  (1) 
278

>  <i_i_glide_rotatable_bonds>  (1) 
15

>  <i_lp_mmshare_version>  (1) 
72125

>  <i_m_source_file_index>  (1) 
44

>  <i_f3d_flags>  (1) 
0

>  <num_sample>  (1) 
50

>  <b_lp_Chiralities_Consistent>  (1) 
1

>  <r_epik_Charging_Adjusted_Penalty>  (1) 
2.1322098409762558

>  <r_epik_Ionization_Penalty>  (1) 
1.0661195873001319

>  <r_epik_Ionization_Penalty_Charging>  (1) 
1.0661068903442914

>  <r_epik_Ionization_Penalty_Neutral>  (1) 
1.2696955840525338e-05

>  <r_epik_State_Penalty>  (1) 
1.0661029506319644

>  <r_glide_ring_energy>  (1) 
0

>  <r_i_docking_score>  (1) 
-5.1136201055487902

>  <r_i_glide_ecoul>  (1) 
-7.8204470678933644

>  <r_i_glide_eff_state_penalty>  (1) 
1.0661029506319644

>  <r_i_glide_einternal>  (1) 
18.412633564254275

>  <r_i_glide_emodel>  (1) 
-44.049897573009389

>  <r_i_glide_emodel_strain>  (1) 
5.9702688771709553

>  <r_i_glide_energy>  (1) 
-43.074332290755777

>  <r_i_glide_erotb>  (1) 
1.1415552716364241

>  <r_i_glide_esite>  (1) 
-0.25894241727339301

>  <r_i_glide_evdw>  (1) 
-35.253885222862415

>  <r_i_glide_gscore>  (1) 
-6.1797230561807543

>  <r_i_glide_gscore_strain>  (1) 
0.49256721929273883

>  <r_i_glide_hbond>  (1) 
-0.31392396359142105

>  <r_i_glide_ligand_efficiency>  (1) 
-0.17045400351829301

>  <r_i_glide_ligand_efficiency_ln>  (1) 
-1.1618702053343448

>  <r_i_glide_ligand_efficiency_sa>  (1) 
-0.52964022050201354

>  <r_i_glide_lipo>  (1) 
-3.1533209762810834

>  <r_i_glide_metal>  (1) 
-0

>  <r_i_glide_rewards>  (1) 
-1.1518968686368956

>  <r_lp_Energy>  (1) 
8.1104409999999998

>  <s_epik_cmdline>  (1) 
J2VwaWtfcHl0aG9uJywgJy1waHQnLCAnMS4wJywgJy1waCcsICc3LjQnLCAnLXRuJywgJzgnLCAnLW1hJywgJzUwMCcsICctaW1hZScsICc8aW5maWxlLm1hZT4nLCAnLW9tYWUnLCAnPG91dGZpbGUubWFlPic=

>  <s_epik_input>  (1) 
Tz1DPVtDSF1bQ0gyXVtDQEBIXShbT0hdKVtDQEhdKFtDSDJdW0NIM10pW0NIMl1bQ0gyXVtDQEBIXShDKD1PKVtPSF0pW05IXVtDQEBIXShGKVtDSDJdT09DMT1bQ0hdW0NIMl1bQ0gyXVtDQEBIXShGKVtOSF1bQ0BIXTFG

>  <s_glide_docking_method>  (1) 
confgen

>  <s_i_glide_gridfile>  (1) 
gpcr_drd2_6luq_protein_autoprepared_prepared

>  <s_lp_Force_Field>  (1) 
S-OPLS

>  <s_lp_Variant>  (1) 
DiffSBDD_43_num_sample_50-3

>  <s_m_source_file>  (1) 
generated__ligand_DiffSBDD_2026-05-06_prepared.sdf

>  <GenAI_Model>  (1) 
DiffSBDD

>  <Protein>  (1) 
generic_title2

$$$$
DiffSBDD_2_num_sample_50
     RDKit          3D

  0  0  0  0  0  0  0  0  0  0999 V3000
M  V30 BEGIN CTAB
M  V30 COUNTS 54 57 0 0 1
M  V30 BEGIN ATOM
M  V30 1 C 9.611094 5.913583 -8.685021 0 CFG=1
M  V30 2 C 9.779133 6.708811 -11.448552 0
M  V30 3 O 11.412650 7.766561 -10.149665 0 CHG=-1
M  V30 4 C 7.034891 2.320247 -13.905991 0
M  V30 5 O 8.216356 2.423468 -18.132085 0
M  V30 6 C 7.793311 1.389203 -17.479823 0
M  V30 7 C 10.907327 9.398624 -5.757095 0
M  V30 8 C 7.849395 3.686659 -18.164561 0
M  V30 9 C 11.591312 8.827694 -6.999721 0
M  V30 10 O 7.430553 5.742764 -17.298704 0 CHG=-1
M  V30 11 C 7.446570 1.392752 -16.216658 0
M  V30 12 C 6.849256 -0.046464 -14.328916 0
M  V30 13 C 7.563705 4.512597 -17.091577 0
M  V30 14 C 8.179283 5.036141 -10.588530 0
M  V30 15 N 9.434838 7.316180 -9.027477 0 CFG=2 CHG=1
M  V30 16 C 10.112427 7.709328 -10.302938 0 CFG=2
M  V30 17 C 11.321141 7.335931 -7.225770 0
M  V30 18 C 6.804049 1.079562 -13.457852 0
M  V30 19 C 7.709043 6.278078 -12.704258 0
M  V30 20 N 8.373349 6.274960 -11.380180 0
M  V30 21 C 7.434834 3.992927 -15.741938 0
M  V30 22 C 8.048731 5.127378 -13.657814 0
M  V30 23 N 7.260428 5.006550 -14.752630 0
M  V30 24 C 7.146428 0.092692 -15.622172 0
M  V30 25 C 7.367274 2.612291 -15.339948 0
M  V30 26 C 9.895061 6.997211 -7.668705 0 CFG=2
M  V30 27 O 8.995062 4.374720 -13.416675 0
M  V30 28 C 8.311815 5.229252 -9.053276 0
M  V30 29 H 10.504794 5.458330 -9.091664 0
M  V30 30 H 10.434658 5.841153 -11.491670 0
M  V30 31 H 9.976094 7.231834 -12.385400 0
M  V30 32 H 6.940435 3.108908 -13.198548 0
M  V30 33 H 7.852903 0.492070 -18.078631 0
M  V30 34 H 11.087965 10.469949 -5.666203 0
M  V30 35 H 11.269522 8.917417 -4.848404 0
M  V30 36 H 9.834840 9.242812 -5.814199 0
M  V30 37 H 7.947966 4.077726 -19.166341 0
M  V30 38 H 11.287265 9.369303 -7.892737 0
M  V30 39 H 12.666526 8.983334 -6.909612 0
M  V30 40 H 6.636482 -1.030607 -13.934618 0
M  V30 41 H 7.178211 4.646400 -10.780321 0
M  V30 42 H 8.871727 4.258497 -10.912437 0
M  V30 43 H 9.551803 8.603790 -10.564520 0
M  V30 44 H 12.044543 6.969302 -7.942922 0
M  V30 45 H 11.527100 6.783722 -6.308531 0
M  V30 46 H 6.556038 0.931648 -12.417228 0
M  V30 47 H 7.891305 7.226946 -13.210793 0
M  V30 48 H 6.632204 6.246112 -12.533098 0
M  V30 49 H 6.616270 5.752403 -14.971174 0
M  V30 50 H 7.173424 -0.789524 -16.246576 0
M  V30 51 H 9.104004 7.238812 -6.961578 0
M  V30 52 H 8.282779 4.264618 -8.549551 0
M  V30 53 H 7.453001 5.769307 -8.663349 0
M  V30 54 H 8.424951 7.488166 -9.091656 0
M  V30 END ATOM
M  V30 BEGIN BOND
M  V30 1 1 6 5
M  V30 2 1 8 5
M  V30 3 1 9 7
M  V30 4 2 11 6
M  V30 5 2 13 8
M  V30 6 1 13 10
M  V30 7 1 15 1
M  V30 8 1 16 2
M  V30 9 1 16 3
M  V30 10 1 16 15
M  V30 11 1 17 9
M  V30 12 2 18 4
M  V30 13 1 18 12
M  V30 14 1 20 2
M  V30 15 1 20 14
M  V30 16 1 20 19
M  V30 17 1 21 13
M  V30 18 1 22 19
M  V30 19 1 23 21
M  V30 20 1 23 22
M  V30 21 1 24 11
M  V30 22 2 24 12
M  V30 23 1 25 4
M  V30 24 1 25 11
M  V30 25 2 25 21
M  V30 26 1 26 1
M  V30 27 1 26 15
M  V30 28 1 26 17
M  V30 29 2 27 22
M  V30 30 1 28 1
M  V30 31 1 28 14
M  V30 32 1 1 29 CFG=3
M  V30 33 1 30 2
M  V30 34 1 31 2
M  V30 35 1 32 4
M  V30 36 1 33 6
M  V30 37 1 34 7
M  V30 38 1 35 7
M  V30 39 1 36 7
M  V30 40 1 37 8
M  V30 41 1 38 9
M  V30 42 1 39 9
M  V30 43 1 40 12
M  V30 44 1 41 14
M  V30 45 1 42 14
M  V30 46 1 16 43 CFG=3
M  V30 47 1 44 17
M  V30 48 1 45 17
M  V30 49 1 46 18
M  V30 50 1 47 19
M  V30 51 1 48 19
M  V30 52 1 49 23
M  V30 53 1 50 24
M  V30 54 1 26 51 CFG=1
M  V30 55 1 52 28
M  V30 56 1 53 28
M  V30 57 1 15 54 CFG=1
M  V30 END BOND
M  V30 END CTAB
M  END
>  <i_epik_Tot_Q>  (1) 
-1

>  <i_epik_Tot_abs_Q>  (1) 
3

>  <i_i_glide_confnum>  (1) 
2

>  <i_i_glide_lignum>  (1) 
7

>  <i_i_glide_posenum>  (1) 
393

>  <i_i_glide_rotatable_bonds>  (1) 
6

>  <i_lp_mmshare_version>  (1) 
72125

>  <i_m_source_file_index>  (1) 
3

>  <i_f3d_flags>  (1) 
0

>  <num_sample>  (1) 
50

>  <b_lp_Chiralities_Consistent>  (1) 
1

>  <r_epik_Charging_Adjusted_Penalty>  (1) 
0.20824401478555332

>  <r_epik_Ionization_Penalty>  (1) 
0.10900575238268746

>  <r_epik_Ionization_Penalty_Charging>  (1) 
0.10898275236366674

>  <r_epik_Ionization_Penalty_Neutral>  (1) 
2.3000019020727684e-05

>  <r_epik_State_Penalty>  (1) 
0.099261262421886584

>  <r_glide_ring_energy>  (1) 
0

>  <r_i_docking_score>  (1) 
-5.091543524643301

>  <r_i_glide_ecoul>  (1) 
-3.7938511298435955

>  <r_i_glide_eff_state_penalty>  (1) 
0.099261262421886584

>  <r_i_glide_einternal>  (1) 
2.9631458272510507

>  <r_i_glide_emodel>  (1) 
-47.789421643703051

>  <r_i_glide_emodel_strain>  (1) 
0

>  <r_i_glide_energy>  (1) 
-34.9932883017118

>  <r_i_glide_erotb>  (1) 
0.52616126561579779

>  <r_i_glide_esite>  (1) 
-0.17246578666895829

>  <r_i_glide_evdw>  (1) 
-31.199437171868208

>  <r_i_glide_gscore>  (1) 
-5.1908047870651872

>  <r_i_glide_gscore_strain>  (1) 
0

>  <r_i_glide_hbond>  (1) 
-0.20000000000000001

>  <r_i_glide_ligand_efficiency>  (1) 
-0.18184084016583218

>  <r_i_glide_ligand_efficiency_ln>  (1) 
-1.1752777397014869

>  <r_i_glide_ligand_efficiency_sa>  (1) 
-0.5521758898841711

>  <r_i_glide_lipo>  (1) 
-1.7355566692559028

>  <r_i_glide_metal>  (1) 
-0

>  <r_i_glide_rewards>  (1) 
-1.4798940686861741

>  <r_lp_Energy>  (1) 
97.502589999999998

>  <s_epik_Chemistry_Notes>  (1) 
This compound contains an acetal/aminal-like group ( X-CH(R)-Y where X, Y are N, S, or O) that may be acid/base labile, releasing an aldehyde.

>  <s_epik_cmdline>  (1) 
J2VwaWtfcHl0aG9uJywgJy1waHQnLCAnMS4wJywgJy1waCcsICc3LjQnLCAnLXRuJywgJzgnLCAnLW1hJywgJzUwMCcsICctaW1hZScsICc8aW5maWxlLm1hZT4nLCAnLW9tYWUnLCAnPG91dGZpbGUubWFlPic=

>  <s_epik_input>  (1) 
W0NIM11bQ0gyXVtDSDJdW0NIXTFOKFtDQEBIXTEyKVtDQEBIXShbT0hdKVtDSDJdTihbQ0gyXVtDSDJdMilbQ0gyXUMoPU8pW05IXUMoQyhbT0hdKT1bQ0hdT1tDSF09Myk9YyhjMzQpW2NIXVtjSF1bY0hdW2NIXTQ=

>  <s_glide_docking_method>  (1) 
confgen

>  <s_i_glide_gridfile>  (1) 
gpcr_drd2_6luq_protein_autoprepared_prepared

>  <s_lp_Force_Field>  (1) 
S-OPLS

>  <s_lp_Variant>  (1) 
DiffSBDD_2_num_sample_50-2

>  <s_m_source_file>  (1) 
generated__ligand_DiffSBDD_2026-05-06_prepared.sdf

>  <GenAI_Model>  (1) 
DiffSBDD

>  <Protein>  (1) 
generic_title2

$$$$
DiffSBDD_24_num_sample_50
     RDKit          3D

  0  0  0  0  0  0  0  0  0  0999 V3000
M  V30 BEGIN CTAB
M  V30 COUNTS 85 91 0 0 1
M  V30 BEGIN ATOM
M  V30 1 N 8.494358 4.076350 -18.318237 0
M  V30 2 C 9.361452 5.974659 -10.051783 0
M  V30 3 O 6.610136 0.255795 -15.627910 0
M  V30 4 C 9.849093 1.755495 -18.030538 0 CFG=2
M  V30 5 C 6.712216 7.048413 -21.739408 0 CFG=1
M  V30 6 C 9.076713 6.668443 -7.522582 0 CFG=2
M  V30 7 C 6.879892 1.782107 -13.853314 0 CFG=2
M  V30 8 C 8.234848 2.044777 -16.052093 0
M  V30 9 N 5.468229 6.988686 -20.969287 0
M  V30 10 N 8.289309 3.454668 -12.683691 0 CFG=2 CHG=1
M  V30 11 C 7.198895 4.063862 -14.941936 0
M  V30 12 C 7.774184 2.906580 -18.826972 0
M  V30 13 C 7.654632 5.927019 -21.294366 0
M  V30 14 C 8.045138 3.420117 -16.029145 0
M  V30 15 C 4.570054 7.917978 -21.652140 0
M  V30 16 C 9.009726 4.995625 -19.348881 0
M  V30 17 C 5.747017 7.307274 -19.562102 0 CFG=2
M  V30 18 O 9.295938 5.369283 -16.629744 0
M  V30 19 C 9.433701 8.142956 -7.439385 0
M  V30 20 F 7.062027 1.082510 -12.730990 0
M  V30 21 C 6.703890 6.234332 -18.991141 0
M  V30 22 C 11.869662 0.901237 -19.380783 0
M  V30 23 C 4.585874 7.499763 -23.129106 0 CFG=1
M  V30 24 C 7.055810 -0.643741 -16.630566 0
M  V30 25 C 8.012225 6.097021 -19.808099 0 CFG=2
M  V30 26 C 8.829146 1.857710 -19.169235 0
M  V30 27 F 11.432311 6.810657 -7.027574 0
M  V30 28 C 9.808257 5.889706 -8.603568 0 CFG=2
M  V30 29 C 8.692347 4.358221 -16.985713 0
M  V30 30 C 10.858425 0.616150 -18.262945 0
M  V30 31 C 7.598049 1.099571 -15.036358 0 CFG=2
M  V30 32 C 7.143920 3.277053 -13.613371 0 CFG=1
M  V30 33 C 4.464330 7.370618 -18.712027 0
M  V30 34 S 6.255865 6.933047 -23.482395 0
M  V30 35 C 8.386332 4.756136 -12.028712 0 CFG=1
M  V30 36 O 9.069746 1.350894 -16.929395 0
M  V30 37 C 10.424435 7.104913 -7.929008 0 CFG=1
M  V30 38 Cl 3.434827 6.169471 -23.416712 0
M  V30 39 C 8.653066 4.703026 -10.537365 0
M  V30 40 C 9.434875 4.289714 -12.994214 0
M  V30 41 H 8.707700 6.835872 -10.186153 0
M  V30 42 H 10.234837 6.169376 -10.670592 0
M  V30 43 H 10.444266 2.646635 -17.835652 0
M  V30 44 H 7.188778 8.019661 -21.593442 0
M  V30 45 H 8.969220 6.160324 -6.566599 0
M  V30 46 H 5.825163 1.693211 -14.048523 0
M  V30 47 H 7.483528 5.102084 -14.768490 0
M  V30 48 H 6.210864 4.147188 -15.361182 0
M  V30 49 H 7.243495 3.176125 -19.740699 0
M  V30 50 H 6.985159 2.530040 -18.177807 0
M  V30 51 H 7.184433 4.957221 -21.466117 0
M  V30 52 H 8.559844 5.949325 -21.902379 0
M  V30 53 H 3.559225 7.904119 -21.249314 0
M  V30 54 H 4.949729 8.935508 -21.546362 0
M  V30 55 H 9.929118 5.473194 -19.005159 0
M  V30 56 H 9.340982 4.414732 -20.209926 0
M  V30 57 H 6.234827 8.279006 -19.520502 0
M  V30 58 H 8.996929 8.805172 -8.183542 0
M  V30 59 H 9.580625 8.575307 -6.452016 0
M  V30 60 H 6.944412 6.485784 -17.957415 0
M  V30 61 H 6.174719 5.280848 -18.966170 0
M  V30 62 H 12.607602 0.101417 -19.447992 0
M  V30 63 H 12.407304 1.831419 -19.197471 0
M  V30 64 H 11.381791 0.978331 -20.351815 0
M  V30 65 H 4.306208 8.322796 -23.787412 0
M  V30 66 H 6.317276 -1.433961 -16.764103 0
M  V30 67 H 8.006698 -1.108742 -16.368816 0
M  V30 68 H 7.163402 -0.135950 -17.587891 0
M  V30 69 H 8.537869 7.049425 -19.718337 0
M  V30 70 H 8.350639 0.895969 -19.356713 0
M  V30 71 H 9.337758 2.128483 -20.094101 0
M  V30 72 H 10.234590 4.929573 -8.321116 0
M  V30 73 H 11.414506 0.444728 -17.341806 0
M  V30 74 H 10.332178 -0.316314 -18.471154 0
M  V30 75 H 8.401803 0.479923 -14.636466 0
M  V30 76 H 6.281778 3.647725 -13.055215 0
M  V30 77 H 4.705469 7.570087 -17.667771 0
M  V30 78 H 3.914005 6.430408 -18.742732 0
M  V30 79 H 3.795830 8.168576 -19.034966 0
M  V30 80 H 7.648953 5.477586 -12.378541 0
M  V30 81 H 7.711795 4.563057 -10.002977 0
M  V30 82 H 9.286852 3.841854 -10.320062 0
M  V30 83 H 10.279398 3.738890 -12.619281 0
M  V30 84 H 9.486339 4.670630 -14.007060 0
M  V30 85 H 8.467865 2.698297 -12.035006 0
M  V30 END ATOM
M  V30 BEGIN BOND
M  V30 1 1 9 5
M  V30 2 1 12 1
M  V30 3 1 13 5
M  V30 4 2 14 8
M  V30 5 1 14 11
M  V30 6 1 15 9
M  V30 7 1 16 1
M  V30 8 1 17 9
M  V30 9 1 19 6
M  V30 10 1 20 7
M  V30 11 1 21 17
M  V30 12 1 23 15
M  V30 13 1 24 3
M  V30 14 1 25 13
M  V30 15 1 25 16
M  V30 16 1 25 21
M  V30 17 1 26 4
M  V30 18 1 26 12
M  V30 19 1 28 2
M  V30 20 1 28 6
M  V30 21 1 29 1
M  V30 22 1 29 14
M  V30 23 2 29 18
M  V30 24 1 30 4
M  V30 25 1 30 22
M  V30 26 1 31 3
M  V30 27 1 31 7
M  V30 28 1 31 8
M  V30 29 1 32 7
M  V30 30 1 32 10
M  V30 31 1 32 11
M  V30 32 1 33 17
M  V30 33 1 34 5
M  V30 34 1 34 23
M  V30 35 1 35 10
M  V30 36 1 36 4
M  V30 37 1 36 8
M  V30 38 1 37 6
M  V30 39 1 37 19
M  V30 40 1 37 27 CFG=1
M  V30 41 1 37 28
M  V30 42 1 38 23
M  V30 43 1 39 2
M  V30 44 1 39 35
M  V30 45 1 40 10
M  V30 46 1 40 35
M  V30 47 1 41 2
M  V30 48 1 42 2
M  V30 49 1 4 43 CFG=1
M  V30 50 1 5 44 CFG=3
M  V30 51 1 6 45 CFG=1
M  V30 52 1 7 46 CFG=3
M  V30 53 1 47 11
M  V30 54 1 48 11
M  V30 55 1 49 12
M  V30 56 1 50 12
M  V30 57 1 51 13
M  V30 58 1 52 13
M  V30 59 1 53 15
M  V30 60 1 54 15
M  V30 61 1 55 16
M  V30 62 1 56 16
M  V30 63 1 17 57 CFG=3
M  V30 64 1 58 19
M  V30 65 1 59 19
M  V30 66 1 60 21
M  V30 67 1 61 21
M  V30 68 1 62 22
M  V30 69 1 63 22
M  V30 70 1 64 22
M  V30 71 1 23 65 CFG=3
M  V30 72 1 66 24
M  V30 73 1 67 24
M  V30 74 1 68 24
M  V30 75 1 25 69 CFG=3
M  V30 76 1 70 26
M  V30 77 1 71 26
M  V30 78 1 28 72 CFG=1
M  V30 79 1 73 30
M  V30 80 1 74 30
M  V30 81 1 31 75 CFG=1
M  V30 82 1 32 76 CFG=1
M  V30 83 1 77 33
M  V30 84 1 78 33
M  V30 85 1 79 33
M  V30 86 1 35 80 CFG=3
M  V30 87 1 81 39
M  V30 88 1 82 39
M  V30 89 1 83 40
M  V30 90 1 84 40
M  V30 91 1 10 85 CFG=1
M  V30 END BOND
M  V30 END CTAB
M  END
>  <i_epik_Tot_Q>  (1) 
1

>  <i_epik_Tot_abs_Q>  (1) 
1

>  <i_i_glide_confnum>  (1) 
56

>  <i_i_glide_lignum>  (1) 
64

>  <i_i_glide_posenum>  (1) 
151

>  <i_i_glide_rotatable_bonds>  (1) 
8

>  <i_lp_mmshare_version>  (1) 
72125

>  <i_m_source_file_index>  (1) 
25

>  <i_f3d_flags>  (1) 
0

>  <num_sample>  (1) 
50

>  <b_lp_Chiralities_Consistent>  (1) 
1

>  <r_epik_Charging_Adjusted_Penalty>  (1) 
0.63439585009227506

>  <r_epik_Ionization_Penalty>  (1) 
0.31719815469996288

>  <r_epik_Ionization_Penalty_Charging>  (1) 
0.31719792504613759

>  <r_epik_Ionization_Penalty_Neutral>  (1) 
2.2965382529121371e-07

>  <r_epik_State_Penalty>  (1) 
0.31719792504613753

>  <r_glide_ring_energy>  (1) 
0

>  <r_i_docking_score>  (1) 
-5.0805123323180474

>  <r_i_glide_ecoul>  (1) 
-4.1769251450553977

>  <r_i_glide_eff_state_penalty>  (1) 
0.31719792504613753

>  <r_i_glide_einternal>  (1) 
17.543773776295776

>  <r_i_glide_emodel>  (1) 
-38.755629722331527

>  <r_i_glide_emodel_strain>  (1) 
0.89166975044258834

>  <r_i_glide_energy>  (1) 
-39.356624950640949

>  <r_i_glide_erotb>  (1) 
0.23102689348128655

>  <r_i_glide_esite>  (1) 
0

>  <r_i_glide_evdw>  (1) 
-35.17969980558555

>  <r_i_glide_gscore>  (1) 
-5.3977102573641851

>  <r_i_glide_gscore_strain>  (1) 
0

>  <r_i_glide_hbond>  (1) 
0

>  <r_i_glide_ligand_efficiency>  (1) 
-0.1270128083079512

>  <r_i_glide_ligand_efficiency_ln>  (1) 
-1.0835237676798239

>  <r_i_glide_ligand_efficiency_sa>  (1) 
-0.4343776942529094

>  <r_i_glide_lipo>  (1) 
-2.0064699179898597

>  <r_i_glide_metal>  (1) 
-0

>  <r_i_glide_rewards>  (1) 
-1.2367434708180252

>  <r_lp_Energy>  (1) 
54.516613999999997

>  <s_epik_Chemistry_Notes>  (1) 
This compound contains an acetal/aminal-like group ( X-CH(R)-Y where X, Y are N, S, or O) that may be acid/base labile, releasing an aldehyde.

>  <s_epik_cmdline>  (1) 
J2VwaWtfcHl0aG9uJywgJy1waHQnLCAnMS4wJywgJy1waCcsICc3LjQnLCAnLXRuJywgJzgnLCAnLW1hJywgJzUwMCcsICctaW1hZScsICc8aW5maWxlLm1hZT4nLCAnLW9tYWUnLCAnPG91dGZpbGUubWFlPic=

>  <s_epik_input>  (1) 
UzFbQ0BASF0oQ2wpW0NIMl1OKFtDQEhdMTIpW0NAQEhdKFtDSDNdKVtDSDJdW0NASF0oW0NIMl0yKVtDSDJdTihbQ0gyXVtDSDJdW0NAQEhdKE8zKVtDSDJdW0NIM10pQyg9TylDKD1DMzQpW0NIMl1bQ0BASF0oW0NASF0oRilbQ0BIXTRPW0NIM10pTjVbQ0BIXShbQ0gyXTUpW0NIMl1bQ0gyXVtDQEBIXTZbQ0hdKFtDSDJdNylDNjdG

>  <s_glide_docking_method>  (1) 
confgen

>  <s_i_glide_gridfile>  (1) 
gpcr_drd2_6luq_protein_autoprepared_prepared

>  <s_lp_Force_Field>  (1) 
S-OPLS

>  <s_lp_Variant>  (1) 
DiffSBDD_24_num_sample_50-1

>  <s_m_source_file>  (1) 
generated__ligand_DiffSBDD_2026-05-06_prepared.sdf

>  <GenAI_Model>  (1) 
DiffSBDD

>  <Protein>  (1) 
generic_title2

$$$$
DiffSBDD_38_num_sample_50
     RDKit          3D

  0  0  0  0  0  0  0  0  0  0999 V3000
M  V30 BEGIN CTAB
M  V30 COUNTS 60 62 0 0 1
M  V30 BEGIN ATOM
M  V30 1 C 12.262226 4.592211 -17.651492 0
M  V30 2 O 12.438894 6.222640 -15.892067 0
M  V30 3 S 7.434920 2.571364 -16.099447 0
M  V30 4 F 11.248789 6.086524 -7.148559 0
M  V30 5 C 9.432244 5.369470 -9.068563 0 CFG=1
M  V30 6 C 11.597198 6.306757 -19.470865 0
M  V30 7 C 10.114399 7.445671 -10.270144 0
M  V30 8 C 8.607095 5.484409 -13.917243 0
M  V30 9 C 11.589213 4.825569 -19.038927 0 CFG=2
M  V30 10 C 8.234944 4.030912 -15.887530 0
M  V30 11 N 10.386470 5.369271 -16.265168 0
M  V30 12 C 8.737491 5.799029 -11.389623 0
M  V30 13 C 6.413235 5.507287 -15.114971 0
M  V30 14 C 11.700491 5.464753 -16.514874 0
M  V30 15 F 12.157416 7.616073 -8.337419 0
M  V30 16 O 8.127957 5.218599 -18.537685 0
M  V30 17 C 7.932544 5.196226 -12.553153 0 CFG=2
M  V30 18 O 8.799484 4.979901 -10.272101 0
M  V30 19 C 7.823757 3.676322 -12.338191 0
M  V30 20 O 11.063705 8.891546 -6.280181 0
M  V30 21 C 9.370612 6.989012 -11.407167 0
M  V30 22 N 9.034836 8.356209 -7.079636 0
M  V30 23 C 6.506720 5.802045 -12.583384 0
M  V30 24 C 9.142492 4.619666 -18.178735 0
M  V30 25 C 10.355903 8.210345 -7.020356 0
M  V30 26 C 10.186396 4.181186 -19.209672 0
M  V30 27 C 10.166039 6.712415 -9.154381 0
M  V30 28 C 9.508573 4.296953 -16.718208 0 CFG=2
M  V30 29 N 7.786025 5.005812 -15.035165 0
M  V30 30 C 5.682423 5.284411 -13.782443 0
M  V30 31 N 8.472647 5.369339 -8.010884 0
M  V30 32 C 10.980514 7.137630 -7.925676 0
M  V30 33 H 12.219463 3.539687 -17.368792 0
M  V30 34 H 13.325263 4.820392 -17.739595 0
M  V30 35 H 10.182754 4.606906 -8.857881 0
M  V30 36 H 10.933418 6.919303 -18.860326 0
M  V30 37 H 12.598751 6.732331 -19.399721 0
M  V30 38 H 11.271488 6.411760 -20.506015 0
M  V30 39 H 10.643491 8.385789 -10.318945 0
M  V30 40 H 8.634845 6.564008 -14.038577 0
M  V30 41 H 9.623271 5.087785 -13.916752 0
M  V30 42 H 12.227172 4.309231 -19.757027 0
M  V30 43 H 10.012646 5.988050 -15.561499 0
M  V30 44 H 6.464197 6.576048 -15.325745 0
M  V30 45 H 5.855849 5.067214 -15.938882 0
M  V30 46 H 7.386860 3.142652 -13.175923 0
M  V30 47 H 8.796685 3.221120 -12.145682 0
M  V30 48 H 7.170689 3.475451 -11.491915 0
M  V30 49 H 9.323141 7.607455 -12.289560 0
M  V30 50 H 8.577837 9.041325 -6.500838 0
M  V30 51 H 8.486131 7.769343 -7.700349 0
M  V30 52 H 5.982431 5.587238 -11.650557 0
M  V30 53 H 6.573302 6.889528 -12.641353 0
M  V30 54 H 10.275825 3.096553 -19.145492 0
M  V30 55 H 10.076769 3.365782 -16.695298 0
M  V30 56 H 4.712518 5.774322 -13.818960 0
M  V30 57 H 5.461113 4.224221 -13.657334 0
M  V30 58 H 7.725762 6.031741 -8.205930 0
M  V30 59 H 8.010930 4.473861 -7.950824 0
M  V30 60 H 9.801348 4.394511 -20.207029 0
M  V30 END ATOM
M  V30 BEGIN BOND
M  V30 1 1 9 1
M  V30 2 1 9 6
M  V30 3 2 10 3
M  V30 4 1 14 1
M  V30 5 2 14 2
M  V30 6 1 14 11
M  V30 7 1 17 8
M  V30 8 1 17 12
M  V30 9 1 18 5
M  V30 10 1 18 12
M  V30 11 1 17 19 CFG=1
M  V30 12 1 21 7
M  V30 13 2 21 12
M  V30 14 1 23 17
M  V30 15 2 24 16
M  V30 16 2 25 20
M  V30 17 1 25 22
M  V30 18 1 26 9
M  V30 19 1 26 24
M  V30 20 1 27 5
M  V30 21 2 27 7
M  V30 22 1 28 10
M  V30 23 1 28 11
M  V30 24 1 28 24
M  V30 25 1 29 8
M  V30 26 1 29 10
M  V30 27 1 29 13
M  V30 28 1 30 13
M  V30 29 1 30 23
M  V30 30 1 31 5
M  V30 31 1 32 4
M  V30 32 1 32 15
M  V30 33 1 32 25
M  V30 34 1 32 27
M  V30 35 1 33 1
M  V30 36 1 34 1
M  V30 37 1 5 35 CFG=1
M  V30 38 1 36 6
M  V30 39 1 37 6
M  V30 40 1 38 6
M  V30 41 1 39 7
M  V30 42 1 40 8
M  V30 43 1 41 8
M  V30 44 1 9 42 CFG=3
M  V30 45 1 43 11
M  V30 46 1 44 13
M  V30 47 1 45 13
M  V30 48 1 46 19
M  V30 49 1 47 19
M  V30 50 1 48 19
M  V30 51 1 49 21
M  V30 52 1 50 22
M  V30 53 1 51 22
M  V30 54 1 52 23
M  V30 55 1 53 23
M  V30 56 1 54 26
M  V30 57 1 28 55 CFG=3
M  V30 58 1 56 30
M  V30 59 1 57 30
M  V30 60 1 58 31
M  V30 61 1 59 31
M  V30 62 1 60 26
M  V30 END BOND
M  V30 END CTAB
M  END
>  <i_epik_Tot_Q>  (1) 
0

>  <i_epik_Tot_abs_Q>  (1) 
0

>  <i_i_glide_confnum>  (1) 
50

>  <i_i_glide_lignum>  (1) 
95

>  <i_i_glide_posenum>  (1) 
298

>  <i_i_glide_rotatable_bonds>  (1) 
5

>  <i_lp_mmshare_version>  (1) 
72125

>  <i_m_source_file_index>  (1) 
39

>  <i_f3d_flags>  (1) 
0

>  <num_sample>  (1) 
50

>  <b_lp_Chiralities_Consistent>  (1) 
1

>  <r_epik_Charging_Adjusted_Penalty>  (1) 
0.0043173356697657605

>  <r_epik_Ionization_Penalty>  (1) 
2.5101429145755949

>  <r_epik_Ionization_Penalty_Charging>  (1) 
0

>  <r_epik_Ionization_Penalty_Neutral>  (1) 
2.5101429145755949

>  <r_epik_State_Penalty>  (1) 
0.0043173356697657605

>  <r_glide_ring_energy>  (1) 
0.02445303134611947

>  <r_i_docking_score>  (1) 
-5.0558033598982659

>  <r_i_glide_ecoul>  (1) 
-2.7787415142999556

>  <r_i_glide_eff_state_penalty>  (1) 
0.0043173356697657605

>  <r_i_glide_einternal>  (1) 
12.34308608995741

>  <r_i_glide_emodel>  (1) 
-48.782177704623706

>  <r_i_glide_emodel_strain>  (1) 
0.085887999467573195

>  <r_i_glide_energy>  (1) 
-41.611036011957466

>  <r_i_glide_erotb>  (1) 
0.36503894659470715

>  <r_i_glide_esite>  (1) 
-0.087178801864229549

>  <r_i_glide_evdw>  (1) 
-38.832294497657514

>  <r_i_glide_gscore>  (1) 
-5.060120695568032

>  <r_i_glide_gscore_strain>  (1) 
0

>  <r_i_glide_hbond>  (1) 
-0.25247457115002397

>  <r_i_glide_ligand_efficiency>  (1) 
-0.15799385499682081

>  <r_i_glide_ligand_efficiency_ln>  (1) 
-1.1321321882757565

>  <r_i_glide_ligand_efficiency_sa>  (1) 
-0.50159922325292916

>  <r_i_glide_lipo>  (1) 
-0.72006910961223869

>  <r_i_glide_metal>  (1) 
-0

>  <r_i_glide_rewards>  (1) 
-2.0070112075083784

>  <r_lp_Energy>  (1) 
66.989650999999995

>  <r_lp_tautomer_probability>  (1) 
0.99999998000000001

>  <s_epik_Chemistry_Notes>  (1) 
This compound contains an acetal/aminal-like group ( X-CH(R)-Y where X, Y are N, S, or O) that may be acid/base labile, releasing an aldehyde.

>  <s_epik_cmdline>  (1) 
J2VwaWtfcHl0aG9uJywgJy1waHQnLCAnMS4wJywgJy1waCcsICc3LjQnLCAnLXRuJywgJzgnLCAnLW1hJywgJzUwMCcsICctaW1hZScsICc8aW5maWxlLm1hZT4nLCAnLW9tYWUnLCAnPG91dGZpbGUubWFlPic=

>  <s_epik_input>  (1) 
W0NIM11bQ0BASF0xW0NIMl1DKD1PKVtOSF1bQ0BIXShDKD1PKVtDSDJdMSlDKD1TKU4oW0NIMl1bQ0gyXVtDSDJdMilbQ0gyXVtDQEBdMihbQ0gzXSlDKE9bQ0BASF0zW05IMl0pPVtDSF1bQ0hdPUMzQyhGKShGKUMoPU8pW05IMl0=

>  <s_glide_docking_method>  (1) 
confgen

>  <s_i_glide_gridfile>  (1) 
gpcr_drd2_6luq_protein_autoprepared_prepared

>  <s_lp_Force_Field>  (1) 
S-OPLS

>  <s_lp_Variant>  (1) 
DiffSBDD_38_num_sample_50-3

>  <s_m_source_file>  (1) 
generated__ligand_DiffSBDD_2026-05-06_prepared.sdf

>  <GenAI_Model>  (1) 
DiffSBDD

>  <Protein>  (1) 
generic_title2

$$$$
DiffSBDD_6_num_sample_50
     RDKit          3D

  0  0  0  0  0  0  0  0  0  0999 V3000
M  V30 BEGIN CTAB
M  V30 COUNTS 43 43 0 0 1
M  V30 BEGIN ATOM
M  V30 1 C 6.545410 5.832100 -17.311061 0
M  V30 2 C 3.360476 7.632069 -17.093646 0
M  V30 3 O 5.945049 -0.002758 -14.409001 0
M  V30 4 C 8.048211 6.146716 -12.100756 0 CFG=1
M  V30 5 O 8.018577 1.515877 -15.336040 0
M  V30 6 C 6.571270 0.960525 -13.577614 0
M  V30 7 O 7.422928 4.876695 -15.344048 0
M  V30 8 C 9.376449 6.509209 -11.410892 0
M  V30 9 C 4.618335 7.014034 -17.600475 0
M  V30 10 O 8.590902 4.614890 -17.293364 0
M  V30 11 C 7.789064 3.276422 -13.684499 0 CFG=2
M  V30 12 C 7.625424 5.047869 -16.660418 0
M  V30 13 N 7.511569 4.828816 -11.700909 0
M  V30 14 C 6.777684 4.786118 -10.432751 0
M  V30 15 N 5.469128 6.342217 -16.722740 0
M  V30 16 C 7.089149 2.121040 -14.458309 0 CFG=1
M  V30 17 F 9.378401 6.286916 -10.096896 0
M  V30 18 S 6.617889 6.161609 -19.024202 0
M  V30 19 F 10.368806 5.819483 -11.970003 0
M  V30 20 O 5.434840 5.149377 -10.691667 0
M  V30 21 C 5.092368 7.012949 -18.897095 0
M  V30 22 O 7.075874 7.153947 -11.891667 0
M  V30 23 C 6.828605 4.062536 -12.751988 0
M  V30 24 N 8.454072 4.169301 -14.633484 0
M  V30 25 H 2.830272 8.169299 -17.879665 0
M  V30 26 H 2.691809 6.872136 -16.691668 0
M  V30 27 H 3.569306 8.338620 -16.291663 0
M  V30 28 H 5.660172 -0.752499 -13.891667 0
M  V30 29 H 8.239954 6.158987 -13.170207 0
M  V30 30 H 7.612585 0.709909 -15.630085 0
M  V30 31 H 7.385807 0.494583 -13.020208 0
M  V30 32 H 5.834841 1.301334 -12.851314 0
M  V30 33 H 9.614520 7.562039 -11.562276 0
M  V30 34 H 8.573001 2.828405 -13.071575 0
M  V30 35 H 7.213806 5.441951 -9.680620 0
M  V30 36 H 6.786091 3.775579 -10.024415 0
M  V30 37 H 6.265922 2.517111 -15.049680 0
M  V30 38 H 5.032378 5.275693 -9.839398 0
M  V30 39 H 4.643146 7.456497 -19.772835 0
M  V30 40 H 7.034839 7.369298 -10.950640 0
M  V30 41 H 6.204441 3.322912 -12.254598 0
M  V30 42 H 6.129523 4.700573 -13.294223 0
M  V30 43 H 8.888131 3.590426 -15.344019 0
M  V30 END ATOM
M  V30 BEGIN BOND
M  V30 1 1 6 3
M  V30 2 1 8 4
M  V30 3 1 9 2
M  V30 4 1 12 1
M  V30 5 1 12 7
M  V30 6 2 12 10
M  V30 7 1 13 4
M  V30 8 1 14 13
M  V30 9 2 15 1
M  V30 10 1 15 9
M  V30 11 1 16 5
M  V30 12 1 16 6
M  V30 13 1 16 11
M  V30 14 1 17 8
M  V30 15 1 18 1
M  V30 16 1 19 8
M  V30 17 1 20 14
M  V30 18 2 21 9
M  V30 19 1 21 18
M  V30 20 1 22 4
M  V30 21 1 23 11
M  V30 22 1 23 13
M  V30 23 1 24 7
M  V30 24 1 24 11
M  V30 25 1 25 2
M  V30 26 1 26 2
M  V30 27 1 27 2
M  V30 28 1 28 3
M  V30 29 1 4 29 CFG=3
M  V30 30 1 30 5
M  V30 31 1 31 6
M  V30 32 1 32 6
M  V30 33 1 33 8
M  V30 34 1 11 34 CFG=1
M  V30 35 1 35 14
M  V30 36 1 36 14
M  V30 37 1 16 37 CFG=3
M  V30 38 1 38 20
M  V30 39 1 39 21
M  V30 40 1 40 22
M  V30 41 1 41 23
M  V30 42 1 42 23
M  V30 43 1 43 24
M  V30 END BOND
M  V30 END CTAB
M  END
>  <i_epik_Tot_Q>  (1) 
0

>  <i_epik_Tot_abs_Q>  (1) 
0

>  <i_i_glide_confnum>  (1) 
1905

>  <i_i_glide_lignum>  (1) 
15

>  <i_i_glide_posenum>  (1) 
79

>  <i_i_glide_rotatable_bonds>  (1) 
15

>  <i_lp_mmshare_version>  (1) 
72125

>  <i_m_source_file_index>  (1) 
7

>  <i_f3d_flags>  (1) 
0

>  <num_sample>  (1) 
50

>  <b_lp_Chiralities_Consistent>  (1) 
1

>  <r_epik_Charging_Adjusted_Penalty>  (1) 
0

>  <r_epik_Ionization_Penalty>  (1) 
3.5581637296787179e-06

>  <r_epik_Ionization_Penalty_Charging>  (1) 
0

>  <r_epik_Ionization_Penalty_Neutral>  (1) 
3.5581637296787179e-06

>  <r_epik_State_Penalty>  (1) 
-0

>  <r_glide_ring_energy>  (1) 
0

>  <r_i_docking_score>  (1) 
-5.0482509030302136

>  <r_i_glide_ecoul>  (1) 
-9.8546325032049609

>  <r_i_glide_eff_state_penalty>  (1) 
-0

>  <r_i_glide_einternal>  (1) 
13.461897246375539

>  <r_i_glide_emodel>  (1) 
-43.698135357066725

>  <r_i_glide_emodel_strain>  (1) 
0.69739186668441988

>  <r_i_glide_energy>  (1) 
-36.28986798339632

>  <r_i_glide_erotb>  (1) 
1.3996290448132942

>  <r_i_glide_esite>  (1) 
-0.19242068262807246

>  <r_i_glide_evdw>  (1) 
-26.435235480191363

>  <r_i_glide_gscore>  (1) 
-5.0482509030302136

>  <r_i_glide_gscore_strain>  (1) 
0

>  <r_i_glide_hbond>  (1) 
-0.55056565330671692

>  <r_i_glide_ligand_efficiency>  (1) 
-0.21034378762625891

>  <r_i_glide_ligand_efficiency_ln>  (1) 
-1.2082780902346102

>  <r_i_glide_ligand_efficiency_sa>  (1) 
-0.60673647464160929

>  <r_i_glide_lipo>  (1) 
-1.6055088281915508

>  <r_i_glide_metal>  (1) 
-0

>  <r_i_glide_rewards>  (1) 
-1.2994281342268552

>  <r_lp_Energy>  (1) 
11.251940999999999

>  <r_lp_tautomer_probability>  (1) 
1

>  <s_epik_Chemistry_Notes>  (1) 
This compound contains an acetal/aminal-like group ( X-CH(R)-Y where X, Y are N, S, or O) that may be acid/base labile, releasing an aldehyde. This compound has a N-S or N-O group and may undergo hydrolysis at high or low pH.

>  <s_epik_cmdline>  (1) 
J2VwaWtfcHl0aG9uJywgJy1waHQnLCAnMS4wJywgJy1waCcsICc3LjQnLCAnLXRuJywgJzgnLCAnLW1hJywgJzUwMCcsICctaW1hZScsICc8aW5maWxlLm1hZT4nLCAnLW9tYWUnLCAnPG91dGZpbGUubWFlPic=

>  <s_epik_input>  (1) 
czFbY0hdYyhbQ0gzXSluYzFDKD1PKU9bTkhdW0NASF0oW0NAQEhdKFtPSF0pW0NIMl1bT0hdKVtDSDJdTihbQ0BIXShbQ0hdKEYpRilbT0hdKVtDSDJdW09IXQ==

>  <s_glide_docking_method>  (1) 
confgen

>  <s_i_glide_gridfile>  (1) 
gpcr_drd2_6luq_protein_autoprepared_prepared

>  <s_lp_Force_Field>  (1) 
S-OPLS

>  <s_lp_Variant>  (1) 
DiffSBDD_6_num_sample_50-1

>  <s_m_source_file>  (1) 
generated__ligand_DiffSBDD_2026-05-06_prepared.sdf

>  <GenAI_Model>  (1) 
DiffSBDD

>  <Protein>  (1) 
generic_title2

$$$$
DiffSBDD_39_num_sample_50
     RDKit          3D

  0  0  0  0  0  0  0  0  0  0999 V3000
M  V30 BEGIN CTAB
M  V30 COUNTS 60 63 0 0 1
M  V30 BEGIN ATOM
M  V30 1 C 10.625543 6.515386 -9.125044 0
M  V30 2 C 9.034854 7.945734 -7.740953 0
M  V30 3 C 8.136101 5.234233 -13.238427 0 CFG=1
M  V30 4 O 11.257544 5.961166 -6.498943 0
M  V30 5 C 6.897633 5.923315 -13.928676 0 CFG=2
M  V30 6 C 7.363647 7.261261 -14.532068 0
M  V30 7 C 9.685349 5.644763 -11.363094 0 CFG=1
M  V30 8 O 11.744936 10.169093 -4.868006 0
M  V30 9 C 7.812206 3.266109 -15.852353 0
M  V30 10 O 11.162420 6.969664 -12.613670 0
M  V30 11 C 11.706832 7.937948 -4.541145 0
M  V30 12 C 9.621748 6.682942 -10.263207 0
M  V30 13 N 7.276790 4.489840 -16.004127 0
M  V30 14 C 12.399892 9.235504 -2.705832 0
M  V30 15 O 8.635975 2.864053 -16.697537 0
M  V30 16 C 10.492238 7.602653 -8.044383 0 CFG=1
M  V30 17 N 8.926673 6.244469 -12.500369 0
M  V30 18 C 5.207987 5.795111 -15.954344 0
M  V30 19 C 11.958902 9.112264 -4.010918 0
M  V30 20 C 5.822087 6.233408 -12.861175 0
M  V30 21 C 12.585290 8.071620 -1.939928 0
M  V30 22 C 11.834759 6.725559 -3.829272 0
M  V30 23 C 10.294893 6.100369 -12.608661 0
M  V30 24 F 13.046856 8.169611 -0.691713 0
M  V30 25 C 12.288552 6.798661 -2.497671 0
M  V30 26 C 11.258366 9.541190 -6.129877 0
M  V30 27 O 7.709303 4.172667 -12.396179 0
M  V30 28 C 6.274100 5.054115 -15.083786 0 CFG=2
M  V30 29 O 7.478509 2.567626 -14.867951 0 CHG=-1
M  V30 30 C 11.060898 7.149650 -6.706279 0
M  V30 31 C 6.406816 7.916628 -15.491929 0
M  V30 32 N 11.316648 8.115144 -5.792871 0
M  V30 33 C 5.447650 7.260623 -16.128289 0
M  V30 34 H 10.474333 5.513422 -8.722246 0
M  V30 35 H 11.646220 6.569776 -9.491985 0
M  V30 36 H 8.829085 8.349028 -6.751179 0
M  V30 37 H 8.651218 8.678408 -8.450907 0
M  V30 38 H 8.440909 7.031222 -7.774849 0
M  V30 39 H 8.797976 4.804780 -13.990959 0
M  V30 40 H 7.644010 7.996717 -13.776835 0
M  V30 41 H 8.234695 6.979282 -15.091626 0
M  V30 42 H 9.739635 4.581973 -11.133357 0
M  V30 43 H 9.692030 7.703066 -10.652624 0
M  V30 44 H 8.628849 6.570675 -9.864194 0
M  V30 45 H 7.559852 5.048563 -16.793397 0
M  V30 46 H 12.607628 10.196306 -2.291516 0
M  V30 47 H 11.002248 8.484449 -8.425599 0
M  V30 48 H 4.235147 5.769302 -15.485945 0
M  V30 49 H 5.112785 5.369633 -16.953167 0
M  V30 50 H 5.034746 6.865225 -13.261598 0
M  V30 51 H 5.354069 5.323719 -12.484562 0
M  V30 52 H 6.246823 6.763953 -12.007010 0
M  V30 53 H 11.607414 5.772616 -4.274919 0
M  V30 54 H 12.417751 5.898132 -1.912813 0
M  V30 55 H 11.939597 9.771064 -6.949580 0
M  V30 56 H 10.235019 9.849393 -6.310123 0
M  V30 57 H 7.562118 3.418102 -12.962372 0
M  V30 58 H 5.753575 4.223273 -14.608533 0
M  V30 59 H 6.537706 8.968877 -15.662189 0
M  V30 60 H 4.792688 7.786447 -16.807539 0
M  V30 END ATOM
M  V30 BEGIN BOND
M  V30 1 1 5 3
M  V30 2 1 6 5
M  V30 3 1 12 1
M  V30 4 1 12 7
M  V30 5 1 13 9
M  V30 6 2 15 9
M  V30 7 1 16 1
M  V30 8 1 16 2
M  V30 9 1 17 3
M  V30 10 1 17 7
M  V30 11 1 19 8
M  V30 12 2 19 11
M  V30 13 1 19 14
M  V30 14 1 5 20 CFG=1
M  V30 15 2 21 14
M  V30 16 1 22 11
M  V30 17 1 23 7
M  V30 18 2 23 10
M  V30 19 1 23 17
M  V30 20 1 24 21
M  V30 21 1 25 21
M  V30 22 2 25 22
M  V30 23 1 26 8
M  V30 24 1 27 3
M  V30 25 1 28 5
M  V30 26 1 28 13
M  V30 27 1 28 18
M  V30 28 1 29 9
M  V30 29 2 30 4
M  V30 30 1 30 16
M  V30 31 1 31 6
M  V30 32 1 32 11
M  V30 33 1 32 26
M  V30 34 1 32 30
M  V30 35 1 33 18
M  V30 36 2 33 31
M  V30 37 1 34 1
M  V30 38 1 35 1
M  V30 39 1 36 2
M  V30 40 1 37 2
M  V30 41 1 38 2
M  V30 42 1 3 39 CFG=3
M  V30 43 1 40 6
M  V30 44 1 41 6
M  V30 45 1 7 42 CFG=1
M  V30 46 1 43 12
M  V30 47 1 44 12
M  V30 48 1 45 13
M  V30 49 1 46 14
M  V30 50 1 16 47 CFG=3
M  V30 51 1 48 18
M  V30 52 1 49 18
M  V30 53 1 50 20
M  V30 54 1 51 20
M  V30 55 1 52 20
M  V30 56 1 53 22
M  V30 57 1 54 25
M  V30 58 1 55 26
M  V30 59 1 56 26
M  V30 60 1 57 27
M  V30 61 1 28 58 CFG=1
M  V30 62 1 59 31
M  V30 63 1 60 33
M  V30 END BOND
M  V30 END CTAB
M  END
>  <i_epik_Tot_Q>  (1) 
-1

>  <i_epik_Tot_abs_Q>  (1) 
1

>  <i_i_glide_confnum>  (1) 
58

>  <i_i_glide_lignum>  (1) 
97

>  <i_i_glide_posenum>  (1) 
249

>  <i_i_glide_rotatable_bonds>  (1) 
10

>  <i_lp_mmshare_version>  (1) 
72125

>  <i_m_source_file_index>  (1) 
40

>  <i_f3d_flags>  (1) 
0

>  <num_sample>  (1) 
50

>  <b_lp_Chiralities_Consistent>  (1) 
1

>  <r_epik_Charging_Adjusted_Penalty>  (1) 
0.003396760876195394

>  <r_epik_Ionization_Penalty>  (1) 
0.00096209118661649666

>  <r_epik_Ionization_Penalty_Charging>  (1) 
0.00096096227606769398

>  <r_epik_Ionization_Penalty_Neutral>  (1) 
1.1289105488026586e-06

>  <r_epik_State_Penalty>  (1) 
0.0024357986001277

>  <r_glide_ring_energy>  (1) 
0

>  <r_i_docking_score>  (1) 
-5.0333670918035134

>  <r_i_glide_ecoul>  (1) 
-1.256290854403062

>  <r_i_glide_eff_state_penalty>  (1) 
0.0024357986001277

>  <r_i_glide_einternal>  (1) 
11.53614765475227

>  <r_i_glide_emodel>  (1) 
-19.757081692585771

>  <r_i_glide_emodel_strain>  (1) 
2.9067266898364892

>  <r_i_glide_energy>  (1) 
-21.873891860124527

>  <r_i_glide_erotb>  (1) 
0.66448012662833866

>  <r_i_glide_esite>  (1) 
-0.0051393234444454513

>  <r_i_glide_evdw>  (1) 
-20.617601005721465

>  <r_i_glide_gscore>  (1) 
-5.0358028904036409

>  <r_i_glide_gscore_strain>  (1) 
0

>  <r_i_glide_hbond>  (1) 
0

>  <r_i_glide_ligand_efficiency>  (1) 
-0.15252627550919737

>  <r_i_glide_ligand_efficiency_ln>  (1) 
-1.1193947798370751

>  <r_i_glide_ligand_efficiency_sa>  (1) 
-0.4892332649221523

>  <r_i_glide_lipo>  (1) 
-2.4151029966520752

>  <r_i_glide_metal>  (1) 
-0

>  <r_i_glide_rewards>  (1) 
-2.0607170184889267

>  <r_lp_Energy>  (1) 
30.570542999999997

>  <r_lp_tautomer_probability>  (1) 
1

>  <s_epik_Chemistry_Notes>  (1) 
This compound contains an acetal/aminal-like group ( X-CH(R)-Y where X, Y are N, S, or O) that may be acid/base labile, releasing an aldehyde.

>  <s_epik_cmdline>  (1) 
J2VwaWtfcHl0aG9uJywgJy1waHQnLCAnMS4wJywgJy1waCcsICc3LjQnLCAnLXRuJywgJzgnLCAnLW1hJywgJzUwMCcsICctaW1hZScsICc8aW5maWxlLm1hZT4nLCAnLW9tYWUnLCAnPG91dGZpbGUubWFlPic=

>  <s_epik_input>  (1) 
W2NIXTFbY0hdYyhGKVtjSF1jKGMxMilPW0NIMl1OMkMoPU8pW0NASF0oW0NIM10pW0NIMl1bQ0gyXVtDQEhdM04oQzM9TylbQ0BASF0oW09IXSlbQ0BAXTQoW0NIM10pW0NIMl1bQ0hdPVtDSF1bQ0gyXVtDQEhdNFtOSF1DKD1PKVtPSF0=

>  <s_glide_docking_method>  (1) 
confgen

>  <s_i_glide_gridfile>  (1) 
gpcr_drd2_6luq_protein_autoprepared_prepared

>  <s_lp_Force_Field>  (1) 
S-OPLS

>  <s_lp_Variant>  (1) 
DiffSBDD_39_num_sample_50-1

>  <s_m_source_file>  (1) 
generated__ligand_DiffSBDD_2026-05-06_prepared.sdf

>  <GenAI_Model>  (1) 
DiffSBDD

>  <Protein>  (1) 
generic_title2

$$$$
DiffSBDD_40_num_sample_50
     RDKit          3D

  0  0  0  0  0  0  0  0  0  0999 V3000
M  V30 BEGIN CTAB
M  V30 COUNTS 79 82 0 0 1
M  V30 BEGIN ATOM
M  V30 1 C 10.223386 6.534454 -8.556950 0 CFG=1
M  V30 2 S 7.385306 3.040257 -16.651564 0
M  V30 3 C 9.163462 2.991793 -12.128934 0
M  V30 4 C 12.378715 8.760369 -8.790500 0 CFG=1
M  V30 5 C 8.394620 3.914591 -12.730736 0
M  V30 6 C 10.833632 9.946835 -5.171431 0
M  V30 7 C 10.567601 7.592441 -7.462994 0 CFG=2
M  V30 8 C 11.325781 8.933623 -4.439952 0
M  V30 9 C 12.051282 7.953206 -7.561169 0
M  V30 10 C 8.865937 5.827977 -8.422078 0
M  V30 11 C 9.314181 4.944287 -16.461092 0
M  V30 12 C 12.196990 9.234118 -3.243479 0 CFG=1
M  V30 13 C 8.248615 3.939837 -14.260168 0 CFG=1
M  V30 14 C 11.536438 6.541502 -4.039921 0
M  V30 15 C 12.138596 8.139108 -2.180282 0 CFG=2
M  V30 16 C 11.034921 7.533475 -4.807365 0
M  V30 17 C 7.628771 4.990827 -11.922103 0 CFG=1
M  V30 18 C 8.058289 4.599313 -17.280225 0 CFG=2
M  V30 19 S 5.834501 7.080862 -11.891671 0
M  V30 20 C 13.178123 8.169325 -9.863207 0
M  V30 21 F 13.026293 8.396290 -1.221003 0
M  V30 22 C 10.147514 7.182694 -6.022296 0
M  V30 23 C 12.386972 6.765916 -2.799317 0
M  V30 24 C 6.941735 3.549345 -14.942726 0
M  V30 25 F 13.434438 9.369883 -3.699503 0
M  V30 26 O 13.433187 8.569312 -10.997870 0
M  V30 27 O 8.408719 5.571618 -10.858464 0
M  V30 28 O 10.214463 7.193797 -9.808194 0
M  V30 29 C 7.170741 6.227032 -12.724784 0
M  V30 30 C 5.171039 5.671406 -20.760312 0
M  V30 31 N 5.475466 7.093405 -18.122441 0
M  V30 32 C 8.470437 4.909045 -9.588510 0
M  V30 33 N 6.487555 6.368603 -16.264623 0
M  V30 34 O 13.834781 8.569289 -8.843444 0
M  V30 35 C 6.354365 6.138767 -18.564409 0
M  V30 36 C 9.084467 5.070436 -14.942667 0
M  V30 37 C 6.989520 5.680863 -17.408368 0
M  V30 38 C 5.596342 7.175240 -16.818782 0
M  V30 39 C 6.503944 5.759837 -20.003963 0
M  V30 40 H 10.995930 5.769640 -8.570726 0
M  V30 41 H 9.692215 2.245464 -12.691677 0
M  V30 42 H 9.273509 2.968917 -11.077464 0
M  V30 43 H 12.073678 9.794653 -8.868158 0
M  V30 44 H 11.046587 10.970941 -4.910906 0
M  V30 45 H 10.231850 9.769042 -6.035452 0
M  V30 46 H 9.991241 8.487910 -7.703301 0
M  V30 47 H 12.396802 8.569529 -6.740871 0
M  V30 48 H 12.634803 7.036265 -7.491680 0
M  V30 49 H 8.849739 5.217071 -7.521676 0
M  V30 50 H 8.116805 6.569324 -8.263919 0
M  V30 51 H 10.051057 4.156169 -16.620674 0
M  V30 52 H 9.771504 5.856251 -16.844803 0
M  V30 53 H 11.905444 10.169350 -2.778631 0
M  V30 54 H 8.634842 2.965131 -14.494190 0
M  V30 55 H 11.327116 5.516222 -4.295247 0
M  V30 56 H 11.166805 8.153979 -1.686558 0
M  V30 57 H 6.742235 4.499911 -11.518724 0
M  V30 58 H 8.412541 4.368599 -18.283815 0
M  V30 59 H 6.507137 7.373279 -10.754601 0
M  V30 60 H 9.140155 7.562162 -5.856688 0
M  V30 61 H 10.041429 6.102128 -5.990173 0
M  V30 62 H 12.180983 5.980245 -2.071989 0
M  V30 63 H 13.434985 6.691166 -3.068584 0
M  V30 64 H 6.500459 2.689647 -14.437917 0
M  V30 65 H 6.182856 4.321580 -14.926040 0
M  V30 66 H 9.516519 6.805094 -10.328636 0
M  V30 67 H 7.984274 6.933559 -12.892002 0
M  V30 68 H 6.737608 5.967527 -13.680229 0
M  V30 69 H 5.332646 5.383390 -21.798665 0
M  V30 70 H 4.510536 4.931182 -20.307830 0
M  V30 71 H 4.647293 6.627991 -20.765528 0
M  V30 72 H 9.258053 4.169277 -9.574802 0
M  V30 73 H 7.520210 4.422391 -9.362202 0
M  V30 74 H 4.846424 7.636437 -18.696202 0
M  V30 75 H 8.633391 6.042787 -14.787918 0
M  V30 76 H 10.058986 5.135030 -14.456003 0
M  V30 77 H 5.004484 7.862721 -16.232027 0
M  V30 78 H 7.154534 6.483210 -20.496429 0
M  V30 79 H 7.010860 4.798520 -20.080868 0
M  V30 END ATOM
M  V30 BEGIN BOND
M  V30 1 2 5 3
M  V30 2 1 7 1
M  V30 3 2 8 6
M  V30 4 1 9 4
M  V30 5 1 9 7
M  V30 6 1 10 1
M  V30 7 1 12 8
M  V30 8 1 13 5
M  V30 9 1 15 12
M  V30 10 1 16 8
M  V30 11 2 16 14
M  V30 12 1 17 5
M  V30 13 1 18 2
M  V30 14 1 18 11
M  V30 15 1 20 4
M  V30 16 1 21 15
M  V30 17 1 22 7
M  V30 18 1 22 16
M  V30 19 1 23 14
M  V30 20 1 23 15
M  V30 21 1 24 2
M  V30 22 1 24 13
M  V30 23 1 25 12
M  V30 24 2 26 20
M  V30 25 1 27 17
M  V30 26 1 28 1
M  V30 27 1 29 17
M  V30 28 1 29 19
M  V30 29 1 32 10
M  V30 30 1 32 27
M  V30 31 1 34 4
M  V30 32 1 34 20
M  V30 33 1 35 31
M  V30 34 1 36 11
M  V30 35 1 36 13
M  V30 36 1 37 18
M  V30 37 1 37 33
M  V30 38 2 37 35
M  V30 39 1 38 31
M  V30 40 2 38 33
M  V30 41 1 39 30
M  V30 42 1 39 35
M  V30 43 1 1 40 CFG=3
M  V30 44 1 41 3
M  V30 45 1 42 3
M  V30 46 1 4 43 CFG=3
M  V30 47 1 44 6
M  V30 48 1 45 6
M  V30 49 1 7 46 CFG=3
M  V30 50 1 47 9
M  V30 51 1 48 9
M  V30 52 1 49 10
M  V30 53 1 50 10
M  V30 54 1 51 11
M  V30 55 1 52 11
M  V30 56 1 12 53 CFG=1
M  V30 57 1 13 54 CFG=3
M  V30 58 1 55 14
M  V30 59 1 15 56 CFG=1
M  V30 60 1 17 57 CFG=1
M  V30 61 1 18 58 CFG=3
M  V30 62 1 59 19
M  V30 63 1 60 22
M  V30 64 1 61 22
M  V30 65 1 62 23
M  V30 66 1 63 23
M  V30 67 1 64 24
M  V30 68 1 65 24
M  V30 69 1 66 28
M  V30 70 1 67 29
M  V30 71 1 68 29
M  V30 72 1 69 30
M  V30 73 1 70 30
M  V30 74 1 71 30
M  V30 75 1 72 32
M  V30 76 1 73 32
M  V30 77 1 74 31
M  V30 78 1 75 36
M  V30 79 1 76 36
M  V30 80 1 77 38
M  V30 81 1 78 39
M  V30 82 1 79 39
M  V30 END BOND
M  V30 END CTAB
M  END
>  <i_epik_Tot_Q>  (1) 
0

>  <i_epik_Tot_abs_Q>  (1) 
0

>  <i_i_glide_confnum>  (1) 
2445

>  <i_i_glide_lignum>  (1) 
98

>  <i_i_glide_posenum>  (1) 
39

>  <i_i_glide_rotatable_bonds>  (1) 
16

>  <i_lp_mmshare_version>  (1) 
72125

>  <i_m_source_file_index>  (1) 
41

>  <i_f3d_flags>  (1) 
0

>  <num_sample>  (1) 
50

>  <b_lp_Chiralities_Consistent>  (1) 
1

>  <r_epik_Charging_Adjusted_Penalty>  (1) 
0.92388938130089981

>  <r_epik_Ionization_Penalty>  (1) 
0.33440672530639315

>  <r_epik_Ionization_Penalty_Charging>  (1) 
0.3225466834979146

>  <r_epik_Ionization_Penalty_Neutral>  (1) 
0.011860041808478553

>  <r_epik_State_Penalty>  (1) 
0.60134269780298522

>  <r_glide_ring_energy>  (1) 
0

>  <r_i_docking_score>  (1) 
-5.012868441389009

>  <r_i_glide_ecoul>  (1) 
-3.9736231811874139

>  <r_i_glide_eff_state_penalty>  (1) 
0.60134269780298522

>  <r_i_glide_einternal>  (1) 
17.330166909639033

>  <r_i_glide_emodel>  (1) 
-26.492217259912742

>  <r_i_glide_emodel_strain>  (1) 
7.7328712948745135

>  <r_i_glide_energy>  (1) 
-34.724705705798748

>  <r_i_glide_erotb>  (1) 
0.63692825108646745

>  <r_i_glide_esite>  (1) 
-0.11736265925977057

>  <r_i_glide_evdw>  (1) 
-30.751082524611331

>  <r_i_glide_gscore>  (1) 
-5.614211139191994

>  <r_i_glide_gscore_strain>  (1) 
0.93321782371862838

>  <r_i_glide_hbond>  (1) 
-0.12499277006654669

>  <r_i_glide_ligand_efficiency>  (1) 
-0.12853508824074383

>  <r_i_glide_ligand_efficiency_ln>  (1) 
-1.0749012925666497

>  <r_i_glide_ligand_efficiency_sa>  (1) 
-0.43588966207084617

>  <r_i_glide_lipo>  (1) 
-3.595137488356448

>  <r_i_glide_metal>  (1) 
-0

>  <r_i_glide_rewards>  (1) 
-1.2132666929056466

>  <r_lp_Energy>  (1) 
18.659057999999998

>  <r_lp_tautomer_probability>  (1) 
0.49999999999999867

>  <s_epik_Chemistry_Notes>  (1) 
This compound has an ester and may undergo hydrolysis at high or low pH.

>  <s_epik_cmdline>  (1) 
J2VwaWtfcHl0aG9uJywgJy1waHQnLCAnMS4wJywgJy1waCcsICc3LjQnLCAnLXRuJywgJzgnLCAnLW1hJywgJzUwMCcsICctaW1hZScsICc8aW5maWxlLm1hZT4nLCAnLW9tYWUnLCAnPG91dGZpbGUubWFlPic=

>  <s_epik_input>  (1) 
W0NIMl09QzFbQ0BIXShGKVtDQEhdKEYpW0NIMl1bQ0hdPUMxW0NIMl1bQ0BASF0oW0NIMl1bQ0BASF0yQyg9TylPMilbQ0BIXShbT0hdKVtDSDJdW0NIMl1PW0NAQEhdKFtDSDJdW1NIXSlDKD1bQ0gyXSlbQ0BIXTNbQ0gyXVNbQ0BIXShbQ0gyXVtDSDJdMylDND1OW0NIXT1OW0NAQEhdNFtDSDJdW0NIM10=

>  <s_glide_docking_method>  (1) 
confgen

>  <s_i_glide_gridfile>  (1) 
gpcr_drd2_6luq_protein_autoprepared_prepared

>  <s_lp_Force_Field>  (1) 
S-OPLS

>  <s_lp_Variant>  (1) 
DiffSBDD_40_num_sample_50-1

>  <s_m_source_file>  (1) 
generated__ligand_DiffSBDD_2026-05-06_prepared.sdf

>  <GenAI_Model>  (1) 
DiffSBDD

>  <Protein>  (1) 
generic_title2

$$$$
DiffSBDD_21_num_sample_50
     RDKit          3D

  0  0  0  0  0  0  0  0  0  0999 V3000
M  V30 BEGIN CTAB
M  V30 COUNTS 58 61 0 0 1
M  V30 BEGIN ATOM
M  V30 1 C 11.647403 8.322637 -6.706797 0 CFG=2
M  V30 2 C 6.233279 0.822179 -15.623698 0 CFG=2
M  V30 3 C 9.326540 6.169926 -6.550542 0
M  V30 4 O 6.646638 2.105676 -15.155771 0
M  V30 5 C 7.897472 1.363993 -13.095520 0
M  V30 6 N 7.841511 4.226874 -12.919232 0
M  V30 7 C 10.100574 7.478049 -8.563259 0
M  V30 8 C 10.492474 7.105116 -12.342897 0
M  V30 9 O 8.485577 4.456055 -15.087966 0
M  V30 10 C 5.284721 0.168867 -14.605996 0
M  V30 11 C 12.088112 7.872725 -10.502489 0
M  V30 12 C 7.832874 2.241438 -14.385045 0 CFG=2
M  V30 13 F 7.934110 0.524233 -17.245605 0
M  V30 14 F 11.850171 7.629054 -4.463022 0
M  V30 15 C 11.435115 7.197516 -5.654990 0 CFG=1
M  V30 16 C 9.834805 7.206674 -9.909365 0
M  V30 17 C 12.360717 8.169222 -9.150428 0
M  V30 18 C 10.813835 7.393117 -10.880061 0
M  V30 19 C 10.018046 6.779604 -5.370572 0
M  V30 20 C 8.069980 3.754862 -14.162466 0
M  V30 21 C 8.589805 5.274707 -12.227091 0 CFG=1
M  V30 22 F 8.221285 -0.550072 -15.377763 0
M  V30 23 C 10.001968 5.675523 -12.696244 0
M  V30 24 C 9.023304 7.241114 -7.558141 0
M  V30 25 O 10.938859 9.464849 -6.291735 0
M  V30 26 O 7.482305 5.616302 -12.956518 0
M  V30 27 C 5.911811 -0.223314 -13.268075 0
M  V30 28 C 7.315729 -0.096139 -16.240726 0
M  V30 29 C 11.363418 7.973255 -8.171402 0
M  V30 30 C 6.540500 0.940884 -12.508087 0
M  V30 31 H 12.684715 8.636370 -6.691503 0
M  V30 32 H 5.586788 1.064168 -16.467540 0
M  V30 33 H 8.373292 5.769237 -6.207866 0
M  V30 34 H 9.898463 5.369278 -7.009381 0
M  V30 35 H 8.491513 0.471041 -13.282504 0
M  V30 36 H 8.476796 1.866660 -12.321279 0
M  V30 37 H 9.745608 7.830517 -12.666375 0
M  V30 38 H 11.384741 7.311817 -12.935069 0
M  V30 39 H 4.448490 0.833591 -14.391051 0
M  V30 40 H 4.840391 -0.710989 -15.070801 0
M  V30 41 H 12.848692 8.033583 -11.250461 0
M  V30 42 H 8.634837 1.912998 -15.040324 0
M  V30 43 H 12.025755 6.314864 -5.908349 0
M  V30 44 H 8.858919 6.863299 -10.193481 0
M  V30 45 H 13.330323 8.552604 -8.868168 0
M  V30 46 H 9.463214 7.664588 -5.091732 0
M  V30 47 H 9.996025 6.096164 -4.522877 0
M  V30 48 H 8.456512 5.173965 -11.157131 0
M  V30 49 H 10.087179 5.595090 -13.774170 0
M  V30 50 H 10.698699 4.955620 -12.291513 0
M  V30 51 H 8.634718 8.168296 -7.137997 0
M  V30 52 H 8.234842 6.770329 -8.122070 0
M  V30 53 H 10.016541 9.270051 -6.367356 0
M  V30 54 H 5.124696 -0.630506 -12.632999 0
M  V30 55 H 6.634809 -1.027890 -13.402399 0
M  V30 56 H 6.850921 -0.985166 -16.669179 0
M  V30 57 H 5.858439 1.789736 -12.444314 0
M  V30 58 H 6.673771 0.569233 -11.491174 0
M  V30 END ATOM
M  V30 BEGIN BOND
M  V30 1 1 4 2
M  V30 2 1 10 2
M  V30 3 1 12 4
M  V30 4 1 12 5
M  V30 5 1 15 1
M  V30 6 1 15 14
M  V30 7 1 16 7
M  V30 8 2 17 11
M  V30 9 1 18 8
M  V30 10 1 18 11
M  V30 11 2 18 16
M  V30 12 1 19 3
M  V30 13 1 19 15
M  V30 14 1 20 6
M  V30 15 2 20 9
M  V30 16 1 20 12
M  V30 17 1 21 6
M  V30 18 1 23 8
M  V30 19 1 23 21
M  V30 20 1 24 3
M  V30 21 1 24 7
M  V30 22 1 25 1
M  V30 23 1 26 6
M  V30 24 1 26 21
M  V30 25 1 27 10
M  V30 26 1 28 2
M  V30 27 1 28 13
M  V30 28 1 28 22
M  V30 29 1 29 1
M  V30 30 2 29 7
M  V30 31 1 29 17
M  V30 32 1 30 5
M  V30 33 1 30 27
M  V30 34 1 1 31 CFG=3
M  V30 35 1 2 32 CFG=3
M  V30 36 1 33 3
M  V30 37 1 34 3
M  V30 38 1 35 5
M  V30 39 1 36 5
M  V30 40 1 37 8
M  V30 41 1 38 8
M  V30 42 1 39 10
M  V30 43 1 40 10
M  V30 44 1 41 11
M  V30 45 1 12 42 CFG=3
M  V30 46 1 15 43 CFG=3
M  V30 47 1 44 16
M  V30 48 1 45 17
M  V30 49 1 46 19
M  V30 50 1 47 19
M  V30 51 1 21 48 CFG=1
M  V30 52 1 49 23
M  V30 53 1 50 23
M  V30 54 1 51 24
M  V30 55 1 52 24
M  V30 56 1 53 25
M  V30 57 1 54 27
M  V30 58 1 55 27
M  V30 59 1 56 28
M  V30 60 1 57 30
M  V30 61 1 58 30
M  V30 END BOND
M  V30 END CTAB
M  END
>  <i_epik_Tot_Q>  (1) 
0

>  <i_epik_Tot_abs_Q>  (1) 
0

>  <i_i_glide_confnum>  (1) 
516

>  <i_i_glide_lignum>  (1) 
59

>  <i_i_glide_posenum>  (1) 
219

>  <i_i_glide_rotatable_bonds>  (1) 
7

>  <i_lp_mmshare_version>  (1) 
72125

>  <i_m_source_file_index>  (1) 
22

>  <i_f3d_flags>  (1) 
0

>  <num_sample>  (1) 
50

>  <b_lp_Chiralities_Consistent>  (1) 
1

>  <r_epik_Charging_Adjusted_Penalty>  (1) 
0

>  <r_epik_Ionization_Penalty>  (1) 
2.1179066564973658e-05

>  <r_epik_Ionization_Penalty_Charging>  (1) 
0

>  <r_epik_Ionization_Penalty_Neutral>  (1) 
2.1179066564973658e-05

>  <r_epik_State_Penalty>  (1) 
-0

>  <r_glide_ring_energy>  (1) 
1.9317522254523016

>  <r_i_docking_score>  (1) 
-4.9671906610188623

>  <r_i_glide_ecoul>  (1) 
-2.8219010845780041

>  <r_i_glide_eff_state_penalty>  (1) 
-0

>  <r_i_glide_einternal>  (1) 
18.42666808272773

>  <r_i_glide_emodel>  (1) 
-25.332187309117913

>  <r_i_glide_emodel_strain>  (1) 
0.43723862194860885

>  <r_i_glide_energy>  (1) 
-28.049905056898066

>  <r_i_glide_erotb>  (1) 
0.54329591006541389

>  <r_i_glide_esite>  (1) 
-0.031544880389627543

>  <r_i_glide_evdw>  (1) 
-25.22800397232006

>  <r_i_glide_gscore>  (1) 
-4.9671906610188623

>  <r_i_glide_gscore_strain>  (1) 
0

>  <r_i_glide_hbond>  (1) 
0

>  <r_i_glide_ligand_efficiency>  (1) 
-0.16557302203396207

>  <r_i_glide_ligand_efficiency_ln>  (1) 
-1.1285998400605595

>  <r_i_glide_ligand_efficiency_sa>  (1) 
-0.51447387617294149

>  <r_i_glide_lipo>  (1) 
-2.146557892204862

>  <r_i_glide_metal>  (1) 
-0

>  <r_i_glide_rewards>  (1) 
-1.647698437187082

>  <r_lp_Energy>  (1) 
33.981971000000001

>  <r_lp_tautomer_probability>  (1) 
1

>  <s_epik_Chemistry_Notes>  (1) 
This compound contains an acetal/aminal-like group ( X-CH(R)-Y where X, Y are N, S, or O) that may be acid/base labile, releasing an aldehyde. This compound has a N-S or N-O group and may undergo hydrolysis at high or low pH.

>  <s_epik_cmdline>  (1) 
J2VwaWtfcHl0aG9uJywgJy1waHQnLCAnMS4wJywgJy1waCcsICc3LjQnLCAnLXRuJywgJzgnLCAnLW1hJywgJzUwMCcsICctaW1hZScsICc8aW5maWxlLm1hZT4nLCAnLW9tYWUnLCAnPG91dGZpbGUubWFlPic=

>  <s_epik_input>  (1) 
W0NIMl0xW0NIMl1bQ0gyXVtDQEhdKEYpW0NASF0oW09IXSljKGMxMilbY0hdW2NIXWMoW2NIXTIpW0NIMl1bQ0gyXVtDQEBIXShPMylOM0MoPU8pW0NASF0oT1tDQEhdNFtDSF0oRilGKVtDSDJdW0NIMl1bQ0gyXVtDSDJdNA==

>  <s_glide_docking_method>  (1) 
confgen

>  <s_i_glide_gridfile>  (1) 
gpcr_drd2_6luq_protein_autoprepared_prepared

>  <s_lp_Force_Field>  (1) 
S-OPLS

>  <s_lp_Variant>  (1) 
DiffSBDD_21_num_sample_50-1

>  <s_m_source_file>  (1) 
generated__ligand_DiffSBDD_2026-05-06_prepared.sdf

>  <GenAI_Model>  (1) 
DiffSBDD

>  <Protein>  (1) 
generic_title2

$$$$
DiffSBDD_31_num_sample_50
     RDKit          3D

  0  0  0  0  0  0  0  0  0  0999 V3000
M  V30 BEGIN CTAB
M  V30 COUNTS 71 76 0 0 1
M  V30 BEGIN ATOM
M  V30 1 C 6.654143 5.527741 -13.995155 0
M  V30 2 C 7.156259 2.756046 -14.306037 0
M  V30 3 C 6.122447 6.729864 -17.825380 0
M  V30 4 C 5.106623 2.375179 -20.424703 0
M  V30 5 C 6.286448 4.454745 -19.622807 0
M  V30 6 C 8.034886 2.086043 -17.798742 0
M  V30 7 C 5.606388 6.043732 -21.461478 0 CFG=2
M  V30 8 C 6.989068 0.316086 -13.343000 0
M  V30 9 F 6.411768 6.851697 -13.848904 0
M  V30 10 C 5.845269 4.588447 -13.337661 0
M  V30 11 C 7.431879 1.258529 -14.456468 0
M  V30 12 C 7.620854 2.350365 -20.329595 0
M  V30 13 C 6.123507 -0.224995 -17.800975 0
M  V30 14 C 6.074817 0.454665 -16.404214 0
M  V30 15 C 8.476989 1.068453 -16.732013 0
M  V30 16 C 6.091465 3.209811 -13.491669 0
M  V30 17 F 4.713086 5.196954 -21.982177 0
M  V30 18 C 7.714814 5.093592 -14.803622 0
M  V30 19 C 7.969166 3.717486 -14.957982 0
M  V30 20 C 5.845937 6.811476 -19.145302 0
M  V30 21 N 7.393827 0.703586 -15.822339 0
M  V30 22 C 5.062574 1.597769 -19.113393 0
M  V30 23 C 6.864873 6.156675 -22.352472 0
M  V30 24 C 6.373324 3.223698 -20.534414 0 CFG=1
M  V30 25 O 6.470724 6.457652 -23.673429 0
M  V30 26 C 8.446455 0.619285 -13.534321 0
M  V30 27 C 8.968520 2.894671 -20.767894 0
M  V30 28 C 5.943803 5.709675 -20.035082 0
M  V30 29 C 4.928286 7.469016 -21.169427 0 CFG=2
M  V30 30 O 5.057017 8.414067 -22.212357 0
M  V30 31 C 8.304854 1.813717 -21.576948 0
M  V30 32 C 7.554473 1.411882 -19.100585 0 CFG=2
M  V30 33 N 6.238924 0.713799 -18.959577 0 CFG=1 CHG=1
M  V30 34 C 5.393736 8.078327 -19.778555 0
M  V30 35 H 6.025232 7.598646 -17.189676 0
M  V30 36 H 6.444791 5.813982 -17.364036 0
M  V30 37 H 4.239218 3.032075 -20.482216 0
M  V30 38 H 5.039725 1.686843 -21.268819 0
M  V30 39 H 6.502311 4.279243 -18.589963 0
M  V30 40 H 7.284690 2.760545 -17.395038 0
M  V30 41 H 8.901442 2.707614 -18.024389 0
M  V30 42 H 6.552353 0.704270 -12.426360 0
M  V30 43 H 6.652439 -0.681340 -13.619533 0
M  V30 44 H 5.034840 4.923761 -12.712464 0
M  V30 45 H 5.197167 -0.785839 -17.932963 0
M  V30 46 H 6.914474 -0.975390 -17.841205 0
M  V30 47 H 5.494868 1.369314 -16.426671 0
M  V30 48 H 5.545461 -0.207478 -15.717738 0
M  V30 49 H 9.322581 1.448287 -16.164689 0
M  V30 50 H 8.859404 0.164034 -17.205207 0
M  V30 51 H 5.460850 2.498477 -12.986040 0
M  V30 52 H 8.339400 5.816952 -15.306332 0
M  V30 53 H 8.789845 3.401041 -15.574692 0
M  V30 54 H 5.034840 2.305301 -18.291671 0
M  V30 55 H 4.150814 0.998983 -19.091667 0
M  V30 56 H 7.449298 5.240199 -22.373500 0
M  V30 57 H 7.530169 6.939835 -21.986052 0
M  V30 58 H 6.401663 3.555872 -21.566496 0
M  V30 59 H 5.868206 5.780108 -23.945205 0
M  V30 60 H 9.034836 -0.220619 -13.891685 0
M  V30 61 H 8.936253 1.269432 -12.812697 0
M  V30 62 H 8.999426 3.894491 -21.194473 0
M  V30 63 H 9.850486 2.615389 -20.195223 0
M  V30 64 H 3.856121 7.291600 -21.091609 0
M  V30 65 H 5.515324 7.988633 -22.930486 0
M  V30 66 H 8.751178 0.821489 -21.538653 0
M  V30 67 H 7.900537 2.095379 -22.547751 0
M  V30 68 H 8.269999 0.613363 -19.301063 0
M  V30 69 H 4.583218 8.567672 -19.238270 0
M  V30 70 H 6.234568 8.761862 -19.892301 0
M  V30 71 H 6.193834 0.115281 -19.772573 0
M  V30 END ATOM
M  V30 BEGIN BOND
M  V30 1 1 9 1
M  V30 2 1 10 1
M  V30 3 1 11 2
M  V30 4 1 11 8
M  V30 5 1 14 13
M  V30 6 1 15 6
M  V30 7 1 16 2
M  V30 8 2 16 10
M  V30 9 1 7 17 CFG=3
M  V30 10 2 18 1
M  V30 11 2 19 2
M  V30 12 1 19 18
M  V30 13 2 20 3
M  V30 14 1 21 11
M  V30 15 1 21 14
M  V30 16 1 21 15
M  V30 17 1 22 4
M  V30 18 1 23 7
M  V30 19 1 24 4
M  V30 20 1 24 5
M  V30 21 1 24 12
M  V30 22 1 25 23
M  V30 23 1 26 8
M  V30 24 1 26 11
M  V30 25 1 27 12
M  V30 26 2 28 5
M  V30 27 1 28 7
M  V30 28 1 28 20
M  V30 29 1 29 7
M  V30 30 1 30 29
M  V30 31 1 31 12
M  V30 32 1 31 27
M  V30 33 1 32 6
M  V30 34 1 32 12
M  V30 35 1 33 13
M  V30 36 1 33 22
M  V30 37 1 33 32
M  V30 38 1 34 20
M  V30 39 1 34 29
M  V30 40 1 35 3
M  V30 41 1 36 3
M  V30 42 1 37 4
M  V30 43 1 38 4
M  V30 44 1 39 5
M  V30 45 1 40 6
M  V30 46 1 41 6
M  V30 47 1 42 8
M  V30 48 1 43 8
M  V30 49 1 44 10
M  V30 50 1 45 13
M  V30 51 1 46 13
M  V30 52 1 47 14
M  V30 53 1 48 14
M  V30 54 1 49 15
M  V30 55 1 50 15
M  V30 56 1 51 16
M  V30 57 1 52 18
M  V30 58 1 53 19
M  V30 59 1 54 22
M  V30 60 1 55 22
M  V30 61 1 56 23
M  V30 62 1 57 23
M  V30 63 1 24 58 CFG=3
M  V30 64 1 59 25
M  V30 65 1 60 26
M  V30 66 1 61 26
M  V30 67 1 62 27
M  V30 68 1 63 27
M  V30 69 1 29 64 CFG=1
M  V30 70 1 65 30
M  V30 71 1 66 31
M  V30 72 1 67 31
M  V30 73 1 32 68 CFG=3
M  V30 74 1 69 34
M  V30 75 1 70 34
M  V30 76 1 33 71 CFG=3
M  V30 END BOND
M  V30 END CTAB
M  END
>  <i_epik_Tot_Q>  (1) 
1

>  <i_epik_Tot_abs_Q>  (1) 
1

>  <i_i_glide_confnum>  (1) 
212

>  <i_i_glide_lignum>  (1) 
78

>  <i_i_glide_posenum>  (1) 
230

>  <i_i_glide_rotatable_bonds>  (1) 
6

>  <i_lp_mmshare_version>  (1) 
72125

>  <i_m_source_file_index>  (1) 
32

>  <i_f3d_flags>  (1) 
0

>  <num_sample>  (1) 
50

>  <b_lp_Chiralities_Consistent>  (1) 
1

>  <r_epik_Charging_Adjusted_Penalty>  (1) 
0.0036996964664751512

>  <r_epik_Ionization_Penalty>  (1) 
0.0040620325304727405

>  <r_epik_Ionization_Penalty_Charging>  (1) 
0.0036996964664751512

>  <r_epik_Ionization_Penalty_Neutral>  (1) 
0.00036233606399758918

>  <r_epik_State_Penalty>  (1) 
-0

>  <r_glide_ring_energy>  (1) 
0

>  <r_i_docking_score>  (1) 
-4.9656776877544679

>  <r_i_glide_ecoul>  (1) 
-2.0577406864139558

>  <r_i_glide_eff_state_penalty>  (1) 
-0

>  <r_i_glide_einternal>  (1) 
7.8832682293748917

>  <r_i_glide_emodel>  (1) 
-30.482199143287176

>  <r_i_glide_emodel_strain>  (1) 
3.0715168055591846

>  <r_i_glide_energy>  (1) 
-27.842166126747799

>  <r_i_glide_erotb>  (1) 
0.36352394052346937

>  <r_i_glide_esite>  (1) 
0

>  <r_i_glide_evdw>  (1) 
-25.784425440333845

>  <r_i_glide_gscore>  (1) 
-4.9656776877544679

>  <r_i_glide_gscore_strain>  (1) 
0

>  <r_i_glide_hbond>  (1) 
0

>  <r_i_glide_ligand_efficiency>  (1) 
-0.14604934375748435

>  <r_i_glide_ligand_efficiency_ln>  (1) 
-1.0970574837662894

>  <r_i_glide_ligand_efficiency_sa>  (1) 
-0.47314317760557828

>  <r_i_glide_lipo>  (1) 
-2.8732131600378077

>  <r_i_glide_metal>  (1) 
-0

>  <r_i_glide_rewards>  (1) 
-0.85810609326134446

>  <r_lp_Energy>  (1) 
29.781917

>  <r_lp_tautomer_probability>  (1) 
1

>  <s_epik_cmdline>  (1) 
J2VwaWtfcHl0aG9uJywgJy1waHQnLCAnMS4wJywgJy1waCcsICc3LjQnLCAnLXRuJywgJzgnLCAnLW1hJywgJzUwMCcsICctaW1hZScsICc8aW5maWxlLm1hZT4nLCAnLW9tYWUnLCAnPG91dGZpbGUubWFlPic=

>  <s_epik_input>  (1) 
RmMxW2NIXVtjSF1jKFtjSF1bY0hdMSlDMihbQ0gyXVtDSDJdMilOKFtDSDJdW0NIMl0zKVtDSDJdW0NIMl1OKFtDQEhdM0M0NVtDSDJdW0NIMl01KVtDSDJdW0NIMl1bQ0BIXTQvW0NIXT1DKFxbQ0BdNihGKVtDSDJdW09IXSlDKD1bQ0gyXSlbQ0gyXVtDQEhdNltPSF0=

>  <s_glide_docking_method>  (1) 
confgen

>  <s_i_glide_gridfile>  (1) 
gpcr_drd2_6luq_protein_autoprepared_prepared

>  <s_lp_Force_Field>  (1) 
S-OPLS

>  <s_lp_Variant>  (1) 
DiffSBDD_31_num_sample_50-1

>  <s_m_source_file>  (1) 
generated__ligand_DiffSBDD_2026-05-06_prepared.sdf

>  <GenAI_Model>  (1) 
DiffSBDD

>  <Protein>  (1) 
generic_title2

$$$$
DiffSBDD_31_num_sample_50
     RDKit          3D

  0  0  0  0  0  0  0  0  0  0999 V3000
M  V30 BEGIN CTAB
M  V30 COUNTS 71 76 0 0 1
M  V30 BEGIN ATOM
M  V30 1 C 10.812797 7.379387 -6.137245 0
M  V30 2 C 10.355260 7.056181 -8.909094 0
M  V30 3 C 11.391845 4.322635 -16.864595 0
M  V30 4 C 6.462742 4.831144 -15.321515 0
M  V30 5 C 8.708018 3.808127 -15.883990 0
M  V30 6 C 8.984663 4.183059 -12.389687 0
M  V30 7 C 8.272187 2.676519 -18.102358 0 CFG=2
M  V30 8 C 11.228238 6.969290 -11.425548 0
M  V30 9 F 11.034825 7.532376 -4.811505 0
M  V30 10 C 11.676409 7.978820 -7.064865 0
M  V30 11 C 10.104375 6.914504 -10.404138 0
M  V30 12 C 7.332914 2.891629 -13.931302 0
M  V30 13 C 6.664249 6.044135 -11.771923 0
M  V30 14 C 7.995717 6.788015 -11.642099 0
M  V30 15 C 9.144185 4.679032 -10.936939 0
M  V30 16 C 11.458432 7.814112 -8.438994 0
M  V30 17 F 7.087381 3.262671 -18.286442 0
M  V30 18 C 9.718485 6.622064 -6.584462 0
M  V30 19 C 9.485126 6.460336 -7.961931 0
M  V30 20 C 10.448676 3.690164 -17.595313 0
M  V30 21 N 8.932912 6.113690 -10.756422 0
M  V30 22 C 6.872029 5.791313 -14.228909 0
M  V30 23 C 8.088532 1.166814 -17.788777 0
M  V30 24 C 7.311375 3.551254 -15.321581 0 CFG=1
M  V30 25 O 9.306221 0.505072 -17.491572 0
M  V30 26 C 10.383839 8.169298 -11.196018 0
M  V30 27 C 7.909011 1.491332 -13.793963 0
M  V30 28 C 9.140279 3.415074 -17.116297 0
M  V30 29 C 9.190778 2.956490 -19.386447 0 CFG=2
M  V30 30 O 9.066299 2.026796 -20.446971 0
M  V30 31 C 6.423557 1.689164 -13.709106 0
M  V30 32 C 7.506923 3.884176 -12.756775 0 CFG=2
M  V30 33 N 6.674457 5.112312 -12.925308 0 CFG=1 CHG=1
M  V30 34 C 10.704757 3.234916 -18.988091 0
M  V30 35 H 12.371789 4.509901 -17.278901 0
M  V30 36 H 11.208011 4.657232 -15.859362 0
M  V30 37 H 6.475410 5.311513 -16.301211 0
M  V30 38 H 5.434918 4.576071 -15.091635 0
M  V30 39 H 9.372696 4.343855 -15.234070 0
M  V30 40 H 9.466643 4.859419 -13.092615 0
M  V30 41 H 9.551444 3.254885 -12.460461 0
M  V30 42 H 12.234839 6.992252 -11.042165 0
M  V30 43 H 11.100724 6.451152 -12.372744 0
M  V30 44 H 12.513274 8.569191 -6.719666 0
M  V30 45 H 5.870473 6.775265 -11.933330 0
M  V30 46 H 6.401947 5.528586 -10.846851 0
M  V30 47 H 8.464079 6.945632 -12.608319 0
M  V30 48 H 7.834657 7.791749 -11.255139 0
M  V30 49 H 10.121091 4.402322 -10.552193 0
M  V30 50 H 8.431917 4.169292 -10.290886 0
M  V30 51 H 12.134874 8.278139 -9.138314 0
M  V30 52 H 9.049766 6.169288 -5.869258 0
M  V30 53 H 8.632455 5.885502 -8.292241 0
M  V30 54 H 7.900227 6.108808 -14.396514 0
M  V30 55 H 6.245278 6.683641 -14.281754 0
M  V30 56 H 7.612802 0.666570 -18.632251 0
M  V30 57 H 7.418633 1.017395 -16.944493 0
M  V30 58 H 6.791355 2.857879 -15.972760 0
M  V30 59 H 9.906057 0.604339 -18.212898 0
M  V30 60 H 9.805952 8.489941 -12.057818 0
M  V30 61 H 10.899829 8.969295 -10.690536 0
M  V30 62 H 8.298357 1.007574 -14.687574 0
M  V30 63 H 8.425014 1.233430 -12.871279 0
M  V30 64 H 8.827852 3.897981 -19.804760 0
M  V30 65 H 9.406664 1.187779 -20.181264 0
M  V30 66 H 5.964653 1.552059 -12.732233 0
M  V30 67 H 5.836555 1.309591 -14.542479 0
M  V30 68 H 7.081951 3.377740 -11.891664 0
M  V30 69 H 11.177941 3.996079 -19.609937 0
M  V30 70 H 11.312314 2.328893 -18.977166 0
M  V30 71 H 5.728606 4.762793 -12.964623 0
M  V30 END ATOM
M  V30 BEGIN BOND
M  V30 1 1 9 1
M  V30 2 1 10 1
M  V30 3 1 11 2
M  V30 4 1 11 8
M  V30 5 1 14 13
M  V30 6 1 15 6
M  V30 7 1 16 2
M  V30 8 2 16 10
M  V30 9 1 7 17 CFG=3
M  V30 10 2 18 1
M  V30 11 2 19 2
M  V30 12 1 19 18
M  V30 13 2 20 3
M  V30 14 1 21 11
M  V30 15 1 21 14
M  V30 16 1 21 15
M  V30 17 1 22 4
M  V30 18 1 23 7
M  V30 19 1 24 4
M  V30 20 1 24 5
M  V30 21 1 24 12
M  V30 22 1 25 23
M  V30 23 1 26 8
M  V30 24 1 26 11
M  V30 25 1 27 12
M  V30 26 2 28 5
M  V30 27 1 28 7
M  V30 28 1 28 20
M  V30 29 1 29 7
M  V30 30 1 30 29
M  V30 31 1 31 12
M  V30 32 1 31 27
M  V30 33 1 32 6
M  V30 34 1 32 12
M  V30 35 1 33 13
M  V30 36 1 33 22
M  V30 37 1 33 32
M  V30 38 1 34 20
M  V30 39 1 34 29
M  V30 40 1 35 3
M  V30 41 1 36 3
M  V30 42 1 37 4
M  V30 43 1 38 4
M  V30 44 1 39 5
M  V30 45 1 40 6
M  V30 46 1 41 6
M  V30 47 1 42 8
M  V30 48 1 43 8
M  V30 49 1 44 10
M  V30 50 1 45 13
M  V30 51 1 46 13
M  V30 52 1 47 14
M  V30 53 1 48 14
M  V30 54 1 49 15
M  V30 55 1 50 15
M  V30 56 1 51 16
M  V30 57 1 52 18
M  V30 58 1 53 19
M  V30 59 1 54 22
M  V30 60 1 55 22
M  V30 61 1 56 23
M  V30 62 1 57 23
M  V30 63 1 24 58 CFG=3
M  V30 64 1 59 25
M  V30 65 1 60 26
M  V30 66 1 61 26
M  V30 67 1 62 27
M  V30 68 1 63 27
M  V30 69 1 29 64 CFG=3
M  V30 70 1 65 30
M  V30 71 1 66 31
M  V30 72 1 67 31
M  V30 73 1 32 68 CFG=1
M  V30 74 1 69 34
M  V30 75 1 70 34
M  V30 76 1 33 71 CFG=3
M  V30 END BOND
M  V30 END CTAB
M  END
>  <i_epik_Tot_Q>  (1) 
1

>  <i_epik_Tot_abs_Q>  (1) 
1

>  <i_i_glide_confnum>  (1) 
205

>  <i_i_glide_lignum>  (1) 
78

>  <i_i_glide_posenum>  (1) 
396

>  <i_i_glide_rotatable_bonds>  (1) 
6

>  <i_lp_mmshare_version>  (1) 
72125

>  <i_m_source_file_index>  (1) 
32

>  <i_f3d_flags>  (1) 
0

>  <num_sample>  (1) 
50

>  <b_lp_Chiralities_Consistent>  (1) 
1

>  <r_epik_Charging_Adjusted_Penalty>  (1) 
0.0036996964664751512

>  <r_epik_Ionization_Penalty>  (1) 
0.0040620325304727405

>  <r_epik_Ionization_Penalty_Charging>  (1) 
0.0036996964664751512

>  <r_epik_Ionization_Penalty_Neutral>  (1) 
0.00036233606399758918

>  <r_epik_State_Penalty>  (1) 
-0

>  <r_glide_ring_energy>  (1) 
0

>  <r_i_docking_score>  (1) 
-4.9466050377972781

>  <r_i_glide_ecoul>  (1) 
-2.9760486804005213

>  <r_i_glide_eff_state_penalty>  (1) 
-0

>  <r_i_glide_einternal>  (1) 
11.78335052002798

>  <r_i_glide_emodel>  (1) 
-32.318665075504178

>  <r_i_glide_emodel_strain>  (1) 
0

>  <r_i_glide_energy>  (1) 
-28.594233271170484

>  <r_i_glide_erotb>  (1) 
0.36352394052346937

>  <r_i_glide_esite>  (1) 
0

>  <r_i_glide_evdw>  (1) 
-25.618184590769964

>  <r_i_glide_gscore>  (1) 
-4.9466050377972781

>  <r_i_glide_gscore_strain>  (1) 
0

>  <r_i_glide_hbond>  (1) 
0

>  <r_i_glide_ligand_efficiency>  (1) 
-0.14548838346462584

>  <r_i_glide_ligand_efficiency_ln>  (1) 
-1.0928438004210355

>  <r_i_glide_ligand_efficiency_sa>  (1) 
-0.47132588402078573

>  <r_i_glide_lipo>  (1) 
-2.2661697700818944

>  <r_i_glide_metal>  (1) 
-0

>  <r_i_glide_rewards>  (1) 
-1.3166426766402775

>  <r_lp_Energy>  (1) 
29.781917

>  <r_lp_tautomer_probability>  (1) 
1

>  <s_epik_cmdline>  (1) 
J2VwaWtfcHl0aG9uJywgJy1waHQnLCAnMS4wJywgJy1waCcsICc3LjQnLCAnLXRuJywgJzgnLCAnLW1hJywgJzUwMCcsICctaW1hZScsICc8aW5maWxlLm1hZT4nLCAnLW9tYWUnLCAnPG91dGZpbGUubWFlPic=

>  <s_epik_input>  (1) 
RmMxW2NIXVtjSF1jKFtjSF1bY0hdMSlDMihbQ0gyXVtDSDJdMilOKFtDSDJdW0NIMl0zKVtDSDJdW0NIMl1OKFtDQEhdM0M0NVtDSDJdW0NIMl01KVtDSDJdW0NIMl1bQ0BIXTQvW0NIXT1DKFxbQ0BdNihGKVtDSDJdW09IXSlDKD1bQ0gyXSlbQ0gyXVtDQEhdNltPSF0=

>  <s_glide_docking_method>  (1) 
confgen

>  <s_i_glide_gridfile>  (1) 
gpcr_drd2_6luq_protein_autoprepared_prepared

>  <s_lp_Force_Field>  (1) 
S-OPLS

>  <s_lp_Variant>  (1) 
DiffSBDD_31_num_sample_50-1

>  <s_m_source_file>  (1) 
generated__ligand_DiffSBDD_2026-05-06_prepared.sdf

>  <GenAI_Model>  (1) 
DiffSBDD

>  <Protein>  (1) 
generic_title2

$$$$
DiffSBDD_10_num_sample_50
     RDKit          3D

  0  0  0  0  0  0  0  0  0  0999 V3000
M  V30 BEGIN CTAB
M  V30 COUNTS 72 73 0 0 1
M  V30 BEGIN ATOM
M  V30 1 C 5.850247 7.105310 -21.478365 0 CFG=2
M  V30 2 C 8.106575 3.769051 -12.546224 0
M  V30 3 C 7.938095 0.396753 -15.468404 0
M  V30 4 C 7.460767 2.750735 -17.868042 0 CFG=1
M  V30 5 C 5.514393 6.382098 -20.160555 0 CFG=2
M  V30 6 N 5.894087 3.976679 -13.491672 0
M  V30 7 N 6.310070 3.100585 -19.908054 0
M  V30 8 C 6.301584 4.328307 -19.162929 0 CFG=1
M  V30 9 S 5.335990 8.910329 -21.570622 0
M  V30 10 C 7.876288 4.709793 -11.374045 0
M  V30 11 S 4.640842 8.963173 -23.565168 0 CHG=-1
M  V30 12 C 8.410722 7.258110 -21.825434 0
M  V30 13 O 8.634838 6.170174 -7.344452 0
M  V30 14 O 4.168458 9.191103 -20.722579 0
M  V30 15 C 4.637809 6.203042 -21.386429 0 CFG=2
M  V30 16 C 6.898834 0.641736 -13.143298 0
M  V30 17 C 7.252880 2.183792 -19.284441 0 CFG=1
M  V30 18 N 9.034504 5.986442 -9.520997 0 CHG=1
M  V30 19 N 7.454922 2.595753 -14.523403 0
M  V30 20 C 9.206132 5.185275 -10.755340 0
M  V30 21 C 8.673875 4.974250 -18.426320 0
M  V30 22 C 7.057157 6.767672 -22.362373 0
M  V30 23 C 5.072708 7.064876 -18.867869 0
M  V30 24 C 8.697776 2.223254 -17.117242 0
M  V30 25 C 7.434395 1.320971 -14.399888 0
M  V30 26 O 4.738734 4.876185 -21.861343 0
M  V30 27 C 7.176056 3.469903 -13.474266 0
M  V30 28 O 6.526303 9.769128 -21.491807 0
M  V30 29 F 8.382899 2.197867 -19.991531 0
M  V30 30 N 5.509008 0.248442 -13.283962 0
M  V30 31 C 8.501966 5.223606 -8.375334 0
M  V30 32 C 7.355005 4.265921 -18.041141 0 CFG=2
M  V30 33 O 6.560274 5.428973 -19.975042 0
M  V30 34 C 8.487610 0.787932 -16.651419 0
M  V30 35 H 9.087672 3.319528 -12.616831 0
M  V30 36 H 7.839523 -0.652582 -15.242734 0
M  V30 37 H 6.591487 2.457184 -17.279930 0
M  V30 38 H 5.560048 4.607051 -12.778188 0
M  V30 39 H 5.392274 2.678023 -19.930384 0
M  V30 40 H 5.309154 4.403868 -18.720645 0
M  V30 41 H 7.281590 4.168995 -10.638994 0
M  V30 42 H 7.278108 5.564857 -11.691233 0
M  V30 43 H 9.225233 6.855136 -22.427591 0
M  V30 44 H 8.501853 8.342290 -21.856401 0
M  V30 45 H 8.570305 6.934544 -20.797924 0
M  V30 46 H 7.769939 6.569376 -7.204332 0
M  V30 47 H 3.659091 6.654285 -21.491697 0
M  V30 48 H 7.503842 -0.230613 -12.910511 0
M  V30 49 H 6.984635 1.304337 -12.291611 0
M  V30 50 H 6.880619 1.158873 -19.277333 0
M  V30 51 H 8.385027 6.755599 -9.688664 0
M  V30 52 H 9.751407 5.788133 -11.483165 0
M  V30 53 H 9.834869 4.323985 -10.527448 0
M  V30 54 H 9.081531 4.592572 -19.362494 0
M  V30 55 H 8.524975 6.048554 -18.538766 0
M  V30 56 H 9.432829 4.848925 -17.654480 0
M  V30 57 H 7.114387 5.687273 -22.492259 0
M  V30 58 H 6.890394 7.176614 -23.358726 0
M  V30 59 H 4.123525 7.581826 -18.984696 0
M  V30 60 H 4.924272 6.353260 -18.058679 0
M  V30 61 H 5.834067 7.770234 -18.544947 0
M  V30 62 H 9.014753 2.887911 -16.318624 0
M  V30 63 H 9.557542 2.217729 -17.787629 0
M  V30 64 H 5.554020 4.526027 -21.520469 0
M  V30 65 H 5.434835 -0.559582 -13.891541 0
M  V30 66 H 5.162524 -0.081388 -12.394316 0
M  V30 67 H 9.107969 4.342830 -8.163781 0
M  V30 68 H 7.459639 4.933144 -8.506889 0
M  V30 69 H 6.952217 4.734044 -17.141840 0
M  V30 70 H 8.811032 0.024261 -17.343788 0
M  V30 71 H 5.227210 3.707243 -14.200078 0
M  V30 72 H 9.923770 6.372260 -9.242684 0
M  V30 END ATOM
M  V30 BEGIN BOND
M  V30 1 1 5 1
M  V30 2 1 8 7
M  V30 3 1 9 1
M  V30 4 1 10 2
M  V30 5 1 11 9
M  V30 6 2 14 9
M  V30 7 1 15 1
M  V30 8 1 15 5
M  V30 9 1 17 4
M  V30 10 1 17 7
M  V30 11 1 20 10
M  V30 12 1 20 18
M  V30 13 1 1 22 CFG=3
M  V30 14 1 22 12
M  V30 15 1 23 5
M  V30 16 1 24 4
M  V30 17 1 25 3
M  V30 18 1 25 16
M  V30 19 2 25 19
M  V30 20 1 26 15
M  V30 21 2 27 2
M  V30 22 1 27 6
M  V30 23 1 27 19
M  V30 24 2 28 9
M  V30 25 1 29 17
M  V30 26 1 30 16
M  V30 27 1 31 13
M  V30 28 1 31 18
M  V30 29 1 32 4
M  V30 30 1 32 8
M  V30 31 1 32 21
M  V30 32 1 5 33 CFG=1
M  V30 33 1 33 8
M  V30 34 2 34 3
M  V30 35 1 34 24
M  V30 36 1 35 2
M  V30 37 1 36 3
M  V30 38 1 4 37 CFG=1
M  V30 39 1 38 6
M  V30 40 1 39 7
M  V30 41 1 8 40 CFG=1
M  V30 42 1 41 10
M  V30 43 1 42 10
M  V30 44 1 43 12
M  V30 45 1 44 12
M  V30 46 1 45 12
M  V30 47 1 46 13
M  V30 48 1 15 47 CFG=1
M  V30 49 1 48 16
M  V30 50 1 49 16
M  V30 51 1 17 50 CFG=1
M  V30 52 1 51 18
M  V30 53 1 52 20
M  V30 54 1 53 20
M  V30 55 1 54 21
M  V30 56 1 55 21
M  V30 57 1 56 21
M  V30 58 1 57 22
M  V30 59 1 58 22
M  V30 60 1 59 23
M  V30 61 1 60 23
M  V30 62 1 61 23
M  V30 63 1 62 24
M  V30 64 1 63 24
M  V30 65 1 64 26
M  V30 66 1 65 30
M  V30 67 1 66 30
M  V30 68 1 67 31
M  V30 69 1 68 31
M  V30 70 1 32 69 CFG=1
M  V30 71 1 70 34
M  V30 72 1 71 6
M  V30 73 1 72 18
M  V30 END BOND
M  V30 END CTAB
M  END
>  <i_epik_Tot_Q>  (1) 
0

>  <i_epik_Tot_abs_Q>  (1) 
2

>  <i_i_glide_confnum>  (1) 
3743

>  <i_i_glide_lignum>  (1) 
23

>  <i_i_glide_posenum>  (1) 
78

>  <i_i_glide_rotatable_bonds>  (1) 
15

>  <i_lp_mmshare_version>  (1) 
72125

>  <i_m_source_file_index>  (1) 
11

>  <i_f3d_flags>  (1) 
0

>  <num_sample>  (1) 
50

>  <b_lp_Chiralities_Consistent>  (1) 
1

>  <r_epik_Charging_Adjusted_Penalty>  (1) 
0.33639934582642134

>  <r_epik_Ionization_Penalty>  (1) 
0.23315943830934333

>  <r_epik_Ionization_Penalty_Charging>  (1) 
0.10316865490585193

>  <r_epik_Ionization_Penalty_Neutral>  (1) 
0.12999078340349141

>  <r_epik_State_Penalty>  (1) 
0.23323069092056939

>  <r_glide_ring_energy>  (1) 
0

>  <r_i_docking_score>  (1) 
-4.9333492764785225

>  <r_i_glide_ecoul>  (1) 
-10.96600947050951

>  <r_i_glide_eff_state_penalty>  (1) 
0.23323069092056939

>  <r_i_glide_einternal>  (1) 
14.907508469926984

>  <r_i_glide_emodel>  (1) 
-51.053110656698159

>  <r_i_glide_emodel_strain>  (1) 
1.8401460306400992

>  <r_i_glide_energy>  (1) 
-44.479596651074274

>  <r_i_glide_erotb>  (1) 
0.82510599487301828

>  <r_i_glide_esite>  (1) 
-0.11102810398110968

>  <r_i_glide_evdw>  (1) 
-33.513587180564762

>  <r_i_glide_gscore>  (1) 
-5.166579967399092

>  <r_i_glide_gscore_strain>  (1) 
0

>  <r_i_glide_hbond>  (1) 
-0.43602616925571641

>  <r_i_glide_ligand_efficiency>  (1) 
-0.14509850813172126

>  <r_i_glide_ligand_efficiency_ln>  (1) 
-1.0899152309342115

>  <r_i_glide_ligand_efficiency_sa>  (1) 
-0.47006283929128112

>  <r_i_glide_lipo>  (1) 
-1.5019230193026156

>  <r_i_glide_metal>  (1) 
-0

>  <r_i_glide_rewards>  (1) 
-0.62212789012800396

>  <r_lp_Energy>  (1) 
24.577817

>  <s_epik_Chemistry_Notes>  (1) 
This compound has an imine and may undergo hydrolysis. This compound contains an acetal/aminal-like group ( X-CH(R)-Y where X, Y are N, S, or O) that may be acid/base labile, releasing an aldehyde.

>  <s_epik_cmdline>  (1) 
J2VwaWtfcHl0aG9uJywgJy1waHQnLCAnMS4wJywgJy1waCcsICc3LjQnLCAnLXRuJywgJzgnLCAnLW1hJywgJzUwMCcsICctaW1hZScsICc8aW5maWxlLm1hZT4nLCAnLW9tYWUnLCAnPG91dGZpbGUubWFlPic=

>  <s_epik_input>  (1) 
W1NIXVMoPU8pKD1PKVtDQEBdMShbQ0gyXVtDSDNdKVtDQEBdKFtDSDNdKShbQ0BASF0xW09IXSlPW0NASF0oW0NAQEhdMltDSDNdKVtOSF1bQ0BASF0oRilbQ0BIXTJbQ0gyXS9bQ0hdPVtDSF1cQyhbQ0gyXVtOSDJdKT1OXEMoPU5cW0hdKVxbQ0gyXVtDSDJdW0NIMl1bTkhdW0NIMl1bT0hd

>  <s_glide_docking_method>  (1) 
confgen

>  <s_i_glide_gridfile>  (1) 
gpcr_drd2_6luq_protein_autoprepared_prepared

>  <s_lp_Force_Field>  (1) 
S-OPLS

>  <s_lp_Variant>  (1) 
DiffSBDD_10_num_sample_50-3

>  <s_m_source_file>  (1) 
generated__ligand_DiffSBDD_2026-05-06_prepared.sdf

>  <GenAI_Model>  (1) 
DiffSBDD

>  <Protein>  (1) 
generic_title2

$$$$
DiffSBDD_12_num_sample_50
     RDKit          3D

  0  0  0  0  0  0  0  0  0  0999 V3000
M  V30 BEGIN CTAB
M  V30 COUNTS 66 67 0 0 1
M  V30 BEGIN ATOM
M  V30 1 C 5.958617 4.987695 -19.073566 0 CFG=2
M  V30 2 C 5.910898 2.323228 -13.800437 0
M  V30 3 O 8.288844 -0.630697 -16.084286 0
M  V30 4 C 5.462104 7.620064 -11.891617 0
M  V30 5 C 7.921410 4.688726 -14.142897 0
M  V30 6 C 5.925522 4.954703 -20.613148 0
M  V30 7 O 5.649398 6.317005 -18.650265 0
M  V30 8 F 6.822484 5.789597 -21.138139 0
M  V30 9 C 6.532204 6.638437 -12.413674 0 CFG=1
M  V30 10 C 8.001849 0.350237 -13.228988 0
M  V30 11 C 7.296541 4.506509 -18.477666 0
M  V30 12 C 7.221747 0.203443 -15.704937 0
M  V30 13 F 6.178731 3.719140 -21.044930 0
M  V30 14 C 6.187200 5.121034 -12.257901 0 CFG=2
M  V30 15 C 3.853673 7.313298 -17.480386 0
M  V30 16 F 4.707515 5.297126 -21.037596 0
M  V30 17 C 5.616718 0.811796 -13.818468 0
M  V30 18 C 5.854422 4.768864 -10.788620 0
M  V30 19 C 7.030018 2.691640 -12.841083 0 CFG=1
M  V30 20 C 8.219323 6.169279 -14.174253 0
M  V30 21 C 5.825542 6.851551 -14.907518 0
M  V30 22 C 6.972634 7.004400 -13.861296 0 CFG=1
M  V30 23 C 6.174973 7.060618 -16.396308 0
M  V30 24 C 8.278774 1.851828 -13.168049 0
M  V30 25 C 6.866515 0.015129 -14.212540 0 CFG=2
M  V30 26 C 7.353070 4.213949 -12.785278 0 CFG=1
M  V30 27 C 5.114318 6.455492 -17.339394 0 CFG=2
M  V30 28 F 8.290074 5.343654 -18.774442 0
M  V30 29 H 5.175015 4.306174 -18.741587 0
M  V30 30 H 5.010065 2.855003 -13.491664 0
M  V30 31 H 6.234837 2.640742 -14.791232 0
M  V30 32 H 8.095346 -1.519237 -15.792277 0
M  V30 33 H 4.634852 7.769470 -12.574529 0
M  V30 34 H 5.035108 7.348883 -10.930060 0
M  V30 35 H 5.926808 8.585786 -11.731765 0
M  V30 36 H 8.860508 4.187913 -14.368309 0
M  V30 37 H 7.247600 4.466761 -14.965947 0
M  V30 38 H 7.396196 6.808538 -11.768619 0
M  V30 39 H 7.713771 0.004110 -12.239519 0
M  V30 40 H 8.916403 -0.183028 -13.492395 0
M  V30 41 H 7.251035 4.421539 -17.393791 0
M  V30 42 H 7.576014 3.527622 -18.865999 0
M  V30 43 H 7.497101 1.229888 -15.942185 0
M  V30 44 H 6.360105 -0.043005 -16.326434 0
M  V30 45 H 5.288754 4.927229 -12.839019 0
M  V30 46 H 3.488551 7.681350 -16.522923 0
M  V30 47 H 4.052539 8.169300 -18.120041 0
M  V30 48 H 3.048834 6.744315 -17.944615 0
M  V30 49 H 4.795148 0.571826 -14.495675 0
M  V30 50 H 5.284232 0.494553 -12.829079 0
M  V30 51 H 6.697332 4.980658 -10.129574 0
M  V30 52 H 4.998561 5.322926 -10.412106 0
M  V30 53 H 5.581613 3.724912 -10.654492 0
M  V30 54 H 6.634837 2.378340 -11.891668 0
M  V30 55 H 9.004173 6.384225 -13.448102 0
M  V30 56 H 8.628925 6.397018 -15.152985 0
M  V30 57 H 5.378692 5.865287 -14.801228 0
M  V30 58 H 5.034856 7.561018 -14.676569 0
M  V30 59 H 7.297317 8.045418 -13.873110 0
M  V30 60 H 6.325047 8.118356 -16.610446 0
M  V30 61 H 7.112005 6.568896 -16.624655 0
M  V30 62 H 9.080672 2.079250 -12.465606 0
M  V30 63 H 8.634837 2.113530 -14.156195 0
M  V30 64 H 6.623601 -1.030702 -14.069533 0
M  V30 65 H 8.164627 4.331458 -12.064012 0
M  V30 66 H 4.810679 5.488023 -16.949734 0
M  V30 END ATOM
M  V30 BEGIN BOND
M  V30 1 1 6 1
M  V30 2 1 7 1
M  V30 3 1 8 6
M  V30 4 1 9 4
M  V30 5 1 11 1
M  V30 6 1 12 3
M  V30 7 1 13 6
M  V30 8 1 14 9
M  V30 9 1 16 6
M  V30 10 1 17 2
M  V30 11 1 18 14
M  V30 12 1 19 2
M  V30 13 1 20 5
M  V30 14 1 22 9
M  V30 15 1 22 20
M  V30 16 1 22 21
M  V30 17 1 23 21
M  V30 18 1 24 10
M  V30 19 1 24 19
M  V30 20 1 25 10
M  V30 21 1 25 12
M  V30 22 1 25 17
M  V30 23 1 26 5
M  V30 24 1 26 14
M  V30 25 1 26 19
M  V30 26 1 27 7
M  V30 27 1 27 15
M  V30 28 1 27 23
M  V30 29 1 28 11
M  V30 30 1 1 29 CFG=1
M  V30 31 1 30 2
M  V30 32 1 31 2
M  V30 33 1 32 3
M  V30 34 1 33 4
M  V30 35 1 34 4
M  V30 36 1 35 4
M  V30 37 1 36 5
M  V30 38 1 37 5
M  V30 39 1 9 38 CFG=1
M  V30 40 1 39 10
M  V30 41 1 40 10
M  V30 42 1 41 11
M  V30 43 1 42 11
M  V30 44 1 43 12
M  V30 45 1 44 12
M  V30 46 1 14 45 CFG=3
M  V30 47 1 46 15
M  V30 48 1 47 15
M  V30 49 1 48 15
M  V30 50 1 49 17
M  V30 51 1 50 17
M  V30 52 1 51 18
M  V30 53 1 52 18
M  V30 54 1 53 18
M  V30 55 1 19 54 CFG=1
M  V30 56 1 55 20
M  V30 57 1 56 20
M  V30 58 1 57 21
M  V30 59 1 58 21
M  V30 60 1 22 59 CFG=1
M  V30 61 1 60 23
M  V30 62 1 61 23
M  V30 63 1 62 24
M  V30 64 1 63 24
M  V30 65 1 25 64 CFG=3
M  V30 66 1 26 65 CFG=1
M  V30 67 1 27 66 CFG=1
M  V30 END BOND
M  V30 END CTAB
M  END
>  <i_epik_Tot_Q>  (1) 
0

>  <i_epik_Tot_abs_Q>  (1) 
0

>  <i_i_glide_confnum>  (1) 
72

>  <i_i_glide_lignum>  (1) 
47

>  <i_i_glide_posenum>  (1) 
117

>  <i_i_glide_rotatable_bonds>  (1) 
10

>  <i_lp_mmshare_version>  (1) 
72125

>  <i_m_source_file_index>  (1) 
13

>  <i_f3d_flags>  (1) 
0

>  <num_sample>  (1) 
50

>  <b_lp_Chiralities_Consistent>  (1) 
1

>  <r_epik_Charging_Adjusted_Penalty>  (1) 
0

>  <r_epik_Ionization_Penalty>  (1) 
3.7258490457677376e-07

>  <r_epik_Ionization_Penalty_Charging>  (1) 
0

>  <r_epik_Ionization_Penalty_Neutral>  (1) 
3.7258490457677376e-07

>  <r_epik_State_Penalty>  (1) 
-0

>  <r_glide_ring_energy>  (1) 
0

>  <r_i_docking_score>  (1) 
-4.9176126741668265

>  <r_i_glide_ecoul>  (1) 
-4.1968818985358594

>  <r_i_glide_eff_state_penalty>  (1) 
-0

>  <r_i_glide_einternal>  (1) 
5.8685113944855125

>  <r_i_glide_emodel>  (1) 
-27.326446912656223

>  <r_i_glide_emodel_strain>  (1) 
1.4427399675993655

>  <r_i_glide_energy>  (1) 
-26.436128542102598

>  <r_i_glide_erotb>  (1) 
0.81823453102936505

>  <r_i_glide_esite>  (1) 
0

>  <r_i_glide_evdw>  (1) 
-22.239246643566737

>  <r_i_glide_gscore>  (1) 
-4.9176126741668265

>  <r_i_glide_gscore_strain>  (1) 
0

>  <r_i_glide_hbond>  (1) 
-0.32000000000000001

>  <r_i_glide_ligand_efficiency>  (1) 
-0.17562902407738665

>  <r_i_glide_ligand_efficiency_ln>  (1) 
-1.1351293925798409

>  <r_i_glide_ligand_efficiency_sa>  (1) 
-0.53331315765467757

>  <r_i_glide_lipo>  (1) 
-2.2570740542425893

>  <r_i_glide_metal>  (1) 
-0

>  <r_i_glide_rewards>  (1) 
-1.4172785339948857

>  <r_lp_Energy>  (1) 
30.869408

>  <r_lp_tautomer_probability>  (1) 
1

>  <s_epik_cmdline>  (1) 
J2VwaWtfcHl0aG9uJywgJy1waHQnLCAnMS4wJywgJy1waCcsICc3LjQnLCAnLXRuJywgJzgnLCAnLW1hJywgJzUwMCcsICctaW1hZScsICc8aW5maWxlLm1hZT4nLCAnLW9tYWUnLCAnPG91dGZpbGUubWFlPic=

>  <s_epik_input>  (1) 
RkMoRikoRilbQ0BASF0oW0NIMl1GKU9bQ0BIXShbQ0gzXSlbQ0gyXVtDSDJdW0NAQEhdMVtDSDJdW0NIMl1bQ0BASF0oW0NAQEhdKFtDSDNdKVtDQEBIXTFbQ0gzXSlbQ0BIXTJbQ0gyXVtDSDJdW0NASF0oW0NIMl1bQ0gyXTIpW0NIMl1bT0hd

>  <s_glide_docking_method>  (1) 
confgen

>  <s_i_glide_gridfile>  (1) 
gpcr_drd2_6luq_protein_autoprepared_prepared

>  <s_lp_Force_Field>  (1) 
S-OPLS

>  <s_lp_Variant>  (1) 
DiffSBDD_12_num_sample_50-1

>  <s_m_source_file>  (1) 
generated__ligand_DiffSBDD_2026-05-06_prepared.sdf

>  <GenAI_Model>  (1) 
DiffSBDD

>  <Protein>  (1) 
generic_title2

$$$$
DiffSBDD_9_num_sample_50
     RDKit          3D

  0  0  0  0  0  0  0  0  0  0999 V3000
M  V30 BEGIN CTAB
M  V30 COUNTS 38 40 0 0 1
M  V30 BEGIN ATOM
M  V30 1 C 8.778839 6.139361 -11.055869 0 CFG=2
M  V30 2 F 10.234378 4.968838 -8.291108 0
M  V30 3 C 8.008171 0.969005 -14.418058 0
M  V30 4 C 7.026579 6.835818 -12.734583 0
M  V30 5 C 8.012708 0.653121 -16.944283 0
M  V30 6 C 7.250743 3.643752 -14.690269 0
M  V30 7 C 7.434862 2.872272 -15.853757 0
M  V30 8 F 9.840426 6.579088 -6.916839 0
M  V30 9 F 9.434841 8.306844 -9.100503 0
M  V30 10 C 8.472630 7.005348 -12.279993 0
M  V30 11 C 7.815556 1.516016 -15.715722 0
M  V30 12 O 9.987895 6.652808 -10.503151 0
M  V30 13 C 6.838692 4.983483 -14.624695 0
M  V30 14 F 11.342350 7.343002 -8.923939 0
M  V30 15 C 10.038492 7.099820 -9.213293 0
M  V30 16 C 6.636549 5.403263 -13.154856 0 CFG=1
M  V30 17 C 7.829299 1.788363 -13.279629 0
M  V30 18 C 9.561190 6.094722 -8.128544 0
M  V30 19 C 7.241058 4.123088 -12.315411 0 CFG=1
M  V30 20 C 7.449047 3.130943 -13.460152 0
M  V30 21 F 8.273608 5.768910 -8.157041 0
M  V30 22 C 6.628368 5.777474 -15.691658 0
M  V30 23 S 8.891050 4.414844 -11.576759 0
M  V30 24 H 7.945217 6.169309 -10.363073 0
M  V30 25 H 8.298199 -0.065667 -14.300365 0
M  V30 26 H 6.384557 7.135693 -11.904084 0
M  V30 27 H 6.807024 7.545742 -13.529853 0
M  V30 28 H 8.242876 -0.377727 -16.673729 0
M  V30 29 H 8.835041 1.038449 -17.548339 0
M  V30 30 H 7.107307 0.650444 -17.552500 0
M  V30 31 H 7.275470 3.298689 -16.832267 0
M  V30 32 H 9.158943 6.766664 -13.091656 0
M  V30 33 H 8.631618 8.055535 -12.030998 0
M  V30 34 H 5.553853 5.333847 -13.036413 0
M  V30 35 H 7.985830 1.389020 -12.291672 0
M  V30 36 H 6.536829 3.760896 -11.565606 0
M  V30 37 H 6.781484 5.417153 -16.696738 0
M  V30 38 H 6.300097 6.798041 -15.569497 0
M  V30 END ATOM
M  V30 BEGIN BOND
M  V30 1 1 7 6
M  V30 2 1 10 1
M  V30 3 1 10 4
M  V30 4 1 11 3
M  V30 5 1 11 5
M  V30 6 2 11 7
M  V30 7 1 12 1
M  V30 8 1 13 6
M  V30 9 1 15 9
M  V30 10 1 15 12
M  V30 11 1 15 14
M  V30 12 1 16 4
M  V30 13 1 16 13
M  V30 14 2 17 3
M  V30 15 1 18 2
M  V30 16 1 18 8
M  V30 17 1 18 15
M  V30 18 1 19 16
M  V30 19 2 20 6
M  V30 20 1 20 17
M  V30 21 1 20 19
M  V30 22 1 21 18
M  V30 23 2 22 13
M  V30 24 1 23 1
M  V30 25 1 23 19
M  V30 26 1 1 24 CFG=1
M  V30 27 1 25 3
M  V30 28 1 26 4
M  V30 29 1 27 4
M  V30 30 1 28 5
M  V30 31 1 29 5
M  V30 32 1 30 5
M  V30 33 1 31 7
M  V30 34 1 32 10
M  V30 35 1 33 10
M  V30 36 1 16 34 CFG=3
M  V30 37 1 35 17
M  V30 38 1 19 36 CFG=1
M  V30 39 1 37 22
M  V30 40 1 38 22
M  V30 END BOND
M  V30 END CTAB
M  END
>  <i_epik_Tot_Q>  (1) 
0

>  <i_epik_Tot_abs_Q>  (1) 
0

>  <i_i_glide_confnum>  (1) 
5

>  <i_i_glide_lignum>  (1) 
20

>  <i_i_glide_posenum>  (1) 
385

>  <i_i_glide_rotatable_bonds>  (1) 
3

>  <i_lp_mmshare_version>  (1) 
72125

>  <i_m_source_file_index>  (1) 
10

>  <i_f3d_flags>  (1) 
0

>  <num_sample>  (1) 
50

>  <b_lp_Chiralities_Consistent>  (1) 
1

>  <r_epik_Charging_Adjusted_Penalty>  (1) 
0

>  <r_epik_Ionization_Penalty>  (1) 
0

>  <r_epik_Ionization_Penalty_Charging>  (1) 
0

>  <r_epik_Ionization_Penalty_Neutral>  (1) 
0

>  <r_epik_State_Penalty>  (1) 
-0

>  <r_glide_ring_energy>  (1) 
0

>  <r_i_docking_score>  (1) 
-4.916708272813338

>  <r_i_glide_ecoul>  (1) 
-1.3373199611833582

>  <r_i_glide_eff_state_penalty>  (1) 
-0

>  <r_i_glide_einternal>  (1) 
2.5144544928600592

>  <r_i_glide_emodel>  (1) 
-30.369388346078864

>  <r_i_glide_emodel_strain>  (1) 
0.33935944543055285

>  <r_i_glide_energy>  (1) 
-25.088513307433104

>  <r_i_glide_erotb>  (1) 
0.31055348549958028

>  <r_i_glide_esite>  (1) 
-0.20000000000000001

>  <r_i_glide_evdw>  (1) 
-23.751193346249746

>  <r_i_glide_gscore>  (1) 
-4.916708272813338

>  <r_i_glide_gscore_strain>  (1) 
0

>  <r_i_glide_hbond>  (1) 
0

>  <r_i_glide_ligand_efficiency>  (1) 
-0.21376992490492774

>  <r_i_glide_ligand_efficiency_ln>  (1) 
-1.188904642612024

>  <r_i_glide_ligand_efficiency_sa>  (1) 
-0.60793323072247285

>  <r_i_glide_lipo>  (1) 
-1.6515528969161457

>  <r_i_glide_metal>  (1) 
-0

>  <r_i_glide_rewards>  (1) 
-1.9875511999067816

>  <r_lp_Energy>  (1) 
13.417608

>  <r_lp_tautomer_probability>  (1) 
1

>  <s_epik_Chemistry_Notes>  (1) 
This compound contains an acetal/aminal-like group ( X-CH(R)-Y where X, Y are N, S, or O) that may be acid/base labile, releasing an aldehyde.

>  <s_epik_cmdline>  (1) 
J2VwaWtfcHl0aG9uJywgJy1waHQnLCAnMS4wJywgJy1waCcsICc3LjQnLCAnLXRuJywgJzgnLCAnLW1hJywgJzUwMCcsICctaW1hZScsICc8aW5maWxlLm1hZT4nLCAnLW9tYWUnLCAnPG91dGZpbGUubWFlPic=

>  <s_epik_input>  (1) 
RkMoRikoRilDKEYpKEYpT1tDQEhdKFMxKVtDSDJdW0NIMl1bQ0BASF0oQzI9W0NIMl0pW0NASF0xYyhjMjMpW2NIXVtjSF1jKFtDSDNdKVtjSF0z

>  <s_glide_docking_method>  (1) 
confgen

>  <s_i_glide_gridfile>  (1) 
gpcr_drd2_6luq_protein_autoprepared_prepared

>  <s_lp_Force_Field>  (1) 
S-OPLS

>  <s_lp_Variant>  (1) 
DiffSBDD_9_num_sample_50-1

>  <s_m_source_file>  (1) 
generated__ligand_DiffSBDD_2026-05-06_prepared.sdf

>  <GenAI_Model>  (1) 
DiffSBDD

>  <Protein>  (1) 
generic_title2

$$$$
DiffSBDD_30_num_sample_50
     RDKit          3D

  0  0  0  0  0  0  0  0  0  0999 V3000
M  V30 BEGIN CTAB
M  V30 COUNTS 51 53 0 0 1
M  V30 BEGIN ATOM
M  V30 1 C 8.117115 4.865476 -13.547262 0 CFG=1
M  V30 2 O 5.434857 4.166560 -11.242353 0 CHG=-1
M  V30 3 C 11.034890 7.103543 -4.897220 0
M  V30 4 N 7.162042 4.979880 -12.423697 0
M  V30 5 C 9.695099 6.245496 -12.146549 0
M  V30 6 C 10.567873 7.801805 -7.189602 0
M  V30 7 O 6.198559 3.014266 -12.932468 0
M  V30 8 C 11.313618 8.977623 -6.977111 0
M  V30 9 C 10.868998 5.312218 -18.069992 0
M  V30 10 C 5.931037 6.457991 -16.293379 0
M  V30 11 C 6.235014 4.022244 -12.190734 0
M  V30 12 C 10.429999 6.862351 -6.144864 0
M  V30 13 C 11.761415 8.291962 -4.683154 0
M  V30 14 F 12.330529 8.530081 -3.477951 0
M  V30 15 O 8.478816 4.963461 -18.518603 0
M  V30 16 C 8.284396 4.918923 -16.085969 0
M  V30 17 C 6.629658 6.082244 -17.457017 0
M  V30 18 O 9.969608 7.584537 -8.407782 0
M  V30 19 C 7.586035 5.295075 -14.919820 0
M  V30 20 C 10.243242 6.341805 -9.039424 0
M  V30 21 C 9.016433 5.768900 -9.770177 0
M  V30 22 C 11.898964 9.228206 -5.722694 0
M  V30 23 C 9.449984 5.518156 -13.243304 0
M  V30 24 C 9.755024 4.329442 -18.467850 0
M  V30 25 C 7.242430 6.194700 -11.587390 0
M  V30 26 C 8.664297 6.514973 -11.074122 0 CFG=2
M  V30 27 C 7.807851 5.315484 -17.361750 0
M  V30 28 C 6.405992 6.068000 -15.027075 0
M  V30 29 H 8.386971 3.812555 -13.647981 0
M  V30 30 H 10.930009 6.383304 -4.098890 0
M  V30 31 H 10.673286 6.677666 -12.000721 0
M  V30 32 H 11.434528 9.693210 -7.775734 0
M  V30 33 H 11.842479 4.822749 -18.102569 0
M  V30 34 H 10.900599 6.160774 -18.753086 0
M  V30 35 H 10.734132 5.707966 -17.063750 0
M  V30 36 H 5.028896 7.046616 -16.372635 0
M  V30 37 H 9.857551 5.959630 -6.298956 0
M  V30 38 H 9.182486 4.330129 -15.996720 0
M  V30 39 H 6.262206 6.384834 -18.426304 0
M  V30 40 H 10.635189 5.584833 -8.360233 0
M  V30 41 H 11.036412 6.569222 -9.745384 0
M  V30 42 H 8.168569 5.769275 -9.084232 0
M  V30 43 H 9.193762 4.719003 -10.007304 0
M  V30 44 H 12.461442 10.135165 -5.560571 0
M  V30 45 H 10.234824 5.369797 -13.968458 0
M  V30 46 H 9.744516 3.437423 -17.841044 0
M  V30 47 H 9.963033 3.965238 -19.474107 0
M  V30 48 H 6.899261 7.030228 -12.196827 0
M  V30 49 H 6.560020 6.169736 -10.736300 0
M  V30 50 H 8.687183 7.584468 -10.863049 0
M  V30 51 H 5.865030 6.360538 -14.140431 0
M  V30 END ATOM
M  V30 BEGIN BOND
M  V30 1 1 4 1
M  V30 2 2 8 6
M  V30 3 1 11 2
M  V30 4 1 11 4
M  V30 5 2 11 7
M  V30 6 2 12 3
M  V30 7 1 12 6
M  V30 8 1 13 3
M  V30 9 1 14 13
M  V30 10 2 17 10
M  V30 11 1 18 6
M  V30 12 1 19 1
M  V30 13 1 19 16
M  V30 14 1 20 18
M  V30 15 1 21 20
M  V30 16 1 22 8
M  V30 17 2 22 13
M  V30 18 1 23 1
M  V30 19 2 23 5
M  V30 20 1 24 9
M  V30 21 1 24 15
M  V30 22 1 25 4
M  V30 23 1 26 5
M  V30 24 1 26 21
M  V30 25 1 26 25
M  V30 26 1 27 15
M  V30 27 2 27 16
M  V30 28 1 27 17
M  V30 29 1 28 10
M  V30 30 2 28 19
M  V30 31 1 1 29 CFG=3
M  V30 32 1 30 3
M  V30 33 1 31 5
M  V30 34 1 32 8
M  V30 35 1 33 9
M  V30 36 1 34 9
M  V30 37 1 35 9
M  V30 38 1 36 10
M  V30 39 1 37 12
M  V30 40 1 38 16
M  V30 41 1 39 17
M  V30 42 1 40 20
M  V30 43 1 41 20
M  V30 44 1 42 21
M  V30 45 1 43 21
M  V30 46 1 44 22
M  V30 47 1 45 23
M  V30 48 1 46 24
M  V30 49 1 47 24
M  V30 50 1 48 25
M  V30 51 1 49 25
M  V30 52 1 26 50 CFG=1
M  V30 53 1 51 28
M  V30 END BOND
M  V30 END CTAB
M  END
>  <i_epik_Tot_Q>  (1) 
-1

>  <i_epik_Tot_abs_Q>  (1) 
1

>  <i_i_glide_confnum>  (1) 
365

>  <i_i_glide_lignum>  (1) 
77

>  <i_i_glide_posenum>  (1) 
103

>  <i_i_glide_rotatable_bonds>  (1) 
8

>  <i_lp_mmshare_version>  (1) 
72125

>  <i_m_source_file_index>  (1) 
31

>  <i_f3d_flags>  (1) 
0

>  <num_sample>  (1) 
50

>  <b_lp_Chiralities_Consistent>  (1) 
1

>  <r_epik_Charging_Adjusted_Penalty>  (1) 
0.0017651190196060487

>  <r_epik_Ionization_Penalty>  (1) 
0.001765159031891192

>  <r_epik_Ionization_Penalty_Charging>  (1) 
0.0017651190196060487

>  <r_epik_Ionization_Penalty_Neutral>  (1) 
4.0012285143307813e-08

>  <r_epik_State_Penalty>  (1) 
-0

>  <r_glide_ring_energy>  (1) 
1.1509255290509894

>  <r_i_docking_score>  (1) 
-4.9065474002334524

>  <r_i_glide_ecoul>  (1) 
0.38622669777731278

>  <r_i_glide_eff_state_penalty>  (1) 
-0

>  <r_i_glide_einternal>  (1) 
16.111699020607503

>  <r_i_glide_emodel>  (1) 
-31.396416376206815

>  <r_i_glide_emodel_strain>  (1) 
0

>  <r_i_glide_energy>  (1) 
-32.22202173299911

>  <r_i_glide_erotb>  (1) 
0.6577867668732289

>  <r_i_glide_esite>  (1) 
0

>  <r_i_glide_evdw>  (1) 
-32.60824843077642

>  <r_i_glide_gscore>  (1) 
-4.9065474002334524

>  <r_i_glide_gscore_strain>  (1) 
0

>  <r_i_glide_hbond>  (1) 
0

>  <r_i_glide_ligand_efficiency>  (1) 
-0.1752338357226233

>  <r_i_glide_ligand_efficiency_ln>  (1) 
-1.1325752024654581

>  <r_i_glide_ligand_efficiency_sa>  (1) 
-0.53211313305478947

>  <r_i_glide_lipo>  (1) 
-2.4336946603787988

>  <r_i_glide_metal>  (1) 
-0

>  <r_i_glide_rewards>  (1) 
-1.5581610898556586

>  <r_lp_Energy>  (1) 
49.407502999999998

>  <r_lp_tautomer_probability>  (1) 
1

>  <s_epik_cmdline>  (1) 
J2VwaWtfcHl0aG9uJywgJy1waHQnLCAnMS4wJywgJy1waCcsICc3LjQnLCAnLXRuJywgJzgnLCAnLW1hJywgJzUwMCcsICctaW1hZScsICc8aW5maWxlLm1hZT4nLCAnLW9tYWUnLCAnPG91dGZpbGUubWFlPic=

>  <s_epik_input>  (1) 
W0NIM11bQ0gyXU9jKFtjSF1bY0hdW2NIXTEpW2NIXWMxW0NAQEhdMk4oQyg9TylbT0hdKVtDSDJdW0NASF0oW0NIXT1bQ0hdMilbQ0gyXVtDSDJdT2MzW2NIXVtjSF1jKEYpW2NIXVtjSF0z

>  <s_glide_docking_method>  (1) 
confgen

>  <s_i_glide_gridfile>  (1) 
gpcr_drd2_6luq_protein_autoprepared_prepared

>  <s_lp_Force_Field>  (1) 
S-OPLS

>  <s_lp_Variant>  (1) 
DiffSBDD_30_num_sample_50-1

>  <s_m_source_file>  (1) 
generated__ligand_DiffSBDD_2026-05-06_prepared.sdf

>  <GenAI_Model>  (1) 
DiffSBDD

>  <Protein>  (1) 
generic_title2

$$$$
DiffSBDD_43_num_sample_50
     RDKit          3D

  0  0  0  0  0  0  0  0  0  0999 V3000
M  V30 BEGIN CTAB
M  V30 COUNTS 59 59 0 0 1
M  V30 BEGIN ATOM
M  V30 1 C 9.034795 5.606664 -9.737367 0
M  V30 2 C 7.213517 3.113848 -13.382492 0
M  V30 3 N 11.834845 9.393765 -2.705796 0
M  V30 4 O 10.529435 8.492495 -7.325530 0
M  V30 5 C 9.836701 6.576346 -12.073774 0
M  V30 6 C 7.588850 5.753882 -13.270141 0 CFG=2
M  V30 7 C 11.251461 7.823073 -9.497137 0 CFG=1
M  V30 8 O 6.252950 4.503572 -11.661666 0
M  V30 9 O 6.634811 -0.227860 -12.294350 0
M  V30 10 N 9.834874 7.954732 -9.913965 0 CHG=1
M  V30 11 C 6.419775 0.841389 -12.735268 0
M  V30 12 F 12.054919 8.168369 -10.499729 0
M  V30 13 O 8.614246 4.569298 -10.266735 0
M  V30 14 C 12.555440 6.975486 -2.871103 0
M  V30 15 C 12.127870 9.490880 -4.131221 0 CFG=2
M  V30 16 C 11.533085 8.722186 -8.295922 0
M  V30 17 C 9.229549 6.831052 -10.659457 0 CFG=2
M  V30 18 C 9.123580 5.559130 -13.016894 0
M  V30 19 O 10.827315 9.369850 -6.154527 0
M  V30 20 C 6.668852 4.515149 -13.011647 0 CFG=2
M  V30 21 F 13.034683 8.399094 -1.099714 0
M  V30 22 C 11.302457 8.647354 -5.091052 0
M  V30 23 C 6.152466 2.037399 -13.207703 0
M  V30 24 O 9.303998 5.746155 -8.520714 0 CHG=-1
M  V30 25 C 11.011120 7.330571 -4.952539 0
M  V30 26 C 11.468242 6.444030 -3.805874 0
M  V30 27 C 7.269698 6.433311 -14.622003 0
M  V30 28 C 7.510346 5.574964 -15.874257 0
M  V30 29 F 13.434572 9.369440 -4.351884 0
M  V30 30 C 12.093669 8.148144 -2.005748 0 CFG=1
M  V30 31 H 7.531679 3.106258 -14.423993 0
M  V30 32 H 8.087493 2.847382 -12.786237 0
M  V30 33 H 12.366337 10.105739 -2.218991 0
M  V30 34 H 10.874442 6.260943 -11.964013 0
M  V30 35 H 9.875320 7.533943 -12.592967 0
M  V30 36 H 7.240407 6.502480 -12.562980 0
M  V30 37 H 11.498183 6.797480 -9.234029 0
M  V30 38 H 7.035342 4.484196 -11.105876 0
M  V30 39 H 9.673170 8.821864 -10.397845 0
M  V30 40 H 12.846011 6.160813 -2.205284 0
M  V30 41 H 13.456472 7.225771 -3.421003 0
M  V30 42 H 11.883947 10.516067 -4.409973 0
M  V30 43 H 12.518683 8.508949 -7.881322 0
M  V30 44 H 11.520378 9.768511 -8.596038 0
M  V30 45 H 8.234851 7.189981 -10.856392 0
M  V30 46 H 9.339250 4.562145 -12.645323 0
M  V30 47 H 9.648811 5.572041 -13.970261 0
M  V30 48 H 5.747115 4.665032 -13.576634 0
M  V30 49 H 5.147653 2.304816 -13.491378 0
M  V30 50 H 10.396512 6.843825 -5.697047 0
M  V30 51 H 10.588884 6.165532 -3.225544 0
M  V30 52 H 11.833255 5.528023 -4.265224 0
M  V30 53 H 6.225080 6.747313 -14.621482 0
M  V30 54 H 7.834767 7.360243 -14.691430 0
M  V30 55 H 7.361837 6.168737 -16.776293 0
M  V30 56 H 8.522286 5.168388 -15.907712 0
M  V30 57 H 6.809765 4.741138 -15.924161 0
M  V30 58 H 11.203961 7.871823 -1.439931 0
M  V30 59 H 9.278438 7.949640 -9.064419 0
M  V30 END ATOM
M  V30 BEGIN BOND
M  V30 1 1 10 7
M  V30 2 2 11 9
M  V30 3 1 12 7
M  V30 4 2 13 1
M  V30 5 1 15 3
M  V30 6 1 16 4
M  V30 7 1 16 7
M  V30 8 1 17 1
M  V30 9 1 17 5
M  V30 10 1 17 10
M  V30 11 1 18 5
M  V30 12 1 18 6
M  V30 13 1 19 4
M  V30 14 1 20 2
M  V30 15 1 20 6
M  V30 16 1 20 8
M  V30 17 1 22 15
M  V30 18 1 22 19
M  V30 19 1 23 2
M  V30 20 2 23 11
M  V30 21 1 24 1
M  V30 22 2 25 22
M  V30 23 1 26 14
M  V30 24 1 26 25
M  V30 25 1 27 6
M  V30 26 1 28 27
M  V30 27 1 29 15
M  V30 28 1 30 3
M  V30 29 1 30 14
M  V30 30 1 30 21
M  V30 31 1 31 2
M  V30 32 1 32 2
M  V30 33 1 33 3
M  V30 34 1 34 5
M  V30 35 1 35 5
M  V30 36 1 6 36 CFG=1
M  V30 37 1 7 37 CFG=1
M  V30 38 1 38 8
M  V30 39 1 39 10
M  V30 40 1 40 14
M  V30 41 1 41 14
M  V30 42 1 15 42 CFG=3
M  V30 43 1 43 16
M  V30 44 1 44 16
M  V30 45 1 17 45 CFG=3
M  V30 46 1 46 18
M  V30 47 1 47 18
M  V30 48 1 20 48 CFG=3
M  V30 49 1 49 23
M  V30 50 1 50 25
M  V30 51 1 51 26
M  V30 52 1 52 26
M  V30 53 1 53 27
M  V30 54 1 54 27
M  V30 55 1 55 28
M  V30 56 1 56 28
M  V30 57 1 57 28
M  V30 58 1 30 58 CFG=1
M  V30 59 1 59 10
M  V30 END BOND
M  V30 END CTAB
M  END
>  <i_epik_Tot_Q>  (1) 
0

>  <i_epik_Tot_abs_Q>  (1) 
2

>  <i_i_glide_confnum>  (1) 
6567

>  <i_i_glide_lignum>  (1) 
108

>  <i_i_glide_posenum>  (1) 
344

>  <i_i_glide_rotatable_bonds>  (1) 
15

>  <i_lp_mmshare_version>  (1) 
72125

>  <i_m_source_file_index>  (1) 
44

>  <i_f3d_flags>  (1) 
0

>  <num_sample>  (1) 
50

>  <b_lp_Chiralities_Consistent>  (1) 
1

>  <r_epik_Charging_Adjusted_Penalty>  (1) 
2.1322098409762558

>  <r_epik_Ionization_Penalty>  (1) 
1.0661195873001319

>  <r_epik_Ionization_Penalty_Charging>  (1) 
1.0661068903442914

>  <r_epik_Ionization_Penalty_Neutral>  (1) 
1.2696955840525338e-05

>  <r_epik_State_Penalty>  (1) 
1.0661029506319644

>  <r_glide_ring_energy>  (1) 
0

>  <r_i_docking_score>  (1) 
-4.9032490465730074

>  <r_i_glide_ecoul>  (1) 
-2.4481111777778777

>  <r_i_glide_eff_state_penalty>  (1) 
1.0661029506319644

>  <r_i_glide_einternal>  (1) 
19.050592714780144

>  <r_i_glide_emodel>  (1) 
-41.487653658363911

>  <r_i_glide_emodel_strain>  (1) 
5.3183008797918063

>  <r_i_glide_energy>  (1) 
-40.728953898486374

>  <r_i_glide_erotb>  (1) 
1.1415552716364241

>  <r_i_glide_esite>  (1) 
-0.17713608518519897

>  <r_i_glide_evdw>  (1) 
-38.280842720708499

>  <r_i_glide_gscore>  (1) 
-5.9693519972049716

>  <r_i_glide_gscore_strain>  (1) 
0.32957521994795158

>  <r_i_glide_hbond>  (1) 
-0.19982988297336152

>  <r_i_glide_ligand_efficiency>  (1) 
-0.16344163488576691

>  <r_i_glide_ligand_efficiency_ln>  (1) 
-1.1140716085587705

>  <r_i_glide_ligand_efficiency_sa>  (1) 
-0.50785116074329717

>  <r_i_glide_lipo>  (1) 
-3.3533704883963922

>  <r_i_glide_metal>  (1) 
-0

>  <r_i_glide_rewards>  (1) 
-1.4288872195322879

>  <r_lp_Energy>  (1) 
8.1104409999999998

>  <s_epik_cmdline>  (1) 
J2VwaWtfcHl0aG9uJywgJy1waHQnLCAnMS4wJywgJy1waCcsICc3LjQnLCAnLXRuJywgJzgnLCAnLW1hJywgJzUwMCcsICctaW1hZScsICc8aW5maWxlLm1hZT4nLCAnLW9tYWUnLCAnPG91dGZpbGUubWFlPic=

>  <s_epik_input>  (1) 
Tz1DPVtDSF1bQ0gyXVtDQEBIXShbT0hdKVtDQEhdKFtDSDJdW0NIM10pW0NIMl1bQ0gyXVtDQEBIXShDKD1PKVtPSF0pW05IXVtDQEBIXShGKVtDSDJdT09DMT1bQ0hdW0NIMl1bQ0gyXVtDQEBIXShGKVtOSF1bQ0BIXTFG

>  <s_glide_docking_method>  (1) 
confgen

>  <s_i_glide_gridfile>  (1) 
gpcr_drd2_6luq_protein_autoprepared_prepared

>  <s_lp_Force_Field>  (1) 
S-OPLS

>  <s_lp_Variant>  (1) 
DiffSBDD_43_num_sample_50-3

>  <s_m_source_file>  (1) 
generated__ligand_DiffSBDD_2026-05-06_prepared.sdf

>  <GenAI_Model>  (1) 
DiffSBDD

>  <Protein>  (1) 
generic_title2

$$$$
DiffSBDD_10_num_sample_50
     RDKit          3D

  0  0  0  0  0  0  0  0  0  0999 V3000
M  V30 BEGIN CTAB
M  V30 COUNTS 72 73 0 0 1
M  V30 BEGIN ATOM
M  V30 1 C 6.385290 0.771771 -17.161663 0 CFG=2
M  V30 2 C 11.235101 8.969304 -7.427028 0
M  V30 3 C 9.034818 6.481375 -10.331297 0
M  V30 4 C 7.728441 4.031216 -12.300209 0 CFG=1
M  V30 5 C 6.328728 1.037846 -15.625960 0 CFG=2
M  V30 6 N 12.952283 8.433891 -9.043303 0
M  V30 7 N 8.234973 3.891113 -14.615661 0
M  V30 8 C 7.446422 2.758588 -14.248023 0 CFG=1
M  V30 9 S 5.401493 -0.689233 -17.827900 0
M  V30 10 C 12.158197 9.529259 -6.365047 0
M  V30 11 S 6.830503 -1.430888 -19.207267 0 CHG=-1
M  V30 12 C 5.699605 2.272781 -19.204830 0
M  V30 13 O 11.834849 9.369265 -2.087047 0
M  V30 14 O 5.224697 -1.715832 -16.792653 0
M  V30 15 C 7.449455 0.239069 -16.225534 0 CFG=2
M  V30 16 C 10.247464 6.041001 -8.090022 0
M  V30 17 C 8.373879 4.785594 -13.476475 0 CFG=1
M  V30 18 N 12.883098 9.296764 -4.017315 0 CHG=1
M  V30 19 N 10.738672 7.978909 -9.542206 0
M  V30 20 C 11.858344 8.896034 -5.001884 0
M  V30 21 C 5.341087 3.856347 -13.271514 0
M  V30 22 C 6.784516 1.817522 -18.221512 0
M  V30 23 C 5.292132 0.430077 -14.697681 0
M  V30 24 C 7.217820 4.923048 -11.149134 0
M  V30 25 C 10.056376 6.915498 -9.344206 0
M  V30 26 O 8.634843 0.980002 -16.291859 0
M  V30 27 C 11.643259 8.482567 -8.617210 0
M  V30 28 O 4.243456 -0.230864 -18.609996 0
M  V30 29 F 7.727206 5.914385 -13.766659 0
M  V30 30 N 9.362045 6.463686 -7.017408 0
M  V30 31 C 12.819027 8.601301 -2.721462 0
M  V30 32 C 6.672392 3.136953 -12.970073 0 CFG=2
M  V30 33 O 6.634839 2.414411 -15.330040 0
M  V30 34 C 8.285148 5.369205 -10.172306 0
M  V30 35 H 10.179647 8.970167 -7.189631 0
M  V30 36 H 8.912438 7.118934 -11.194798 0
M  V30 37 H 8.488683 3.362196 -11.891767 0
M  V30 38 H 13.676390 8.927573 -8.543920 0
M  V30 39 H 7.790606 4.411093 -15.358262 0
M  V30 40 H 8.125892 1.935482 -14.018643 0
M  V30 41 H 12.006014 10.607447 -6.307054 0
M  V30 42 H 13.201067 9.369306 -6.638227 0
M  V30 43 H 6.034782 3.142117 -19.770195 0
M  V30 44 H 5.468586 1.495815 -19.933448 0
M  V30 45 H 4.783601 2.547895 -18.691688 0
M  V30 46 H 12.129512 9.595500 -1.214700 0
M  V30 47 H 7.559727 -0.827341 -16.040224 0
M  V30 48 H 10.122243 4.983213 -8.309589 0
M  V30 49 H 11.273701 6.114298 -7.730851 0
M  V30 50 H 9.417258 5.040182 -13.286393 0
M  V30 51 H 12.802518 10.285223 -3.841254 0
M  V30 52 H 11.834813 7.808691 -5.091287 0
M  V30 53 H 10.870792 9.203929 -4.657453 0
M  V30 54 H 5.431037 4.554019 -14.105055 0
M  V30 55 H 4.555264 3.138857 -13.491659 0
M  V30 56 H 4.977969 4.415487 -12.411499 0
M  V30 57 H 7.175166 2.701952 -17.720003 0
M  V30 58 H 7.618812 1.412804 -18.795747 0
M  V30 59 H 5.472972 -0.630722 -14.579275 0
M  V30 60 H 5.338649 0.864115 -13.703325 0
M  V30 61 H 4.286775 0.569202 -15.095337 0
M  V30 62 H 6.479445 4.377520 -10.560708 0
M  V30 63 H 6.701368 5.803590 -11.534602 0
M  V30 64 H 8.390846 1.891537 -16.200508 0
M  V30 65 H 8.410545 6.556579 -7.366424 0
M  V30 66 H 9.331815 5.767397 -6.286373 0
M  V30 67 H 13.758176 8.699739 -2.178121 0
M  V30 68 H 12.549864 7.547405 -2.803744 0
M  V30 69 H 6.486250 2.249514 -12.364594 0
M  V30 70 H 8.420050 4.742302 -9.309164 0
M  V30 71 H 13.167793 8.203564 -10.001772 0
M  V30 72 H 13.786119 9.105547 -4.427295 0
M  V30 END ATOM
M  V30 BEGIN BOND
M  V30 1 1 5 1
M  V30 2 1 8 7
M  V30 3 1 9 1
M  V30 4 1 10 2
M  V30 5 1 11 9
M  V30 6 2 14 9
M  V30 7 1 15 1
M  V30 8 1 15 5
M  V30 9 1 17 4
M  V30 10 1 17 7
M  V30 11 1 20 10
M  V30 12 1 20 18
M  V30 13 1 1 22 CFG=3
M  V30 14 1 22 12
M  V30 15 1 23 5
M  V30 16 1 24 4
M  V30 17 1 25 3
M  V30 18 1 25 16
M  V30 19 2 25 19
M  V30 20 1 26 15
M  V30 21 2 27 2
M  V30 22 1 27 6
M  V30 23 1 27 19
M  V30 24 2 28 9
M  V30 25 1 29 17
M  V30 26 1 30 16
M  V30 27 1 31 13
M  V30 28 1 31 18
M  V30 29 1 32 4
M  V30 30 1 32 8
M  V30 31 1 32 21
M  V30 32 1 5 33 CFG=3
M  V30 33 1 33 8
M  V30 34 2 34 3
M  V30 35 1 34 24
M  V30 36 1 35 2
M  V30 37 1 36 3
M  V30 38 1 4 37 CFG=1
M  V30 39 1 38 6
M  V30 40 1 39 7
M  V30 41 1 8 40 CFG=1
M  V30 42 1 41 10
M  V30 43 1 42 10
M  V30 44 1 43 12
M  V30 45 1 44 12
M  V30 46 1 45 12
M  V30 47 1 46 13
M  V30 48 1 15 47 CFG=1
M  V30 49 1 48 16
M  V30 50 1 49 16
M  V30 51 1 17 50 CFG=1
M  V30 52 1 51 18
M  V30 53 1 52 20
M  V30 54 1 53 20
M  V30 55 1 54 21
M  V30 56 1 55 21
M  V30 57 1 56 21
M  V30 58 1 57 22
M  V30 59 1 58 22
M  V30 60 1 59 23
M  V30 61 1 60 23
M  V30 62 1 61 23
M  V30 63 1 62 24
M  V30 64 1 63 24
M  V30 65 1 64 26
M  V30 66 1 65 30
M  V30 67 1 66 30
M  V30 68 1 67 31
M  V30 69 1 68 31
M  V30 70 1 32 69 CFG=1
M  V30 71 1 70 34
M  V30 72 1 71 6
M  V30 73 1 72 18
M  V30 END BOND
M  V30 END CTAB
M  END
>  <i_epik_Tot_Q>  (1) 
0

>  <i_epik_Tot_abs_Q>  (1) 
2

>  <i_i_glide_confnum>  (1) 
483

>  <i_i_glide_lignum>  (1) 
24

>  <i_i_glide_posenum>  (1) 
241

>  <i_i_glide_rotatable_bonds>  (1) 
15

>  <i_lp_mmshare_version>  (1) 
72125

>  <i_m_source_file_index>  (1) 
11

>  <i_f3d_flags>  (1) 
0

>  <num_sample>  (1) 
50

>  <b_lp_Chiralities_Consistent>  (1) 
1

>  <r_epik_Charging_Adjusted_Penalty>  (1) 
0.33639934582642134

>  <r_epik_Ionization_Penalty>  (1) 
0.23315943830934333

>  <r_epik_Ionization_Penalty_Charging>  (1) 
0.10316865490585193

>  <r_epik_Ionization_Penalty_Neutral>  (1) 
0.12999078340349141

>  <r_epik_State_Penalty>  (1) 
0.23323069092056939

>  <r_glide_ring_energy>  (1) 
0

>  <r_i_docking_score>  (1) 
-4.9013770382122175

>  <r_i_glide_ecoul>  (1) 
-0.97267457911407751

>  <r_i_glide_eff_state_penalty>  (1) 
0.23323069092056939

>  <r_i_glide_einternal>  (1) 
10.621452598828544

>  <r_i_glide_emodel>  (1) 
-48.1132059713714

>  <r_i_glide_emodel_strain>  (1) 
3.7003122376200963

>  <r_i_glide_energy>  (1) 
-41.426751299087769

>  <r_i_glide_erotb>  (1) 
0.82510599487301828

>  <r_i_glide_esite>  (1) 
-0.076669813914229723

>  <r_i_glide_evdw>  (1) 
-40.454076719973692

>  <r_i_glide_gscore>  (1) 
-5.134607729132787

>  <r_i_glide_gscore_strain>  (1) 
0

>  <r_i_glide_hbond>  (1) 
-0.057174630615647225

>  <r_i_glide_ligand_efficiency>  (1) 
-0.14415814818271228

>  <r_i_glide_ligand_efficiency_ln>  (1) 
-1.0828516667102777

>  <r_i_glide_ligand_efficiency_sa>  (1) 
-0.46701643810302296

>  <r_i_glide_lipo>  (1) 
-2.1877725692985255

>  <r_i_glide_metal>  (1) 
-0

>  <r_i_glide_rewards>  (1) 
-1.4694916873116055

>  <r_lp_Energy>  (1) 
19.575572999999999

>  <s_epik_Chemistry_Notes>  (1) 
This compound has an imine and may undergo hydrolysis. This compound contains an acetal/aminal-like group ( X-CH(R)-Y where X, Y are N, S, or O) that may be acid/base labile, releasing an aldehyde.

>  <s_epik_cmdline>  (1) 
J2VwaWtfcHl0aG9uJywgJy1waHQnLCAnMS4wJywgJy1waCcsICc3LjQnLCAnLXRuJywgJzgnLCAnLW1hJywgJzUwMCcsICctaW1hZScsICc8aW5maWxlLm1hZT4nLCAnLW9tYWUnLCAnPG91dGZpbGUubWFlPic=

>  <s_epik_input>  (1) 
W1NIXVMoPU8pKD1PKVtDQEBdMShbQ0gyXVtDSDNdKVtDQEBdKFtDSDNdKShbQ0BASF0xW09IXSlPW0NASF0oW0NAQEhdMltDSDNdKVtOSF1bQ0BASF0oRilbQ0BIXTJbQ0gyXVxbQ0hdPVtDSF1cQyhbQ0gyXVtOSDJdKT1OXEMoPU5cW0hdKVxbQ0gyXVtDSDJdW0NIMl1bTkhdW0NIMl1bT0hd

>  <s_glide_docking_method>  (1) 
confgen

>  <s_i_glide_gridfile>  (1) 
gpcr_drd2_6luq_protein_autoprepared_prepared

>  <s_lp_Force_Field>  (1) 
S-OPLS

>  <s_lp_Variant>  (1) 
DiffSBDD_10_num_sample_50-4

>  <s_m_source_file>  (1) 
generated__ligand_DiffSBDD_2026-05-06_prepared.sdf

>  <GenAI_Model>  (1) 
DiffSBDD

>  <Protein>  (1) 
generic_title2

$$$$
DiffSBDD_25_num_sample_50
     RDKit          3D

  0  0  0  0  0  0  0  0  0  0999 V3000
M  V30 BEGIN CTAB
M  V30 COUNTS 70 75 0 0 1
M  V30 BEGIN ATOM
M  V30 1 C 13.904152 4.340561 -17.126442 0 CFG=2
M  V30 2 C 11.788788 8.947575 -5.660898 0
M  V30 3 C 8.427971 6.858946 -11.249935 0
M  V30 4 C 10.801673 6.735633 -5.953748 0
M  V30 5 S 15.695775 6.145227 -17.398828 0
M  V30 6 C 11.553540 9.231540 -7.017968 0
M  V30 7 C 10.769750 8.564041 -9.347962 0 CFG=2
M  V30 8 C 11.435017 7.690032 -5.134334 0
M  V30 9 C 11.452176 7.564630 -10.290029 0
M  V30 10 C 12.568052 2.926913 -18.465564 0 CFG=2
M  V30 11 C 14.341026 5.558799 -16.337199 0
M  V30 12 C 9.386914 3.085032 -17.393553 0
M  V30 13 C 9.161709 4.836048 -14.505836 0
M  V30 14 C 8.421958 5.829777 -13.557767 0
M  V30 15 N 9.934469 4.279843 -16.844791 0
M  V30 16 F 12.908975 1.666221 -18.177426 0
M  V30 17 O 8.236458 2.683391 -17.227533 0
M  V30 18 C 10.555678 7.023093 -7.318567 0
M  V30 19 N 9.107800 5.989869 -12.236996 0 CFG=1 CHG=1
M  V30 20 C 10.961674 8.266216 -7.857346 0
M  V30 21 C 14.124872 4.770542 -18.555502 0 CFG=1
M  V30 22 O 15.466887 5.225584 -18.561904 0
M  V30 23 C 11.187867 2.906944 -19.112826 0
M  V30 24 C 8.801128 5.439129 -7.602774 0
M  V30 25 O 9.946301 6.093236 -8.128910 0
M  V30 26 Cl 11.834802 7.300416 -3.496771 0
M  V30 27 C 13.688069 3.553260 -19.366124 0 CFG=1
M  V30 28 N 10.633658 7.658793 -11.487050 0
M  V30 29 C 9.083076 5.156137 -16.017780 0
M  V30 30 C 12.502064 3.719236 -17.135135 0 CFG=2
M  V30 31 C 14.869260 2.612259 -19.690095 0
M  V30 32 C 11.331489 4.742070 -17.091074 0
M  V30 33 C 10.520160 6.450826 -12.292200 0
M  V30 34 C 9.350248 8.074324 -11.085868 0 CFG=2
M  V30 35 O 10.311287 2.396751 -18.121632 0
M  V30 36 O 9.433882 8.492159 -9.756767 0
M  V30 37 H 14.610208 3.540564 -16.891114 0
M  V30 38 H 12.268037 9.683861 -5.029967 0
M  V30 39 H 8.395048 6.305979 -10.313294 0
M  V30 40 H 7.413820 7.158091 -11.522179 0
M  V30 41 H 10.526540 5.775045 -5.544572 0
M  V30 42 H 11.835023 10.184479 -7.419919 0
M  V30 43 H 11.134659 9.567509 -9.568668 0
M  V30 44 H 12.507581 7.794472 -10.453707 0
M  V30 45 H 11.372659 6.569302 -9.872340 0
M  V30 46 H 14.679305 5.313900 -15.330369 0
M  V30 47 H 13.575621 6.331913 -16.283193 0
M  V30 48 H 10.220020 4.777006 -14.255215 0
M  V30 49 H 8.763693 3.837943 -14.322250 0
M  V30 50 H 7.419054 5.441470 -13.370101 0
M  V30 51 H 8.238485 6.797054 -14.026007 0
M  V30 52 H 13.471420 5.607922 -18.810527 0
M  V30 53 H 11.194855 2.242864 -19.976765 0
M  V30 54 H 10.875285 3.882458 -19.482719 0
M  V30 55 H 7.967402 5.519158 -8.300295 0
M  V30 56 H 9.029588 4.382668 -7.496678 0
M  V30 57 H 8.454484 5.833961 -6.645586 0
M  V30 58 H 13.271775 3.894128 -20.314949 0
M  V30 59 H 8.047687 5.123187 -16.358888 0
M  V30 60 H 9.415029 6.169298 -16.184184 0
M  V30 61 H 12.406723 3.042038 -16.291668 0
M  V30 62 H 15.372172 2.259159 -18.788069 0
M  V30 63 H 14.536341 1.739269 -20.252949 0
M  V30 64 H 15.616782 3.123908 -20.299377 0
M  V30 65 H 11.330514 5.376311 -17.977982 0
M  V30 66 H 11.554591 5.417399 -16.267175 0
M  V30 67 H 10.865667 6.645990 -13.306442 0
M  V30 68 H 11.153256 5.676239 -11.894182 0
M  V30 69 H 9.029104 8.904503 -11.718739 0
M  V30 70 H 9.129069 5.064273 -11.831700 0
M  V30 END ATOM
M  V30 BEGIN BOND
M  V30 1 2 6 2
M  V30 2 1 8 2
M  V30 3 2 8 4
M  V30 4 1 9 7
M  V30 5 1 11 1
M  V30 6 1 11 5
M  V30 7 1 14 13
M  V30 8 1 15 12
M  V30 9 1 10 16 CFG=1
M  V30 10 2 17 12
M  V30 11 1 18 4
M  V30 12 1 19 3
M  V30 13 1 19 14
M  V30 14 1 20 6
M  V30 15 1 20 7
M  V30 16 2 20 18
M  V30 17 1 21 1
M  V30 18 1 22 5
M  V30 19 1 22 21
M  V30 20 1 23 10
M  V30 21 1 25 18
M  V30 22 1 25 24
M  V30 23 1 26 8
M  V30 24 1 27 10
M  V30 25 1 27 21
M  V30 26 1 28 9
M  V30 27 1 29 13
M  V30 28 1 29 15
M  V30 29 1 30 1
M  V30 30 1 30 10
M  V30 31 1 31 27
M  V30 32 1 32 15
M  V30 33 1 32 30
M  V30 34 1 33 19
M  V30 35 1 33 28
M  V30 36 1 34 3
M  V30 37 1 34 28
M  V30 38 1 35 12
M  V30 39 1 35 23
M  V30 40 1 36 7
M  V30 41 1 36 34
M  V30 42 1 1 37 CFG=1
M  V30 43 1 38 2
M  V30 44 1 39 3
M  V30 45 1 40 3
M  V30 46 1 41 4
M  V30 47 1 42 6
M  V30 48 1 7 43 CFG=1
M  V30 49 1 44 9
M  V30 50 1 45 9
M  V30 51 1 46 11
M  V30 52 1 47 11
M  V30 53 1 48 13
M  V30 54 1 49 13
M  V30 55 1 50 14
M  V30 56 1 51 14
M  V30 57 1 21 52 CFG=3
M  V30 58 1 53 23
M  V30 59 1 54 23
M  V30 60 1 55 24
M  V30 61 1 56 24
M  V30 62 1 57 24
M  V30 63 1 27 58 CFG=3
M  V30 64 1 59 29
M  V30 65 1 60 29
M  V30 66 1 30 61 CFG=1
M  V30 67 1 62 31
M  V30 68 1 63 31
M  V30 69 1 64 31
M  V30 70 1 65 32
M  V30 71 1 66 32
M  V30 72 1 67 33
M  V30 73 1 68 33
M  V30 74 1 34 69 CFG=3
M  V30 75 1 19 70 CFG=1
M  V30 END BOND
M  V30 END CTAB
M  END
>  <i_epik_Tot_Q>  (1) 
1

>  <i_epik_Tot_abs_Q>  (1) 
1

>  <i_i_glide_confnum>  (1) 
5

>  <i_i_glide_lignum>  (1) 
67

>  <i_i_glide_posenum>  (1) 
368

>  <i_i_glide_rotatable_bonds>  (1) 
6

>  <i_lp_mmshare_version>  (1) 
72125

>  <i_m_source_file_index>  (1) 
26

>  <i_f3d_flags>  (1) 
0

>  <num_sample>  (1) 
50

>  <b_lp_Chiralities_Consistent>  (1) 
1

>  <r_epik_Charging_Adjusted_Penalty>  (1) 
0.023952579331408368

>  <r_epik_Ionization_Penalty>  (1) 
0.024408664809918493

>  <r_epik_Ionization_Penalty_Charging>  (1) 
0.023952579331408368

>  <r_epik_Ionization_Penalty_Neutral>  (1) 
0.00045608547851012601

>  <r_epik_State_Penalty>  (1) 
-0

>  <r_glide_ring_energy>  (1) 
0

>  <r_i_docking_score>  (1) 
-4.8692146614890488

>  <r_i_glide_ecoul>  (1) 
-3.8173305389706274

>  <r_i_glide_eff_state_penalty>  (1) 
-0

>  <r_i_glide_einternal>  (1) 
3.5774759970818675

>  <r_i_glide_emodel>  (1) 
-37.059248601822553

>  <r_i_glide_emodel_strain>  (1) 
1.967218982403125

>  <r_i_glide_energy>  (1) 
-30.375863608269785

>  <r_i_glide_erotb>  (1) 
0.35075509399968952

>  <r_i_glide_esite>  (1) 
-0.089319526332528806

>  <r_i_glide_evdw>  (1) 
-26.558533069299159

>  <r_i_glide_gscore>  (1) 
-4.8692146614890488

>  <r_i_glide_gscore_strain>  (1) 
0

>  <r_i_glide_hbond>  (1) 
0

>  <r_i_glide_ligand_efficiency>  (1) 
-0.13525596281914024

>  <r_i_glide_ligand_efficiency_ln>  (1) 
-1.0623310881593457

>  <r_i_glide_ligand_efficiency_sa>  (1) 
-0.44660534920799777

>  <r_i_glide_lipo>  (1) 
-2.1644997369142884

>  <r_i_glide_metal>  (1) 
-0

>  <r_i_glide_rewards>  (1) 
-1.0656242579313677

>  <r_lp_Energy>  (1) 
70.690685999999999

>  <r_lp_tautomer_probability>  (1) 
1

>  <s_epik_Chemistry_Notes>  (1) 
This compound has an ester and may undergo hydrolysis at high or low pH. This compound contains an acetal/aminal-like group ( X-CH(R)-Y where X, Y are N, S, or O) that may be acid/base labile, releasing an aldehyde.

>  <s_epik_cmdline>  (1) 
J2VwaWtfcHl0aG9uJywgJy1waHQnLCAnMS4wJywgJy1waCcsICc3LjQnLCAnLXRuJywgJzgnLCAnLW1hJywgJzUwMCcsICctaW1hZScsICc8aW5maWxlLm1hZT4nLCAnLW9tYWUnLCAnPG91dGZpbGUubWFlPic=

>  <s_epik_input>  (1) 
W0NIMl0xU09bQ0BASF0oW0NASF0yW0NIM10pW0NAQEhdMVtDQEhdKFtDQF0yM0YpW0NIMl1OKEMoPU8pT1tDSDJdMylbQ0gyXVtDSDJdW0NIMl1OKFtDSDJdNClbQ0gyXVtDQEhdKE40NSlPW0NASF0oW0NIMl01KWMoW2NIXVtjSF1jNkNsKWMoW2NIXTYpT1tDSDNd

>  <s_glide_docking_method>  (1) 
confgen

>  <s_i_glide_gridfile>  (1) 
gpcr_drd2_6luq_protein_autoprepared_prepared

>  <s_lp_Force_Field>  (1) 
S-OPLS

>  <s_lp_Variant>  (1) 
DiffSBDD_25_num_sample_50-1

>  <s_m_source_file>  (1) 
generated__ligand_DiffSBDD_2026-05-06_prepared.sdf

>  <GenAI_Model>  (1) 
DiffSBDD

>  <Protein>  (1) 
generic_title2

$$$$
DiffSBDD_14_num_sample_50
     RDKit          3D

  0  0  0  0  0  0  0  0  0  0999 V3000
M  V30 BEGIN CTAB
M  V30 COUNTS 70 74 0 0 1
M  V30 BEGIN ATOM
M  V30 1 C 7.150447 5.728148 -18.199475 0 CFG=2
M  V30 2 C 8.203349 7.373293 -12.108887 0 CFG=1
M  V30 3 C 5.571148 7.401464 -16.958236 0
M  V30 4 C 5.921205 5.395649 -20.310554 0
M  V30 5 C 8.650946 4.914393 -15.182058 0
M  V30 6 C 11.424081 7.217484 -4.697242 0
M  V30 7 O 11.336375 6.231005 -3.736921 0
M  V30 8 C 8.834007 8.539028 -11.345334 0
M  V30 9 O 10.186053 6.608697 -11.053420 0
M  V30 10 C 11.180819 7.495422 -8.514004 0
M  V30 11 N 9.986883 8.080789 -9.167428 0 CHG=1
M  V30 12 N 8.506416 4.902501 -13.838165 0
M  V30 13 C 7.637655 4.380422 -17.560117 0 CFG=2
M  V30 14 C 5.694594 6.132098 -17.813035 0 CFG=1
M  V30 15 C 9.555673 5.352785 -12.924446 0
M  V30 16 C 12.228363 7.868470 -2.137935 0
M  V30 17 O 11.880490 8.917001 -3.022140 0
M  V30 18 C 8.009761 6.917092 -20.408181 0
M  V30 19 O 9.654145 5.353959 -15.745139 0
M  V30 20 C 7.041894 3.121908 -18.232579 0
M  V30 21 C 9.016660 6.133739 -11.711680 0 CFG=2
M  V30 22 C 11.227703 6.879059 -6.049747 0
M  V30 23 O 6.804088 7.217196 -11.891668 0
M  V30 24 C 11.399116 6.590759 -2.362026 0
M  V30 25 C 7.266072 5.775824 -19.727975 0
M  V30 26 S 4.682231 6.224471 -19.312672 0
M  V30 27 C 11.834799 9.541063 -5.345083 0
M  V30 28 C 7.492619 4.319843 -16.000317 0
M  V30 29 C 8.561203 5.518005 -20.471498 0
M  V30 30 C 11.356621 7.866332 -7.054151 0
M  V30 31 C 11.663084 9.193753 -6.698390 0
M  V30 32 C 10.129589 7.963199 -10.758480 0 CFG=2
M  V30 33 C 11.716443 8.562554 -4.341423 0
M  V30 34 H 7.821196 6.502331 -17.835706 0
M  V30 35 H 8.366552 7.551812 -13.165923 0
M  V30 36 H 6.451237 7.549661 -16.327382 0
M  V30 37 H 5.421622 8.288217 -17.576784 0
M  V30 38 H 4.711520 7.317672 -16.287206 0
M  V30 39 H 5.826640 5.684809 -21.356301 0
M  V30 40 H 5.768581 4.320299 -20.247602 0
M  V30 41 H 9.082988 9.335841 -12.048708 0
M  V30 42 H 8.236092 9.005637 -10.581143 0
M  V30 43 H 11.151984 6.412318 -8.621997 0
M  V30 44 H 12.079282 7.837729 -9.032630 0
M  V30 45 H 9.950008 9.051401 -8.892442 0
M  V30 46 H 7.653513 4.547003 -13.435669 0
M  V30 47 H 8.704403 4.304476 -17.779886 0
M  V30 48 H 5.217682 5.370611 -17.217962 0
M  V30 49 H 10.254482 6.011132 -13.437126 0
M  V30 50 H 10.131996 4.486081 -12.586206 0
M  V30 51 H 12.099891 8.222298 -1.115482 0
M  V30 52 H 13.285357 7.665672 -2.278835 0
M  V30 53 H 7.563289 7.337588 -21.308064 0
M  V30 54 H 8.590458 7.621806 -19.818954 0
M  V30 55 H 5.955613 3.148901 -18.308671 0
M  V30 56 H 7.444038 2.990952 -19.239140 0
M  V30 57 H 7.299239 2.217364 -17.683459 0
M  V30 58 H 8.467002 5.494664 -11.014757 0
M  V30 59 H 11.004385 5.857904 -6.321853 0
M  V30 60 H 6.622016 7.362972 -10.960438 0
M  V30 61 H 10.398207 6.613298 -1.910826 0
M  V30 62 H 11.909967 5.773647 -1.849817 0
M  V30 63 H 12.055349 10.565341 -5.082684 0
M  V30 64 H 7.398218 3.279146 -15.688871 0
M  V30 65 H 6.578615 4.796435 -15.657400 0
M  V30 66 H 9.473662 5.341506 -19.907535 0
M  V30 67 H 8.512490 5.012302 -21.431242 0
M  V30 68 H 11.776134 9.945952 -7.463115 0
M  V30 69 H 11.030618 8.493256 -11.054043 0
M  V30 70 H 9.142219 7.628566 -8.840777 0
M  V30 END ATOM
M  V30 BEGIN BOND
M  V30 1 1 7 6
M  V30 2 1 8 2
M  V30 3 1 11 10
M  V30 4 1 12 5
M  V30 5 1 13 1
M  V30 6 1 14 1
M  V30 7 1 14 3
M  V30 8 1 15 12
M  V30 9 1 17 16
M  V30 10 2 19 5
M  V30 11 1 20 13
M  V30 12 1 21 2
M  V30 13 1 21 9
M  V30 14 1 21 15
M  V30 15 1 22 6
M  V30 16 1 23 2
M  V30 17 1 24 7
M  V30 18 1 24 16
M  V30 19 1 25 1
M  V30 20 1 25 4
M  V30 21 1 25 18
M  V30 22 1 26 4
M  V30 23 1 26 14
M  V30 24 1 28 5
M  V30 25 1 28 13
M  V30 26 1 29 18
M  V30 27 1 29 25
M  V30 28 1 30 10
M  V30 29 2 30 22
M  V30 30 2 31 27
M  V30 31 1 31 30
M  V30 32 1 32 8
M  V30 33 1 32 9
M  V30 34 1 32 11
M  V30 35 2 33 6
M  V30 36 1 33 17
M  V30 37 1 33 27
M  V30 38 1 1 34 CFG=1
M  V30 39 1 2 35 CFG=3
M  V30 40 1 36 3
M  V30 41 1 37 3
M  V30 42 1 38 3
M  V30 43 1 39 4
M  V30 44 1 40 4
M  V30 45 1 41 8
M  V30 46 1 42 8
M  V30 47 1 43 10
M  V30 48 1 44 10
M  V30 49 1 45 11
M  V30 50 1 46 12
M  V30 51 1 13 47 CFG=1
M  V30 52 1 14 48 CFG=1
M  V30 53 1 49 15
M  V30 54 1 50 15
M  V30 55 1 51 16
M  V30 56 1 52 16
M  V30 57 1 53 18
M  V30 58 1 54 18
M  V30 59 1 55 20
M  V30 60 1 56 20
M  V30 61 1 57 20
M  V30 62 1 21 58 CFG=1
M  V30 63 1 59 22
M  V30 64 1 60 23
M  V30 65 1 61 24
M  V30 66 1 62 24
M  V30 67 1 63 27
M  V30 68 1 64 28
M  V30 69 1 65 28
M  V30 70 1 66 29
M  V30 71 1 67 29
M  V30 72 1 68 31
M  V30 73 1 32 69 CFG=3
M  V30 74 1 70 11
M  V30 END BOND
M  V30 END CTAB
M  END
>  <i_epik_Tot_Q>  (1) 
1

>  <i_epik_Tot_abs_Q>  (1) 
1

>  <i_i_glide_confnum>  (1) 
1298

>  <i_i_glide_lignum>  (1) 
51

>  <i_i_glide_posenum>  (1) 
134

>  <i_i_glide_rotatable_bonds>  (1) 
10

>  <i_lp_mmshare_version>  (1) 
72125

>  <i_m_source_file_index>  (1) 
15

>  <i_f3d_flags>  (1) 
0

>  <num_sample>  (1) 
50

>  <b_lp_Chiralities_Consistent>  (1) 
1

>  <r_epik_Charging_Adjusted_Penalty>  (1) 
1.0556351429747846

>  <r_epik_Ionization_Penalty>  (1) 
0.52782311309915253

>  <r_epik_Ionization_Penalty_Charging>  (1) 
0.52781757148739228

>  <r_epik_Ionization_Penalty_Neutral>  (1) 
5.5416117603015013e-06

>  <r_epik_State_Penalty>  (1) 
0.52781757148739217

>  <r_glide_ring_energy>  (1) 
0.80130509604263411

>  <r_i_docking_score>  (1) 
-4.8681084203459015

>  <r_i_glide_ecoul>  (1) 
-6.7232386912519111

>  <r_i_glide_eff_state_penalty>  (1) 
0.52781757148739217

>  <r_i_glide_einternal>  (1) 
4.0439571196052526

>  <r_i_glide_emodel>  (1) 
-46.975799219916226

>  <r_i_glide_emodel_strain>  (1) 
7.2922339956254234

>  <r_i_glide_energy>  (1) 
-39.570720728130127

>  <r_i_glide_erotb>  (1) 
0.79916653529319603

>  <r_i_glide_esite>  (1) 
-0.14796709087960699

>  <r_i_glide_evdw>  (1) 
-32.847482036878219

>  <r_i_glide_gscore>  (1) 
-5.3959259918332938

>  <r_i_glide_gscore_strain>  (1) 
0.82305849890635585

>  <r_i_glide_hbond>  (1) 
-0.21287245285376505

>  <r_i_glide_ligand_efficiency>  (1) 
-0.14751843698017883

>  <r_i_glide_ligand_efficiency_ln>  (1) 
-1.0826421069685088

>  <r_i_glide_ligand_efficiency_sa>  (1) 
-0.47317045092124949

>  <r_i_glide_lipo>  (1) 
-3.2728754308748149

>  <r_i_glide_metal>  (1) 
-0

>  <r_i_glide_rewards>  (1) 
-0.73357614589296105

>  <r_lp_Energy>  (1) 
8.7074730000000002

>  <r_lp_tautomer_probability>  (1) 
1

>  <s_epik_Chemistry_Notes>  (1) 
This compound contains an acetal/aminal-like group ( X-CH(R)-Y where X, Y are N, S, or O) that may be acid/base labile, releasing an aldehyde.

>  <s_epik_cmdline>  (1) 
J2VwaWtfcHl0aG9uJywgJy1waHQnLCAnMS4wJywgJy1waCcsICc3LjQnLCAnLXRuJywgJzgnLCAnLW1hJywgJzUwMCcsICctaW1hZScsICc8aW5maWxlLm1hZT4nLCAnLW9tYWUnLCAnPG91dGZpbGUubWFlPic=

>  <s_epik_input>  (1) 
W0NIMl0xU1tDQEhdKFtDSDNdKVtDQEhdKEMxMltDSDJdW0NIMl0yKVtDQEhdKFtDSDNdKVtDSDJdQyg9TylbTkhdW0NIMl1bQ0BIXTNPW0NAQEhdKFtDSDJdW0NAQEhdM1tPSF0pW05IXVtDSDJdYyhbY0hdNClbY0hdW2NIXWMoYzQ1KU9bQ0gyXVtDSDJdTzU=

>  <s_glide_docking_method>  (1) 
confgen

>  <s_i_glide_gridfile>  (1) 
gpcr_drd2_6luq_protein_autoprepared_prepared

>  <s_lp_Force_Field>  (1) 
S-OPLS

>  <s_lp_Variant>  (1) 
DiffSBDD_14_num_sample_50-2

>  <s_m_source_file>  (1) 
generated__ligand_DiffSBDD_2026-05-06_prepared.sdf

>  <GenAI_Model>  (1) 
DiffSBDD

>  <Protein>  (1) 
generic_title2

$$$$
DiffSBDD_5_num_sample_50
     RDKit          3D

  0  0  0  0  0  0  0  0  0  0999 V3000
M  V30 BEGIN CTAB
M  V30 COUNTS 55 58 0 0 1
M  V30 BEGIN ATOM
M  V30 1 C 8.771904 5.393901 -11.838362 0 CFG=1
M  V30 2 C 6.179529 6.221087 -19.513103 0
M  V30 3 C 9.695762 4.514203 -12.645403 0
M  V30 4 O 7.684329 7.482893 -12.397190 0
M  V30 5 C 5.439385 6.867670 -15.866368 0 CFG=1
M  V30 6 O 8.234839 5.769301 -9.527862 0
M  V30 7 C 9.268713 5.870360 -10.464185 0 CFG=2
M  V30 8 C 8.608178 5.646508 -20.012022 0
M  V30 9 C 6.766143 6.875245 -15.143594 0 CFG=1
M  V30 10 O 10.234821 6.702599 -6.099263 0
M  V30 11 C 10.186876 7.642181 -8.037558 0
M  V30 12 C 4.723755 8.169302 -16.119874 0
M  V30 13 N 10.579358 6.576417 -7.256346 0
M  V30 14 C 7.835413 6.285720 -12.643638 0
M  V30 15 N 9.863059 7.216354 -10.514818 0
M  V30 16 C 6.114146 5.030983 -18.565094 0
M  V30 17 C 6.287863 8.432052 -21.261662 0
M  V30 18 O 8.556530 3.976656 -11.980347 0
M  V30 19 C 7.374421 6.512336 -20.211088 0
M  V30 20 C 5.101022 8.145814 -20.560852 0
M  V30 21 C 10.792894 7.619800 -9.445993 0
M  V30 22 C 5.046477 7.042512 -19.688093 0
M  V30 23 C 9.170242 5.765029 -18.584741 0
M  V30 24 C 7.423876 7.618078 -21.087264 0
M  V30 25 C 6.954845 5.205627 -17.280258 0 CFG=1
M  V30 26 C 8.451316 4.907208 -17.522580 0
M  V30 27 S 6.964205 5.461664 -14.012616 0
M  V30 28 O 9.434850 8.559342 -7.699459 0
M  V30 29 C 6.706280 6.563265 -16.630732 0 CFG=1
M  V30 30 H 9.644296 4.509696 -13.732177 0
M  V30 31 H 10.634838 4.212030 -12.202079 0
M  V30 32 H 4.778707 6.028484 -15.663007 0
M  V30 33 H 7.743114 6.609395 -9.491667 0
M  V30 34 H 10.006566 5.152744 -10.119794 0
M  V30 35 H 8.389405 4.608819 -20.265233 0
M  V30 36 H 9.374745 5.966786 -20.718960 0
M  V30 37 H 7.196150 7.821028 -14.821073 0
M  V30 38 H 5.434831 8.920727 -16.469192 0
M  V30 39 H 3.952876 8.033019 -16.877471 0
M  V30 40 H 4.262648 8.553900 -15.210500 0
M  V30 41 H 9.117256 7.902609 -10.621172 0
M  V30 42 H 6.390477 4.117857 -19.092814 0
M  V30 43 H 5.068959 4.898418 -18.291669 0
M  V30 44 H 6.328507 9.278353 -21.931865 0
M  V30 45 H 4.231906 8.773198 -20.692442 0
M  V30 46 H 11.666917 6.969301 -9.449405 0
M  V30 47 H 11.170283 8.620589 -9.657691 0
M  V30 48 H 4.137704 6.827738 -19.148181 0
M  V30 49 H 10.210698 5.439362 -18.607115 0
M  V30 50 H 9.198830 6.812320 -18.291667 0
M  V30 51 H 8.334819 7.843977 -21.622758 0
M  V30 52 H 6.634845 4.437794 -16.580074 0
M  V30 53 H 8.985007 5.007849 -16.576774 0
M  V30 54 H 8.555096 3.857893 -17.801083 0
M  V30 55 H 7.034798 7.369306 -17.279663 0
M  V30 END ATOM
M  V30 BEGIN BOND
M  V30 1 1 3 1
M  V30 2 1 7 1
M  V30 3 1 7 6
M  V30 4 1 9 5
M  V30 5 1 12 5
M  V30 6 2 13 10
M  V30 7 1 13 11
M  V30 8 1 1 14 CFG=3
M  V30 9 2 14 4
M  V30 10 1 15 7
M  V30 11 1 16 2
M  V30 12 1 18 1
M  V30 13 1 18 3
M  V30 14 1 19 2
M  V30 15 1 19 8
M  V30 16 2 20 17
M  V30 17 1 21 11
M  V30 18 1 21 15
M  V30 19 2 22 2
M  V30 20 1 22 20
M  V30 21 1 23 8
M  V30 22 1 24 17
M  V30 23 2 24 19
M  V30 24 1 25 16
M  V30 25 1 26 23
M  V30 26 1 26 25
M  V30 27 1 27 9
M  V30 28 1 27 14
M  V30 29 2 28 11
M  V30 30 1 29 5
M  V30 31 1 29 9
M  V30 32 1 29 25
M  V30 33 1 30 3
M  V30 34 1 31 3
M  V30 35 1 5 32 CFG=1
M  V30 36 1 33 6
M  V30 37 1 7 34 CFG=1
M  V30 38 1 35 8
M  V30 39 1 36 8
M  V30 40 1 9 37 CFG=3
M  V30 41 1 38 12
M  V30 42 1 39 12
M  V30 43 1 40 12
M  V30 44 1 41 15
M  V30 45 1 42 16
M  V30 46 1 43 16
M  V30 47 1 44 17
M  V30 48 1 45 20
M  V30 49 1 46 21
M  V30 50 1 47 21
M  V30 51 1 48 22
M  V30 52 1 49 23
M  V30 53 1 50 23
M  V30 54 1 51 24
M  V30 55 1 25 52 CFG=1
M  V30 56 1 53 26
M  V30 57 1 54 26
M  V30 58 1 29 55 CFG=3
M  V30 END BOND
M  V30 END CTAB
M  END
>  <i_epik_Tot_Q>  (1) 
0

>  <i_epik_Tot_abs_Q>  (1) 
0

>  <i_i_glide_confnum>  (1) 
368

>  <i_i_glide_lignum>  (1) 
14

>  <i_i_glide_posenum>  (1) 
156

>  <i_i_glide_rotatable_bonds>  (1) 
10

>  <i_lp_mmshare_version>  (1) 
72125

>  <i_m_source_file_index>  (1) 
6

>  <i_f3d_flags>  (1) 
0

>  <num_sample>  (1) 
50

>  <b_lp_Chiralities_Consistent>  (1) 
1

>  <r_epik_Charging_Adjusted_Penalty>  (1) 
0

>  <r_epik_Ionization_Penalty>  (1) 
0.00033857845250697777

>  <r_epik_Ionization_Penalty_Charging>  (1) 
0

>  <r_epik_Ionization_Penalty_Neutral>  (1) 
0.00033857845250697777

>  <r_epik_State_Penalty>  (1) 
-0

>  <r_glide_ring_energy>  (1) 
0

>  <r_i_docking_score>  (1) 
-4.8580248283242957

>  <r_i_glide_ecoul>  (1) 
-6.6408811209675367

>  <r_i_glide_eff_state_penalty>  (1) 
-0

>  <r_i_glide_einternal>  (1) 
9.3527720680336444

>  <r_i_glide_emodel>  (1) 
-42.320430401494626

>  <r_i_glide_emodel_strain>  (1) 
0.5324765205367612

>  <r_i_glide_energy>  (1) 
-36.971090110641725

>  <r_i_glide_erotb>  (1) 
0.90319655978703284

>  <r_i_glide_esite>  (1) 
-0.13220420291403004

>  <r_i_glide_evdw>  (1) 
-30.330208989674187

>  <r_i_glide_gscore>  (1) 
-4.8580248283242957

>  <r_i_glide_gscore_strain>  (1) 
0

>  <r_i_glide_hbond>  (1) 
-0.1382251191198661

>  <r_i_glide_ligand_efficiency>  (1) 
-0.167518097528424

>  <r_i_glide_ligand_efficiency_ln>  (1) 
-1.1123644968056448

>  <r_i_glide_ligand_efficiency_sa>  (1) 
-0.51466866964345981

>  <r_i_glide_lipo>  (1) 
-2.0192978601549276

>  <r_i_glide_metal>  (1) 
-0

>  <r_i_glide_rewards>  (1) 
-0.95885158829366457

>  <r_lp_Energy>  (1) 
19.075084

>  <r_lp_tautomer_probability>  (1) 
1

>  <s_epik_Chemistry_Notes>  (1) 
This compound contains an acetal/aminal-like group ( X-CH(R)-Y where X, Y are N, S, or O) that may be acid/base labile, releasing an aldehyde.

>  <s_epik_cmdline>  (1) 
J2VwaWtfcHl0aG9uJywgJy1waHQnLCAnMS4wJywgJy1waCcsICc3LjQnLCAnLXRuJywgJzgnLCAnLW1hJywgJzUwMCcsICctaW1hZScsICc8aW5maWxlLm1hZT4nLCAnLW9tYWUnLCAnPG91dGZpbGUubWFlPic=

>  <s_epik_input>  (1) 
Tz1OQyg9TylbQ0gyXVtOSF1bQ0BASF0oW09IXSlbQ0BdMShbQ0gyXU8xKUMoPU8pU1tDSF0oW0NASF0yW0NIM10pW0NIXTJbQ0BASF0oW0NIMl0zKVtDSDJdW0NIMl1bQ0gyXWMoYzM0KVtjSF1bY0hdW2NIXVtjSF00

>  <s_glide_docking_method>  (1) 
confgen

>  <s_i_glide_gridfile>  (1) 
gpcr_drd2_6luq_protein_autoprepared_prepared

>  <s_lp_Force_Field>  (1) 
S-OPLS

>  <s_lp_Variant>  (1) 
DiffSBDD_5_num_sample_50-1

>  <s_m_source_file>  (1) 
generated__ligand_DiffSBDD_2026-05-06_prepared.sdf

>  <GenAI_Model>  (1) 
DiffSBDD

>  <Protein>  (1) 
generic_title2

$$$$
DiffSBDD_10_num_sample_50
     RDKit          3D

  0  0  0  0  0  0  0  0  0  0999 V3000
M  V30 BEGIN CTAB
M  V30 COUNTS 72 73 0 0 1
M  V30 BEGIN ATOM
M  V30 1 C 5.668159 7.581343 -22.014963 0 CFG=2
M  V30 2 C 7.925829 4.233495 -11.448184 0
M  V30 3 C 7.202893 1.947280 -15.247856 0
M  V30 4 C 6.633497 2.798259 -18.682607 0 CFG=1
M  V30 5 C 5.301177 6.733738 -20.785326 0 CFG=2
M  V30 6 N 5.916187 5.202552 -12.370934 0
M  V30 7 N 5.965158 3.287419 -20.902694 0
M  V30 8 C 5.799999 4.469443 -20.103878 0 CFG=1
M  V30 9 S 5.328837 9.424620 -21.918508 0
M  V30 10 C 7.824076 4.910592 -10.090219 0
M  V30 11 S 4.487349 9.704780 -23.832513 0 CHG=-1
M  V30 12 C 8.221039 7.441623 -22.350962 0
M  V30 13 O 9.826290 7.825644 -6.996117 0
M  V30 14 O 4.261104 9.739790 -20.958645 0
M  V30 15 C 4.358815 6.817497 -21.966766 0 CFG=2
M  V30 16 C 6.664959 1.531068 -12.771206 0
M  V30 17 C 6.701641 2.294097 -20.132964 0 CFG=1
M  V30 18 N 9.034843 6.396175 -8.491059 0 CHG=1
M  V30 19 N 7.185968 3.769195 -13.674371 0
M  V30 20 C 9.149855 5.584966 -9.717057 0
M  V30 21 C 8.024352 4.982517 -18.953762 0
M  V30 22 C 6.822733 7.235593 -22.957219 0
M  V30 23 C 4.970499 7.269613 -19.395743 0
M  V30 24 C 7.669175 2.186166 -17.718899 0
M  V30 25 C 7.034910 2.516004 -13.887610 0
M  V30 26 O 4.268536 5.555169 -22.595985 0
M  V30 27 C 7.035510 4.401797 -12.446097 0
M  V30 28 O 6.596514 10.169301 -21.891666 0
M  V30 29 F 7.955110 2.260020 -20.584287 0
M  V30 30 N 5.692643 0.537816 -13.195343 0
M  V30 31 C 10.170066 7.301097 -8.257517 0
M  V30 32 C 6.629014 4.326815 -18.816756 0 CFG=2
M  V30 33 O 6.189657 5.611073 -20.796559 0
M  V30 34 C 7.498061 2.717233 -16.311143 0
M  V30 35 H 8.776694 3.582552 -11.598122 0
M  V30 36 H 7.072966 0.880247 -15.343447 0
M  V30 37 H 5.649645 2.510452 -18.306293 0
M  V30 38 H 5.721023 5.767877 -11.556009 0
M  V30 39 H 6.501127 3.475812 -21.737654 0
M  V30 40 H 4.738017 4.532228 -19.859276 0
M  V30 41 H 7.543931 4.169396 -9.341885 0
M  V30 42 H 7.024844 5.650725 -10.095837 0
M  V30 43 H 8.991655 7.143044 -23.061584 0
M  V30 44 H 8.410150 8.481592 -22.091337 0
M  V30 45 H 8.358200 6.844554 -21.450294 0
M  V30 46 H 9.629529 8.746334 -7.090401 0
M  V30 47 H 3.434969 7.379294 -21.911978 0
M  V30 48 H 7.567611 1.026769 -12.423713 0
M  V30 49 H 6.234480 2.055097 -11.919603 0
M  V30 50 H 6.279822 1.295332 -20.252604 0
M  V30 51 H 8.903489 5.801964 -7.686568 0
M  V30 52 H 9.473102 6.226798 -10.538490 0
M  V30 53 H 9.912843 4.823745 -9.570135 0
M  V30 54 H 8.568420 4.609694 -19.821361 0
M  V30 55 H 7.942789 6.065066 -19.055865 0
M  V30 56 H 8.640512 4.803266 -18.073678 0
M  V30 57 H 6.729309 6.199531 -23.280593 0
M  V30 58 H 6.727312 7.841329 -23.856553 0
M  V30 59 H 4.133860 7.962509 -19.415034 0
M  V30 60 H 4.670055 6.468683 -18.723942 0
M  V30 61 H 5.837644 7.769393 -18.968592 0
M  V30 62 H 8.685711 2.397048 -18.051405 0
M  V30 63 H 7.566013 1.100435 -17.713941 0
M  V30 64 H 5.036578 5.068827 -22.328439 0
M  V30 65 H 6.085965 -0.079521 -13.892040 0
M  V30 66 H 5.434346 -0.065026 -12.425970 0
M  V30 67 H 10.230426 8.081651 -9.017334 0
M  V30 68 H 11.112640 6.755081 -8.205953 0
M  V30 69 H 6.099923 4.794740 -17.987148 0
M  V30 70 H 7.623602 3.782966 -16.182823 0
M  V30 71 H 5.312899 5.343528 -13.167426 0
M  V30 72 H 8.190244 6.965296 -8.604743 0
M  V30 END ATOM
M  V30 BEGIN BOND
M  V30 1 1 5 1
M  V30 2 1 8 7
M  V30 3 1 9 1
M  V30 4 1 10 2
M  V30 5 1 11 9
M  V30 6 2 14 9
M  V30 7 1 15 1
M  V30 8 1 15 5
M  V30 9 1 17 4
M  V30 10 1 17 7
M  V30 11 1 20 10
M  V30 12 1 20 18
M  V30 13 1 1 22 CFG=3
M  V30 14 1 22 12
M  V30 15 1 23 5
M  V30 16 1 24 4
M  V30 17 1 25 3
M  V30 18 1 25 16
M  V30 19 2 25 19
M  V30 20 1 26 15
M  V30 21 2 27 2
M  V30 22 1 27 6
M  V30 23 1 27 19
M  V30 24 2 28 9
M  V30 25 1 29 17
M  V30 26 1 30 16
M  V30 27 1 31 13
M  V30 28 1 31 18
M  V30 29 1 32 4
M  V30 30 1 32 8
M  V30 31 1 32 21
M  V30 32 1 5 33 CFG=1
M  V30 33 1 33 8
M  V30 34 2 34 3
M  V30 35 1 34 24
M  V30 36 1 35 2
M  V30 37 1 36 3
M  V30 38 1 4 37 CFG=1
M  V30 39 1 38 6
M  V30 40 1 39 7
M  V30 41 1 8 40 CFG=1
M  V30 42 1 41 10
M  V30 43 1 42 10
M  V30 44 1 43 12
M  V30 45 1 44 12
M  V30 46 1 45 12
M  V30 47 1 46 13
M  V30 48 1 15 47 CFG=1
M  V30 49 1 48 16
M  V30 50 1 49 16
M  V30 51 1 17 50 CFG=1
M  V30 52 1 51 18
M  V30 53 1 52 20
M  V30 54 1 53 20
M  V30 55 1 54 21
M  V30 56 1 55 21
M  V30 57 1 56 21
M  V30 58 1 57 22
M  V30 59 1 58 22
M  V30 60 1 59 23
M  V30 61 1 60 23
M  V30 62 1 61 23
M  V30 63 1 62 24
M  V30 64 1 63 24
M  V30 65 1 64 26
M  V30 66 1 65 30
M  V30 67 1 66 30
M  V30 68 1 67 31
M  V30 69 1 68 31
M  V30 70 1 32 69 CFG=1
M  V30 71 1 70 34
M  V30 72 1 71 6
M  V30 73 1 72 18
M  V30 END BOND
M  V30 END CTAB
M  END
>  <i_epik_Tot_Q>  (1) 
0

>  <i_epik_Tot_abs_Q>  (1) 
2

>  <i_i_glide_confnum>  (1) 
1883

>  <i_i_glide_lignum>  (1) 
24

>  <i_i_glide_posenum>  (1) 
295

>  <i_i_glide_rotatable_bonds>  (1) 
15

>  <i_lp_mmshare_version>  (1) 
72125

>  <i_m_source_file_index>  (1) 
11

>  <i_f3d_flags>  (1) 
0

>  <num_sample>  (1) 
50

>  <b_lp_Chiralities_Consistent>  (1) 
1

>  <r_epik_Charging_Adjusted_Penalty>  (1) 
0.33639934582642134

>  <r_epik_Ionization_Penalty>  (1) 
0.23315943830934333

>  <r_epik_Ionization_Penalty_Charging>  (1) 
0.10316865490585193

>  <r_epik_Ionization_Penalty_Neutral>  (1) 
0.12999078340349141

>  <r_epik_State_Penalty>  (1) 
0.23323069092056939

>  <r_glide_ring_energy>  (1) 
0

>  <r_i_docking_score>  (1) 
-4.8577128637669018

>  <r_i_glide_ecoul>  (1) 
-7.797054230438313

>  <r_i_glide_eff_state_penalty>  (1) 
0.23323069092056939

>  <r_i_glide_einternal>  (1) 
10.769514410649151

>  <r_i_glide_emodel>  (1) 
-51.932960106763815

>  <r_i_glide_emodel_strain>  (1) 
0.27245016490533658

>  <r_i_glide_energy>  (1) 
-42.026164130583247

>  <r_i_glide_erotb>  (1) 
0.57757419641111274

>  <r_i_glide_esite>  (1) 
-0.14698955025576246

>  <r_i_glide_evdw>  (1) 
-34.229109900144934

>  <r_i_glide_gscore>  (1) 
-5.0909435546874713

>  <r_i_glide_gscore_strain>  (1) 
0

>  <r_i_glide_hbond>  (1) 
-0.24042737709195153

>  <r_i_glide_ligand_efficiency>  (1) 
-0.14287390775785005

>  <r_i_glide_ligand_efficiency_ln>  (1) 
-1.073205025836699

>  <r_i_glide_ligand_efficiency_sa>  (1) 
-0.46285599766696167

>  <r_i_glide_lipo>  (1) 
-1.1481534208102129

>  <r_i_glide_metal>  (1) 
-0

>  <r_i_glide_rewards>  (1) 
-1.2519337733676632

>  <r_lp_Energy>  (1) 
19.575572999999999

>  <s_epik_Chemistry_Notes>  (1) 
This compound has an imine and may undergo hydrolysis. This compound contains an acetal/aminal-like group ( X-CH(R)-Y where X, Y are N, S, or O) that may be acid/base labile, releasing an aldehyde.

>  <s_epik_cmdline>  (1) 
J2VwaWtfcHl0aG9uJywgJy1waHQnLCAnMS4wJywgJy1waCcsICc3LjQnLCAnLXRuJywgJzgnLCAnLW1hJywgJzUwMCcsICctaW1hZScsICc8aW5maWxlLm1hZT4nLCAnLW9tYWUnLCAnPG91dGZpbGUubWFlPic=

>  <s_epik_input>  (1) 
W1NIXVMoPU8pKD1PKVtDQEBdMShbQ0gyXVtDSDNdKVtDQEBdKFtDSDNdKShbQ0BASF0xW09IXSlPW0NASF0oW0NAQEhdMltDSDNdKVtOSF1bQ0BASF0oRilbQ0BIXTJbQ0gyXVxbQ0hdPVtDSF1cQyhbQ0gyXVtOSDJdKT1OXEMoPU5cW0hdKVxbQ0gyXVtDSDJdW0NIMl1bTkhdW0NIMl1bT0hd

>  <s_glide_docking_method>  (1) 
confgen

>  <s_i_glide_gridfile>  (1) 
gpcr_drd2_6luq_protein_autoprepared_prepared

>  <s_lp_Force_Field>  (1) 
S-OPLS

>  <s_lp_Variant>  (1) 
DiffSBDD_10_num_sample_50-4

>  <s_m_source_file>  (1) 
generated__ligand_DiffSBDD_2026-05-06_prepared.sdf

>  <GenAI_Model>  (1) 
DiffSBDD

>  <Protein>  (1) 
generic_title2

$$$$
DiffSBDD_33_num_sample_50
     RDKit          3D

  0  0  0  0  0  0  0  0  0  0999 V3000
M  V30 BEGIN CTAB
M  V30 COUNTS 69 72 0 0 1
M  V30 BEGIN ATOM
M  V30 1 O 8.000977 1.430834 -20.330604 0
M  V30 2 C 6.156638 -0.000873 -17.632751 0
M  V30 3 O 8.386856 3.630155 -18.696426 0
M  V30 4 C 7.564010 2.517825 -16.693813 0
M  V30 5 C 9.038082 5.610807 -10.526070 0
M  V30 6 C 5.908202 0.815357 -13.598641 0
M  V30 7 C 5.599243 5.271083 -14.173603 0
M  V30 8 C 8.985825 3.499960 -20.999799 0
M  V30 9 N 6.731470 0.242739 -16.358654 0
M  V30 10 C 5.442341 4.139592 -13.146642 0
M  V30 11 C 7.906216 5.790947 -13.222419 0
M  V30 12 C 6.926904 1.634139 -14.395394 0
M  V30 13 N 7.142278 0.165291 -18.636572 0
M  V30 14 C 6.547899 6.374549 -13.672762 0 CFG=1
M  V30 15 N 9.434839 7.553739 -8.231922 0 CHG=1
M  V30 16 C 7.703683 4.624843 -12.246843 0
M  V30 17 C 9.506919 3.533027 -19.569264 0 CFG=2
M  V30 18 C 7.846632 2.475142 -18.161866 0
M  V30 19 C 9.201497 8.052489 -6.860963 0
M  V30 20 C 10.034454 8.569169 -9.120275 0
M  V30 21 N 8.231245 4.569296 -11.091531 0
M  V30 22 C 6.799053 3.522913 -12.759692 0 CFG=2
M  V30 23 F 10.330991 2.508810 -19.329588 0
M  V30 24 C 6.708435 7.450736 -14.752866 0
M  V30 25 C 7.665704 1.378725 -18.991448 0
M  V30 26 O 7.461362 2.835432 -13.823700 0
M  V30 27 C 7.744098 2.621553 -21.058536 0
M  V30 28 C 10.137124 6.252248 -8.278753 0
M  V30 29 C 9.315746 5.225782 -9.062344 0
M  V30 30 C 7.375692 0.495688 -13.495395 0
M  V30 31 C 7.093048 1.493253 -15.900818 0
M  V30 32 F 7.859240 3.675865 -16.082512 0
M  V30 33 H 5.320871 0.677170 -17.808817 0
M  V30 34 H 5.769979 -1.019747 -17.668231 0
M  V30 35 H 9.969837 5.721467 -11.081559 0
M  V30 36 H 8.506539 6.561872 -10.572468 0
M  V30 37 H 5.435640 1.219562 -12.710400 0
M  V30 38 H 5.284476 0.103829 -14.136433 0
M  V30 39 H 4.634845 5.711360 -14.396366 0
M  V30 40 H 5.964808 4.861342 -15.112528 0
M  V30 41 H 8.729694 4.505681 -21.334892 0
M  V30 42 H 9.761182 3.127706 -21.670082 0
M  V30 43 H 6.465713 -0.432912 -15.655125 0
M  V30 44 H 4.750596 3.375667 -13.491660 0
M  V30 45 H 4.984034 4.550571 -12.246437 0
M  V30 46 H 8.527076 6.583606 -12.810708 0
M  V30 47 H 6.087315 6.847402 -12.802978 0
M  V30 48 H 10.122861 4.422037 -19.431662 0
M  V30 49 H 7.131998 -0.548454 -19.350611 0
M  V30 50 H 10.139603 8.253153 -6.341905 0
M  V30 51 H 8.613600 8.969235 -6.883666 0
M  V30 52 H 8.634897 7.315744 -6.291680 0
M  V30 53 H 10.951708 8.978073 -8.695081 0
M  V30 54 H 10.266342 8.157439 -10.102825 0
M  V30 55 H 9.315954 9.369300 -9.274721 0
M  V30 56 H 6.634344 2.838423 -11.932084 0
M  V30 57 H 7.034850 7.010472 -15.694376 0
M  V30 58 H 5.760347 7.953150 -14.947687 0
M  V30 59 H 7.434819 8.207407 -14.457690 0
M  V30 60 H 6.860158 3.137266 -20.677800 0
M  V30 61 H 7.522180 2.361636 -22.094239 0
M  V30 62 H 10.296600 5.867434 -7.269803 0
M  V30 63 H 11.129799 6.364734 -8.712030 0
M  V30 64 H 8.367154 5.066635 -8.546301 0
M  V30 65 H 9.834810 4.266568 -9.035296 0
M  V30 66 H 7.725743 -0.417627 -13.969295 0
M  V30 67 H 7.879131 0.747308 -12.564251 0
M  V30 68 H 8.498036 7.390138 -8.609479 0
M  V30 69 H 8.447724 5.410191 -14.088769 0
M  V30 END ATOM
M  V30 BEGIN BOND
M  V30 1 1 9 2
M  V30 2 1 10 7
M  V30 3 1 12 6
M  V30 4 1 13 2
M  V30 5 1 14 7
M  V30 6 1 14 11
M  V30 7 1 16 11
M  V30 8 1 17 3
M  V30 9 1 17 8
M  V30 10 1 18 3
M  V30 11 1 18 4
M  V30 12 1 19 15
M  V30 13 1 20 15
M  V30 14 1 21 5
M  V30 15 2 21 16
M  V30 16 1 22 10
M  V30 17 1 22 16
M  V30 18 1 23 17
M  V30 19 1 24 14
M  V30 20 1 25 1
M  V30 21 1 25 13
M  V30 22 2 25 18
M  V30 23 1 26 12
M  V30 24 1 26 22
M  V30 25 1 27 1
M  V30 26 1 27 8
M  V30 27 1 28 15
M  V30 28 1 29 5
M  V30 29 1 29 28
M  V30 30 1 30 6
M  V30 31 1 30 12
M  V30 32 2 31 4
M  V30 33 1 31 9
M  V30 34 1 31 12
M  V30 35 1 32 4
M  V30 36 1 33 2
M  V30 37 1 34 2
M  V30 38 1 35 5
M  V30 39 1 36 5
M  V30 40 1 37 6
M  V30 41 1 38 6
M  V30 42 1 39 7
M  V30 43 1 40 7
M  V30 44 1 41 8
M  V30 45 1 42 8
M  V30 46 1 43 9
M  V30 47 1 44 10
M  V30 48 1 45 10
M  V30 49 1 46 11
M  V30 50 1 14 47 CFG=1
M  V30 51 1 17 48 CFG=3
M  V30 52 1 49 13
M  V30 53 1 50 19
M  V30 54 1 51 19
M  V30 55 1 52 19
M  V30 56 1 53 20
M  V30 57 1 54 20
M  V30 58 1 55 20
M  V30 59 1 22 56 CFG=1
M  V30 60 1 57 24
M  V30 61 1 58 24
M  V30 62 1 59 24
M  V30 63 1 60 27
M  V30 64 1 61 27
M  V30 65 1 62 28
M  V30 66 1 63 28
M  V30 67 1 64 29
M  V30 68 1 65 29
M  V30 69 1 66 30
M  V30 70 1 67 30
M  V30 71 1 68 15
M  V30 72 1 69 11
M  V30 END BOND
M  V30 END CTAB
M  END
>  <i_epik_Tot_Q>  (1) 
1

>  <i_epik_Tot_abs_Q>  (1) 
1

>  <i_i_glide_confnum>  (1) 
207

>  <i_i_glide_lignum>  (1) 
83

>  <i_i_glide_posenum>  (1) 
308

>  <i_i_glide_rotatable_bonds>  (1) 
7

>  <i_lp_mmshare_version>  (1) 
72125

>  <i_m_source_file_index>  (1) 
34

>  <i_f3d_flags>  (1) 
0

>  <num_sample>  (1) 
50

>  <b_lp_Chiralities_Consistent>  (1) 
1

>  <r_epik_Charging_Adjusted_Penalty>  (1) 
0.41789118993368612

>  <r_epik_Ionization_Penalty>  (1) 
0.0076682513750627552

>  <r_epik_Ionization_Penalty_Charging>  (1) 
0.0072113509810821487

>  <r_epik_Ionization_Penalty_Neutral>  (1) 
0.0004569003939806066

>  <r_epik_State_Penalty>  (1) 
0.41067983895260396

>  <r_glide_ring_energy>  (1) 
0

>  <r_i_docking_score>  (1) 
-4.8552860104360658

>  <r_i_glide_ecoul>  (1) 
-3.2990667674008867

>  <r_i_glide_eff_state_penalty>  (1) 
0.41067983895260396

>  <r_i_glide_einternal>  (1) 
4.8497830290893864

>  <r_i_glide_emodel>  (1) 
-47.689352550192979

>  <r_i_glide_emodel_strain>  (1) 
0.21733732705396847

>  <r_i_glide_energy>  (1) 
-36.544919305173593

>  <r_i_glide_erotb>  (1) 
0.40655192622224545

>  <r_i_glide_esite>  (1) 
-0.10000000000000001

>  <r_i_glide_evdw>  (1) 
-33.245852537772706

>  <r_i_glide_gscore>  (1) 
-5.2659658493886701

>  <r_i_glide_gscore_strain>  (1) 
0

>  <r_i_glide_hbond>  (1) 
-0.20000000000000001

>  <r_i_glide_ligand_efficiency>  (1) 
-0.15172768782612706

>  <r_i_glide_ligand_efficiency_ln>  (1) 
-1.0872308878346604

>  <r_i_glide_ligand_efficiency_sa>  (1) 
-0.48170538253579337

>  <r_i_glide_lipo>  (1) 
-1.5676217505356107

>  <r_i_glide_metal>  (1) 
-0

>  <r_i_glide_rewards>  (1) 
-1.6477433830765356

>  <r_lp_Energy>  (1) 
46.360869999999998

>  <r_lp_tautomer_probability>  (1) 
0.49999519497573586

>  <s_epik_Chemistry_Notes>  (1) 
This compound has an imine and may undergo hydrolysis. This compound contains an acetal/aminal-like group ( X-CH(R)-Y where X, Y are N, S, or O) that may be acid/base labile, releasing an aldehyde.

>  <s_epik_cmdline>  (1) 
J2VwaWtfcHl0aG9uJywgJy1waHQnLCAnMS4wJywgJy1waCcsICc3LjQnLCAnLXRuJywgJzgnLCAnLW1hJywgJzUwMCcsICctaW1hZScsICc8aW5maWxlLm1hZT4nLCAnLW9tYWUnLCAnPG91dGZpbGUubWFlPic=

>  <s_epik_input>  (1) 
TzFbQ0BASF0oRilbQ0gyXVtDSDJdT0MoW0NAQEhdMTIpPU5bQ0gyXVtOSF1DKD1DMkYpQzMoW0NIMl1bQ0gyXTMpT1tDQEBIXShbQ0gyXVtDSDJdW0NAQEhdNFtDSDNdKUMoPVtDSF00KVtOSF1bQ0gyXVtDSDJdW0NIMl1OKFtDSDNdKVtDSDNd

>  <s_glide_docking_method>  (1) 
confgen

>  <s_i_glide_gridfile>  (1) 
gpcr_drd2_6luq_protein_autoprepared_prepared

>  <s_lp_Force_Field>  (1) 
S-OPLS

>  <s_lp_Variant>  (1) 
DiffSBDD_33_num_sample_50-1

>  <s_m_source_file>  (1) 
generated__ligand_DiffSBDD_2026-05-06_prepared.sdf

>  <GenAI_Model>  (1) 
DiffSBDD

>  <Protein>  (1) 
generic_title2

$$$$
DiffSBDD_24_num_sample_50
     RDKit          3D

  0  0  0  0  0  0  0  0  0  0999 V3000
M  V30 BEGIN CTAB
M  V30 COUNTS 85 91 0 0 1
M  V30 BEGIN ATOM
M  V30 1 N 7.708583 4.056300 -17.980425 0
M  V30 2 C 9.420430 5.909732 -9.878374 0
M  V30 3 O 6.092523 0.249052 -15.069969 0
M  V30 4 C 9.233106 1.828992 -17.627646 0 CFG=2
M  V30 5 C 11.840010 5.409409 -19.750405 0 CFG=1
M  V30 6 C 9.102136 6.465052 -7.322465 0 CFG=2
M  V30 7 C 6.452553 1.803952 -13.372834 0 CFG=2
M  V30 8 C 7.649000 2.057042 -15.656348 0
M  V30 9 N 11.717889 6.317071 -20.888029 0
M  V30 10 N 8.190434 3.369312 -12.451435 0 CFG=2 CHG=1
M  V30 11 C 6.705483 4.065031 -14.440874 0
M  V30 12 C 7.095816 2.806681 -18.430047 0
M  V30 13 C 10.521129 4.656466 -19.536923 0
M  V30 14 C 7.434845 3.432911 -15.624743 0
M  V30 15 C 13.074477 6.795745 -21.139446 0
M  V30 16 C 7.980616 5.039125 -19.060699 0
M  V30 17 C 10.741484 7.372558 -20.597463 0 CFG=2
M  V30 18 O 8.427199 5.479474 -16.363663 0
M  V30 19 C 9.224503 7.972972 -7.181265 0
M  V30 20 F 6.632758 1.047731 -12.291670 0
M  V30 21 C 9.369986 6.711343 -20.333139 0
M  V30 22 C 10.026025 -0.630759 -17.823636 0
M  V30 23 C 13.941464 5.535609 -21.246291 0 CFG=1
M  V30 24 C 6.444959 -0.628472 -16.124789 0
M  V30 25 C 9.400128 5.657905 -19.207838 0 CFG=2
M  V30 26 C 8.257693 1.888140 -18.803609 0
M  V30 27 F 11.417831 6.960819 -6.871133 0
M  V30 28 C 9.920621 5.853321 -8.447674 0 CFG=2
M  V30 29 C 7.932963 4.398711 -16.659108 0
M  V30 30 C 10.401638 0.855096 -17.854917 0
M  V30 31 C 7.118920 1.110238 -14.577969 0 CFG=2
M  V30 32 C 6.863356 3.266749 -13.130287 0 CFG=1
M  V30 33 C 10.623539 8.346694 -21.781774 0
M  V30 34 S 13.234327 4.320999 -20.116637 0
M  V30 35 C 8.431180 4.664923 -11.823026 0 CFG=1
M  V30 36 O 8.389976 1.365682 -16.610097 0
M  V30 37 C 10.352618 7.126622 -7.738509 0 CFG=1
M  V30 38 Cl 13.905542 4.910190 -22.915879 0
M  V30 39 C 8.843716 4.577698 -10.370772 0
M  V30 40 C 9.308586 4.174252 -12.937484 0
M  V30 41 H 8.655459 6.679568 -9.959985 0
M  V30 42 H 10.234846 6.225999 -10.526895 0
M  V30 43 H 9.716391 2.754406 -17.342774 0
M  V30 44 H 12.096553 5.978903 -18.855063 0
M  V30 45 H 9.102566 5.911491 -6.386488 0
M  V30 46 H 5.371996 1.803726 -13.520346 0
M  V30 47 H 7.029129 5.094526 -14.286277 0
M  V30 48 H 5.654379 4.169297 -14.691657 0
M  V30 49 H 6.489226 2.983774 -19.318816 0
M  V30 50 H 6.376393 2.360912 -17.746360 0
M  V30 51 H 10.269491 4.072113 -20.423120 0
M  V30 52 H 10.669228 3.958059 -18.723265 0
M  V30 53 H 13.144018 7.399768 -22.044187 0
M  V30 54 H 13.405599 7.412067 -20.301964 0
M  V30 55 H 7.720957 4.605974 -20.027363 0
M  V30 56 H 7.264010 5.850636 -18.922440 0
M  V30 57 H 11.053582 7.926055 -19.709694 0
M  V30 58 H 8.664686 8.587714 -7.882348 0
M  V30 59 H 9.332114 8.384229 -6.180372 0
M  V30 60 H 8.638194 7.481004 -20.087737 0
M  V30 61 H 9.018005 6.244575 -21.254940 0
M  V30 62 H 10.924303 -1.239264 -17.891670 0
M  V30 63 H 9.366541 -0.903518 -18.647071 0
M  V30 64 H 9.536199 -0.904173 -16.890386 0
M  V30 65 H 14.982374 5.740419 -20.994936 0
M  V30 66 H 5.737971 -1.456685 -16.166762 0
M  V30 67 H 7.445294 -1.030701 -15.981477 0
M  V30 68 H 6.409330 -0.117863 -17.086649 0
M  V30 69 H 9.678812 6.185285 -18.297255 0
M  V30 70 H 7.873185 0.897755 -19.048744 0
M  V30 71 H 8.766819 2.254547 -19.694969 0
M  V30 72 H 10.510010 4.969300 -8.215480 0
M  V30 73 H 10.891932 1.091405 -18.800078 0
M  V30 74 H 11.157033 1.032558 -17.091673 0
M  V30 75 H 7.963647 0.513946 -14.227439 0
M  V30 76 H 6.142419 3.666817 -12.414719 0
M  V30 77 H 9.773630 9.012615 -21.643112 0
M  V30 78 H 10.466767 7.816044 -22.721380 0
M  V30 79 H 11.511226 8.969277 -21.891676 0
M  V30 80 H 7.669250 5.405194 -12.063057 0
M  V30 81 H 7.969858 4.313736 -9.773390 0
M  V30 82 H 9.582469 3.783987 -10.254069 0
M  V30 83 H 10.234833 3.667534 -12.691675 0
M  V30 84 H 9.202904 4.571282 -13.940007 0
M  V30 85 H 8.441409 2.614087 -11.825887 0
M  V30 END ATOM
M  V30 BEGIN BOND
M  V30 1 1 9 5
M  V30 2 1 12 1
M  V30 3 1 13 5
M  V30 4 2 14 8
M  V30 5 1 14 11
M  V30 6 1 15 9
M  V30 7 1 16 1
M  V30 8 1 17 9
M  V30 9 1 19 6
M  V30 10 1 20 7
M  V30 11 1 21 17
M  V30 12 1 23 15
M  V30 13 1 24 3
M  V30 14 1 25 13
M  V30 15 1 25 16
M  V30 16 1 25 21
M  V30 17 1 26 4
M  V30 18 1 26 12
M  V30 19 1 28 2
M  V30 20 1 28 6
M  V30 21 1 29 1
M  V30 22 1 29 14
M  V30 23 2 29 18
M  V30 24 1 30 4
M  V30 25 1 30 22
M  V30 26 1 31 3
M  V30 27 1 31 7
M  V30 28 1 31 8
M  V30 29 1 32 7
M  V30 30 1 32 10
M  V30 31 1 32 11
M  V30 32 1 33 17
M  V30 33 1 34 5
M  V30 34 1 34 23
M  V30 35 1 35 10
M  V30 36 1 36 4
M  V30 37 1 36 8
M  V30 38 1 37 6
M  V30 39 1 37 19
M  V30 40 1 37 27 CFG=1
M  V30 41 1 37 28
M  V30 42 1 38 23
M  V30 43 1 39 2
M  V30 44 1 39 35
M  V30 45 1 40 10
M  V30 46 1 40 35
M  V30 47 1 41 2
M  V30 48 1 42 2
M  V30 49 1 4 43 CFG=1
M  V30 50 1 5 44 CFG=1
M  V30 51 1 6 45 CFG=1
M  V30 52 1 7 46 CFG=3
M  V30 53 1 47 11
M  V30 54 1 48 11
M  V30 55 1 49 12
M  V30 56 1 50 12
M  V30 57 1 51 13
M  V30 58 1 52 13
M  V30 59 1 53 15
M  V30 60 1 54 15
M  V30 61 1 55 16
M  V30 62 1 56 16
M  V30 63 1 17 57 CFG=1
M  V30 64 1 58 19
M  V30 65 1 59 19
M  V30 66 1 60 21
M  V30 67 1 61 21
M  V30 68 1 62 22
M  V30 69 1 63 22
M  V30 70 1 64 22
M  V30 71 1 23 65 CFG=1
M  V30 72 1 66 24
M  V30 73 1 67 24
M  V30 74 1 68 24
M  V30 75 1 25 69 CFG=1
M  V30 76 1 70 26
M  V30 77 1 71 26
M  V30 78 1 28 72 CFG=1
M  V30 79 1 73 30
M  V30 80 1 74 30
M  V30 81 1 31 75 CFG=1
M  V30 82 1 32 76 CFG=1
M  V30 83 1 77 33
M  V30 84 1 78 33
M  V30 85 1 79 33
M  V30 86 1 35 80 CFG=3
M  V30 87 1 81 39
M  V30 88 1 82 39
M  V30 89 1 83 40
M  V30 90 1 84 40
M  V30 91 1 10 85 CFG=1
M  V30 END BOND
M  V30 END CTAB
M  END
>  <i_epik_Tot_Q>  (1) 
1

>  <i_epik_Tot_abs_Q>  (1) 
1

>  <i_i_glide_confnum>  (1) 
56

>  <i_i_glide_lignum>  (1) 
64

>  <i_i_glide_posenum>  (1) 
151

>  <i_i_glide_rotatable_bonds>  (1) 
8

>  <i_lp_mmshare_version>  (1) 
72125

>  <i_m_source_file_index>  (1) 
25

>  <i_f3d_flags>  (1) 
0

>  <num_sample>  (1) 
50

>  <b_lp_Chiralities_Consistent>  (1) 
1

>  <r_epik_Charging_Adjusted_Penalty>  (1) 
0.63439585009227506

>  <r_epik_Ionization_Penalty>  (1) 
0.31719815469996288

>  <r_epik_Ionization_Penalty_Charging>  (1) 
0.31719792504613759

>  <r_epik_Ionization_Penalty_Neutral>  (1) 
2.2965382529121371e-07

>  <r_epik_State_Penalty>  (1) 
0.31719792504613753

>  <r_glide_ring_energy>  (1) 
0

>  <r_i_docking_score>  (1) 
-4.846742318184778

>  <r_i_glide_ecoul>  (1) 
-4.1966947753039356

>  <r_i_glide_eff_state_penalty>  (1) 
0.31719792504613753

>  <r_i_glide_einternal>  (1) 
13.710732325310332

>  <r_i_glide_emodel>  (1) 
-36.712792378101689

>  <r_i_glide_emodel_strain>  (1) 
0.47651364529443185

>  <r_i_glide_energy>  (1) 
-35.374602222689717

>  <r_i_glide_erotb>  (1) 
0.23102689348128655

>  <r_i_glide_esite>  (1) 
0

>  <r_i_glide_evdw>  (1) 
-31.177907447385785

>  <r_i_glide_gscore>  (1) 
-5.1639402432309156

>  <r_i_glide_gscore_strain>  (1) 
0

>  <r_i_glide_hbond>  (1) 
0

>  <r_i_glide_ligand_efficiency>  (1) 
-0.12116855795461945

>  <r_i_glide_ligand_efficiency_ln>  (1) 
-1.0336675032096072

>  <r_i_glide_ligand_efficiency_sa>  (1) 
-0.4143906391918013

>  <r_i_glide_lipo>  (1) 
-1.8853830562013143

>  <r_i_glide_metal>  (1) 
-0

>  <r_i_glide_rewards>  (1) 
-1.3211844918460089

>  <r_lp_Energy>  (1) 
54.516613999999997

>  <s_epik_Chemistry_Notes>  (1) 
This compound contains an acetal/aminal-like group ( X-CH(R)-Y where X, Y are N, S, or O) that may be acid/base labile, releasing an aldehyde.

>  <s_epik_cmdline>  (1) 
J2VwaWtfcHl0aG9uJywgJy1waHQnLCAnMS4wJywgJy1waCcsICc3LjQnLCAnLXRuJywgJzgnLCAnLW1hJywgJzUwMCcsICctaW1hZScsICc8aW5maWxlLm1hZT4nLCAnLW9tYWUnLCAnPG91dGZpbGUubWFlPic=

>  <s_epik_input>  (1) 
UzFbQ0BASF0oQ2wpW0NIMl1OKFtDQEhdMTIpW0NAQEhdKFtDSDNdKVtDSDJdW0NASF0oW0NIMl0yKVtDSDJdTihbQ0gyXVtDSDJdW0NAQEhdKE8zKVtDSDJdW0NIM10pQyg9TylDKD1DMzQpW0NIMl1bQ0BASF0oW0NASF0oRilbQ0BIXTRPW0NIM10pTjVbQ0BIXShbQ0gyXTUpW0NIMl1bQ0gyXVtDQEBIXTZbQ0hdKFtDSDJdNylDNjdG

>  <s_glide_docking_method>  (1) 
confgen

>  <s_i_glide_gridfile>  (1) 
gpcr_drd2_6luq_protein_autoprepared_prepared

>  <s_lp_Force_Field>  (1) 
S-OPLS

>  <s_lp_Variant>  (1) 
DiffSBDD_24_num_sample_50-1

>  <s_m_source_file>  (1) 
generated__ligand_DiffSBDD_2026-05-06_prepared.sdf

>  <GenAI_Model>  (1) 
DiffSBDD

>  <Protein>  (1) 
generic_title2

$$$$
DiffSBDD_8_num_sample_50
     RDKit          3D

  0  0  0  0  0  0  0  0  0  0999 V3000
M  V30 BEGIN CTAB
M  V30 COUNTS 63 68 0 0 1
M  V30 BEGIN ATOM
M  V30 1 C 9.434835 6.975134 -9.207493 0 CFG=2
M  V30 2 O 9.702668 3.931555 -16.691723 0 CHG=-1
M  V30 3 C 10.269141 8.085464 -6.908852 0 CFG=1
M  V30 4 N 12.228185 9.370376 -6.682273 0
M  V30 5 F 6.566882 4.690068 -17.891654 0
M  V30 6 C 7.542089 3.811599 -17.653445 0 CFG=2
M  V30 7 C 8.165908 3.441345 -19.023475 0
M  V30 8 C 7.844327 2.917555 -14.597886 0
M  V30 9 C 7.624715 5.151963 -12.863487 0
M  V30 10 C 9.305949 4.099799 -19.784836 0
M  V30 11 O 7.383125 -0.556303 -18.805963 0
M  V30 12 C 12.282803 9.059942 -8.097687 0 CFG=2
M  V30 13 O 6.275067 0.007169 -16.698218 0 CHG=-1
M  V30 14 O 11.034817 8.982048 -4.810927 0
M  V30 15 O 7.034687 2.545047 -17.262799 0
M  V30 16 N 8.035170 4.295651 -15.108003 0
M  V30 17 C 7.276627 6.328575 -11.963515 0
M  V30 18 N 7.002202 0.332740 -17.877388 0 CHG=1
M  V30 19 N 8.043820 2.023493 -19.240932 0
M  V30 20 C 7.399342 1.631681 -18.199898 0
M  V30 21 C 7.815765 5.426540 -14.317149 0
M  V30 22 O 7.808571 6.569273 -14.783946 0
M  V30 23 C 11.215586 8.854459 -6.015674 0
M  V30 24 C 8.975051 6.129650 -7.996194 0
M  V30 25 C 11.384861 7.841144 -7.971134 0 CFG=2
M  V30 26 O 13.506075 8.569294 -8.572591 0
M  V30 27 C 7.895111 4.226376 -20.297312 0
M  V30 28 C 9.545266 6.682252 -10.726467 0 CFG=2
M  V30 29 C 10.859601 7.508049 -10.650572 0
M  V30 30 C 8.492698 4.416553 -16.552586 0 CFG=1
M  V30 31 C 8.200563 2.721804 -13.151413 0
M  V30 32 C 9.564712 6.722039 -6.643363 0
M  V30 33 C 8.498282 7.233974 -11.705672 0
M  V30 34 C 10.912382 7.127378 -9.181970 0 CFG=2
M  V30 35 C 7.805287 3.917924 -12.361548 0
M  V30 36 H 9.034843 7.983121 -9.139717 0
M  V30 37 H 9.532835 8.820637 -7.239529 0
M  V30 38 H 12.952242 9.913694 -6.237574 0
M  V30 39 H 8.363430 2.143382 -15.168805 0
M  V30 40 H 6.781245 2.694302 -14.708016 0
M  V30 41 H 9.758151 4.992552 -19.356629 0
M  V30 42 H 9.991579 3.450098 -20.325095 0
M  V30 43 H 11.834734 9.821372 -8.735273 0
M  V30 44 H 6.868102 5.978718 -11.016392 0
M  V30 45 H 6.480929 6.907764 -12.434919 0
M  V30 46 H 9.303223 5.095734 -8.111166 0
M  V30 47 H 7.889964 6.077701 -7.955393 0
M  V30 48 H 12.025599 7.086332 -7.488871 0
M  V30 49 H 13.902907 9.244923 -9.113714 0
M  V30 50 H 7.639048 3.675762 -21.200374 0
M  V30 51 H 7.433443 5.207539 -20.211281 0
M  V30 52 H 9.778202 5.630970 -10.908516 0
M  V30 53 H 11.678683 7.125860 -11.259241 0
M  V30 54 H 10.695265 8.569569 -10.803564 0
M  V30 55 H 8.401045 5.474175 -16.796659 0
M  V30 56 H 9.271547 2.584235 -13.018047 0
M  V30 57 H 7.709766 1.833776 -12.753041 0
M  V30 58 H 10.282385 6.022478 -6.215436 0
M  V30 59 H 8.781907 6.834195 -5.895818 0
M  V30 60 H 8.147457 8.201286 -11.348608 0
M  V30 61 H 8.981312 7.467421 -12.653611 0
M  V30 62 H 11.358817 6.166243 -9.091710 0
M  V30 63 H 7.683461 3.769428 -11.299934 0
M  V30 END ATOM
M  V30 BEGIN BOND
M  V30 1 1 6 5 CFG=3
M  V30 2 1 7 6
M  V30 3 1 10 7
M  V30 4 1 12 4
M  V30 5 1 15 6
M  V30 6 1 16 8
M  V30 7 1 17 9
M  V30 8 2 18 11
M  V30 9 1 18 13
M  V30 10 1 19 7
M  V30 11 1 20 15
M  V30 12 1 20 18
M  V30 13 2 20 19
M  V30 14 1 21 9
M  V30 15 1 21 16
M  V30 16 2 22 21
M  V30 17 1 23 3
M  V30 18 1 23 4
M  V30 19 2 23 14
M  V30 20 1 24 1
M  V30 21 1 25 3
M  V30 22 1 25 12
M  V30 23 1 26 12
M  V30 24 1 27 7
M  V30 25 1 27 10
M  V30 26 1 28 1
M  V30 27 1 29 28
M  V30 28 1 30 2
M  V30 29 1 30 6
M  V30 30 1 30 16
M  V30 31 1 31 8
M  V30 32 1 32 3
M  V30 33 1 32 24
M  V30 34 1 33 17
M  V30 35 1 33 28
M  V30 36 1 34 1
M  V30 37 1 34 25
M  V30 38 1 34 29
M  V30 39 2 35 9
M  V30 40 1 35 31
M  V30 41 1 1 36 CFG=3
M  V30 42 1 3 37 CFG=3
M  V30 43 1 38 4
M  V30 44 1 39 8
M  V30 45 1 40 8
M  V30 46 1 41 10
M  V30 47 1 42 10
M  V30 48 1 12 43 CFG=3
M  V30 49 1 44 17
M  V30 50 1 45 17
M  V30 51 1 46 24
M  V30 52 1 47 24
M  V30 53 1 25 48 CFG=1
M  V30 54 1 49 26
M  V30 55 1 50 27
M  V30 56 1 51 27
M  V30 57 1 28 52 CFG=1
M  V30 58 1 53 29
M  V30 59 1 54 29
M  V30 60 1 30 55 CFG=3
M  V30 61 1 56 31
M  V30 62 1 57 31
M  V30 63 1 58 32
M  V30 64 1 59 32
M  V30 65 1 60 33
M  V30 66 1 61 33
M  V30 67 1 34 62 CFG=3
M  V30 68 1 63 35
M  V30 END BOND
M  V30 END CTAB
M  END
>  <i_epik_Tot_Q>  (1) 
-1

>  <i_epik_Tot_abs_Q>  (1) 
3

>  <i_i_glide_confnum>  (1) 
138

>  <i_i_glide_lignum>  (1) 
18

>  <i_i_glide_posenum>  (1) 
153

>  <i_i_glide_rotatable_bonds>  (1) 
7

>  <i_lp_mmshare_version>  (1) 
72125

>  <i_m_source_file_index>  (1) 
9

>  <i_f3d_flags>  (1) 
0

>  <num_sample>  (1) 
50

>  <b_lp_Chiralities_Consistent>  (1) 
1

>  <r_epik_Charging_Adjusted_Penalty>  (1) 
0.25838740980645414

>  <r_epik_Ionization_Penalty>  (1) 
0.12923734989215022

>  <r_epik_Ionization_Penalty_Charging>  (1) 
0.12919370490322707

>  <r_epik_Ionization_Penalty_Neutral>  (1) 
4.364498892313774e-05

>  <r_epik_State_Penalty>  (1) 
0.1291937049032271

>  <r_glide_ring_energy>  (1) 
0.016691843605602361

>  <r_i_docking_score>  (1) 
-4.8465134370220397

>  <r_i_glide_ecoul>  (1) 
-3.854966602994939

>  <r_i_glide_eff_state_penalty>  (1) 
0.1291937049032271

>  <r_i_glide_einternal>  (1) 
8.8528590536670855

>  <r_i_glide_emodel>  (1) 
-36.721953070044954

>  <r_i_glide_emodel_strain>  (1) 
0.23902001477068779

>  <r_i_glide_energy>  (1) 
-33.443162758019575

>  <r_i_glide_erotb>  (1) 
0.42136342035921531

>  <r_i_glide_esite>  (1) 
-0.00024641038245688671

>  <r_i_glide_evdw>  (1) 
-29.588196155024633

>  <r_i_glide_gscore>  (1) 
-4.975707141925267

>  <r_i_glide_gscore_strain>  (1) 
0

>  <r_i_glide_hbond>  (1) 
-0.32000000000000001

>  <r_i_glide_ligand_efficiency>  (1) 
-0.13847181248634399

>  <r_i_glide_ligand_efficiency_ln>  (1) 
-1.0639172619967545

>  <r_i_glide_ligand_efficiency_sa>  (1) 
-0.45295048073483157

>  <r_i_glide_lipo>  (1) 
-0.75515631865477018

>  <r_i_glide_metal>  (1) 
-0

>  <r_i_glide_rewards>  (1) 
-2.2640130350467835

>  <r_lp_Energy>  (1) 
83.181056999999996

>  <s_epik_Chemistry_Notes>  (1) 
This compound has an imine and may undergo hydrolysis. This compound contains an acetal/aminal-like group ( X-CH(R)-Y where X, Y are N, S, or O) that may be acid/base labile, releasing an aldehyde.

>  <s_epik_cmdline>  (1) 
J2VwaWtfcHl0aG9uJywgJy1waHQnLCAnMS4wJywgJy1waCcsICc3LjQnLCAnLXRuJywgJzgnLCAnLW1hJywgJzUwMCcsICctaW1hZScsICc8aW5maWxlLm1hZT4nLCAnLW9tYWUnLCAnPG91dGZpbGUubWFlPic=

>  <s_epik_input>  (1) 
W09IXVtDQEBIXTFbTkhdQyg9TylbQ0BIXShbQ0gyXVtDSDJdMilbQ0BIXTFbQ0BASF0oW0NASF0yMylbQ0gyXVtDQEBIXTNbQ0gyXVtDSDJdQzQ9W0NIXVtDSDJdW0NIMl1OKEM0PU8pW0NAQEhdKFtPSF0pW0NAQF0oRikoQzU2W0NIMl1bQ0gyXTYpT0MoPU41KVtOK10oPU8pW08tXQ==

>  <s_glide_docking_method>  (1) 
confgen

>  <s_i_glide_gridfile>  (1) 
gpcr_drd2_6luq_protein_autoprepared_prepared

>  <s_lp_Force_Field>  (1) 
S-OPLS

>  <s_lp_Variant>  (1) 
DiffSBDD_8_num_sample_50-1

>  <s_m_source_file>  (1) 
generated__ligand_DiffSBDD_2026-05-06_prepared.sdf

>  <GenAI_Model>  (1) 
DiffSBDD

>  <Protein>  (1) 
generic_title2

$$$$
DiffSBDD_33_num_sample_50
     RDKit          3D

  0  0  0  0  0  0  0  0  0  0999 V3000
M  V30 BEGIN CTAB
M  V30 COUNTS 69 72 0 0 1
M  V30 BEGIN ATOM
M  V30 1 O 5.918785 0.437904 -19.671785 0
M  V30 2 C 6.010463 -0.704036 -16.289836 0
M  V30 3 O 7.711008 2.395691 -18.877849 0
M  V30 4 C 7.355917 2.004788 -16.499395 0
M  V30 5 C 9.179555 4.727391 -11.178829 0
M  V30 6 C 6.484697 1.386305 -12.717774 0
M  V30 7 C 5.635105 5.557933 -14.945162 0
M  V30 8 C 7.169880 1.830950 -21.137820 0
M  V30 9 N 5.968392 0.354503 -15.346606 0
M  V30 10 C 5.601281 4.675223 -13.697561 0
M  V30 11 C 7.774863 6.574504 -14.215197 0
M  V30 12 C 7.120569 1.973528 -13.980840 0
M  V30 13 N 5.510743 -0.231016 -17.528554 0
M  V30 14 C 6.319386 6.869527 -14.593926 0 CFG=1
M  V30 15 N 9.434840 7.291390 -8.291954 0 CHG=1
M  V30 16 C 7.965319 5.545725 -13.107554 0
M  V30 17 C 8.228491 1.762558 -20.044286 0 CFG=2
M  V30 18 C 7.069753 1.631797 -17.919792 0
M  V30 19 C 9.122077 6.560743 -7.042733 0
M  V30 20 C 10.337722 8.434033 -8.052996 0
M  V30 21 N 8.878403 5.686563 -12.225027 0
M  V30 22 C 7.007579 4.334334 -13.158533 0 CFG=2
M  V30 23 F 8.665824 0.511387 -19.867320 0
M  V30 24 C 6.207127 7.881252 -15.741700 0
M  V30 25 C 6.193181 0.639292 -18.333695 0
M  V30 26 O 7.642944 3.307405 -13.922165 0
M  V30 27 C 5.802946 1.568589 -20.521612 0
M  V30 28 C 9.896051 6.430094 -9.399188 0
M  V30 29 C 8.871827 5.352999 -9.809412 0
M  V30 30 C 7.939832 1.157389 -13.015715 0
M  V30 31 C 6.820103 1.440801 -15.364831 0
M  V30 32 F 8.190361 3.044353 -16.325749 0
M  V30 33 H 5.402208 -1.536729 -15.936131 0
M  V30 34 H 7.035236 -1.060952 -16.407767 0
M  V30 35 H 8.676483 3.769339 -11.278992 0
M  V30 36 H 10.234719 4.471835 -11.243036 0
M  V30 37 H 6.232205 2.036764 -11.891732 0
M  V30 38 H 5.840152 0.513595 -12.790399 0
M  V30 39 H 4.634771 5.769304 -15.304659 0
M  V30 40 H 6.162227 5.050120 -15.755500 0
M  V30 41 H 7.167204 2.814569 -21.607822 0
M  V30 42 H 7.393087 1.104744 -21.920591 0
M  V30 43 H 5.628250 0.073652 -14.437241 0
M  V30 44 H 5.034853 3.769211 -13.888236 0
M  V30 45 H 5.046573 5.198806 -12.917988 0
M  V30 46 H 8.234840 7.506097 -13.891560 0
M  V30 47 H 5.816693 7.308057 -13.729854 0
M  V30 48 H 9.108876 2.318353 -20.367799 0
M  V30 49 H 4.864490 -0.858900 -17.984911 0
M  V30 50 H 10.004042 6.060291 -6.641355 0
M  V30 51 H 8.745017 7.254197 -6.291552 0
M  V30 52 H 8.338681 5.817714 -7.196186 0
M  V30 53 H 11.328283 8.090736 -7.751463 0
M  V30 54 H 10.441860 9.036038 -8.956683 0
M  V30 55 H 9.940640 9.066322 -7.259071 0
M  V30 56 H 6.830631 4.007472 -12.139959 0
M  V30 57 H 6.634827 7.492714 -16.666146 0
M  V30 58 H 5.164843 8.136087 -15.937806 0
M  V30 59 H 6.724557 8.804611 -15.491810 0
M  V30 60 H 5.424099 2.438373 -19.980898 0
M  V30 61 H 5.074724 1.359828 -21.305581 0
M  V30 62 H 10.831491 5.971983 -9.091627 0
M  V30 63 H 10.116037 7.066688 -10.257414 0
M  V30 64 H 7.863150 5.769124 -9.824549 0
M  V30 65 H 8.861948 4.569280 -9.054789 0
M  V30 66 H 8.254094 0.169184 -13.337171 0
M  V30 67 H 8.654676 1.700012 -12.406200 0
M  V30 68 H 8.538686 7.667150 -8.616353 0
M  V30 69 H 8.315336 6.218797 -15.093198 0
M  V30 END ATOM
M  V30 BEGIN BOND
M  V30 1 1 9 2
M  V30 2 1 10 7
M  V30 3 1 12 6
M  V30 4 1 13 2
M  V30 5 1 14 7
M  V30 6 1 14 11
M  V30 7 1 16 11
M  V30 8 1 17 3
M  V30 9 1 17 8
M  V30 10 1 18 3
M  V30 11 1 18 4
M  V30 12 1 19 15
M  V30 13 1 20 15
M  V30 14 1 21 5
M  V30 15 2 21 16
M  V30 16 1 22 10
M  V30 17 1 22 16
M  V30 18 1 23 17
M  V30 19 1 24 14
M  V30 20 1 25 1
M  V30 21 1 25 13
M  V30 22 2 25 18
M  V30 23 1 26 12
M  V30 24 1 26 22
M  V30 25 1 27 1
M  V30 26 1 27 8
M  V30 27 1 28 15
M  V30 28 1 29 5
M  V30 29 1 29 28
M  V30 30 1 30 6
M  V30 31 1 30 12
M  V30 32 2 31 4
M  V30 33 1 31 9
M  V30 34 1 31 12
M  V30 35 1 32 4
M  V30 36 1 33 2
M  V30 37 1 34 2
M  V30 38 1 35 5
M  V30 39 1 36 5
M  V30 40 1 37 6
M  V30 41 1 38 6
M  V30 42 1 39 7
M  V30 43 1 40 7
M  V30 44 1 41 8
M  V30 45 1 42 8
M  V30 46 1 43 9
M  V30 47 1 44 10
M  V30 48 1 45 10
M  V30 49 1 46 11
M  V30 50 1 14 47 CFG=1
M  V30 51 1 17 48 CFG=3
M  V30 52 1 49 13
M  V30 53 1 50 19
M  V30 54 1 51 19
M  V30 55 1 52 19
M  V30 56 1 53 20
M  V30 57 1 54 20
M  V30 58 1 55 20
M  V30 59 1 22 56 CFG=1
M  V30 60 1 57 24
M  V30 61 1 58 24
M  V30 62 1 59 24
M  V30 63 1 60 27
M  V30 64 1 61 27
M  V30 65 1 62 28
M  V30 66 1 63 28
M  V30 67 1 64 29
M  V30 68 1 65 29
M  V30 69 1 66 30
M  V30 70 1 67 30
M  V30 71 1 68 15
M  V30 72 1 69 11
M  V30 END BOND
M  V30 END CTAB
M  END
>  <i_epik_Tot_Q>  (1) 
1

>  <i_epik_Tot_abs_Q>  (1) 
1

>  <i_i_glide_confnum>  (1) 
248

>  <i_i_glide_lignum>  (1) 
85

>  <i_i_glide_posenum>  (1) 
55

>  <i_i_glide_rotatable_bonds>  (1) 
7

>  <i_lp_mmshare_version>  (1) 
72125

>  <i_m_source_file_index>  (1) 
34

>  <i_f3d_flags>  (1) 
0

>  <num_sample>  (1) 
50

>  <b_lp_Chiralities_Consistent>  (1) 
1

>  <r_epik_Charging_Adjusted_Penalty>  (1) 
0.41789118993368612

>  <r_epik_Ionization_Penalty>  (1) 
0.0076682513750627552

>  <r_epik_Ionization_Penalty_Charging>  (1) 
0.0072113509810821487

>  <r_epik_Ionization_Penalty_Neutral>  (1) 
0.0004569003939806066

>  <r_epik_State_Penalty>  (1) 
0.41067983895260396

>  <r_glide_ring_energy>  (1) 
0

>  <r_i_docking_score>  (1) 
-4.8291263498662023

>  <r_i_glide_ecoul>  (1) 
-4.3427522599377024

>  <r_i_glide_eff_state_penalty>  (1) 
0.41067983895260396

>  <r_i_glide_einternal>  (1) 
11.375888109108189

>  <r_i_glide_emodel>  (1) 
-44.492120946362377

>  <r_i_glide_emodel_strain>  (1) 
1.3271774916602794

>  <r_i_glide_energy>  (1) 
-36.587147822421791

>  <r_i_glide_erotb>  (1) 
0.58078846603177925

>  <r_i_glide_esite>  (1) 
-0.10000000000000001

>  <r_i_glide_evdw>  (1) 
-32.244395562484087

>  <r_i_glide_gscore>  (1) 
-5.2398061888188066

>  <r_i_glide_gscore_strain>  (1) 
0

>  <r_i_glide_hbond>  (1) 
-0.20000000000000001

>  <r_i_glide_ligand_efficiency>  (1) 
-0.15091019843331882

>  <r_i_glide_ligand_efficiency_ln>  (1) 
-1.0813730267476527

>  <r_i_glide_ligand_efficiency_sa>  (1) 
-0.47911001549156013

>  <r_i_glide_lipo>  (1) 
-2.1421507729912972

>  <r_i_glide_metal>  (1) 
-0

>  <r_i_glide_rewards>  (1) 
-1.1148112647444288

>  <r_lp_Energy>  (1) 
47.505379999999995

>  <r_lp_tautomer_probability>  (1) 
0.49999519497573586

>  <s_epik_Chemistry_Notes>  (1) 
This compound has an imine and may undergo hydrolysis. This compound contains an acetal/aminal-like group ( X-CH(R)-Y where X, Y are N, S, or O) that may be acid/base labile, releasing an aldehyde.

>  <s_epik_cmdline>  (1) 
J2VwaWtfcHl0aG9uJywgJy1waHQnLCAnMS4wJywgJy1waCcsICc3LjQnLCAnLXRuJywgJzgnLCAnLW1hJywgJzUwMCcsICctaW1hZScsICc8aW5maWxlLm1hZT4nLCAnLW9tYWUnLCAnPG91dGZpbGUubWFlPic=

>  <s_epik_input>  (1) 
TzFbQ0BASF0oRilbQ0gyXVtDSDJdT0MoW0NAQEhdMTIpPU5bQ0gyXVtOSF1DKD1DMkYpQzMoW0NIMl1bQ0gyXTMpT1tDQEBIXShbQ0gyXVtDSDJdW0NAQEhdNFtDSDNdKUMoPVtDSF00KVtOSF1bQ0gyXVtDSDJdW0NIMl1OKFtDSDNdKVtDSDNd

>  <s_glide_docking_method>  (1) 
confgen

>  <s_i_glide_gridfile>  (1) 
gpcr_drd2_6luq_protein_autoprepared_prepared

>  <s_lp_Force_Field>  (1) 
S-OPLS

>  <s_lp_Variant>  (1) 
DiffSBDD_33_num_sample_50-3

>  <s_m_source_file>  (1) 
generated__ligand_DiffSBDD_2026-05-06_prepared.sdf

>  <GenAI_Model>  (1) 
DiffSBDD

>  <Protein>  (1) 
generic_title2

$$$$
DiffSBDD_43_num_sample_50
     RDKit          3D

  0  0  0  0  0  0  0  0  0  0999 V3000
M  V30 BEGIN CTAB
M  V30 COUNTS 59 59 0 0 1
M  V30 BEGIN ATOM
M  V30 1 C 7.086411 4.145603 -11.891766 0
M  V30 2 C 10.227125 7.197071 -6.215022 0
M  V30 3 N 6.335328 6.666759 -19.766861 0
M  V30 4 O 6.620357 7.293615 -15.153660 0
M  V30 5 C 8.559734 5.403642 -10.180889 0
M  V30 6 C 10.382925 6.705420 -8.800279 0 CFG=2
M  V30 7 C 6.668027 7.295146 -12.722950 0 CFG=1
M  V30 8 O 9.047087 8.553760 -7.851670 0
M  V30 9 O 11.034868 10.194299 -4.457924 0
M  V30 10 N 6.754274 6.470935 -11.505224 0 CHG=1
M  V30 11 C 11.146010 9.269735 -5.174367 0
M  V30 12 F 7.776938 8.039099 -12.787938 0
M  V30 13 O 5.956547 3.957522 -11.381172 0
M  V30 14 C 4.311764 8.087121 -19.443119 0
M  V30 15 C 6.265559 5.803984 -18.593814 0 CFG=1
M  V30 16 C 6.494904 6.471320 -14.019417 0
M  V30 17 C 7.807400 5.446229 -11.526722 0 CFG=2
M  V30 18 C 9.558097 6.585171 -10.102219 0
M  V30 19 O 6.851417 6.378364 -16.324042 0
M  V30 20 C 9.554850 7.257798 -7.606199 0 CFG=2
M  V30 21 F 5.275825 7.640620 -21.500927 0
M  V30 22 C 5.908969 6.531110 -17.302552 0
M  V30 23 C 11.309765 8.240468 -5.966173 0
M  V30 24 O 7.669758 3.375437 -12.685786 0 CHG=-1
M  V30 25 C 4.799108 7.272423 -17.103829 0
M  V30 26 C 3.737667 7.489153 -18.144918 0
M  V30 27 C 11.731875 7.427808 -9.066619 0
M  V30 28 C 11.690930 8.925042 -9.346186 0
M  V30 29 F 5.435372 4.793164 -18.835083 0
M  V30 30 C 5.048300 7.067332 -20.320645 0 CFG=1
M  V30 31 H 9.451654 7.289455 -5.457259 0
M  V30 32 H 10.672210 6.210920 -6.072048 0
M  V30 33 H 6.915876 7.469475 -19.578055 0
M  V30 34 H 9.108504 4.464190 -10.101158 0
M  V30 35 H 7.855025 5.417532 -9.347877 0
M  V30 36 H 10.649123 5.684455 -8.525971 0
M  V30 37 H 5.811417 7.950569 -12.579782 0
M  V30 38 H 8.328379 8.454233 -8.472137 0
M  V30 39 H 5.904387 5.933459 -11.371184 0
M  V30 40 H 3.491008 8.516186 -20.018674 0
M  V30 41 H 4.977835 8.922088 -19.222276 0
M  V30 42 H 7.250786 5.352186 -18.462437 0
M  V30 43 H 7.274065 5.718222 -14.120126 0
M  V30 44 H 5.538591 5.947462 -14.040210 0
M  V30 45 H 8.543229 5.657129 -12.305744 0
M  V30 46 H 9.043212 7.528080 -10.285769 0
M  V30 47 H 10.243428 6.478016 -10.942256 0
M  V30 48 H 8.672325 6.625328 -7.523754 0
M  V30 49 H 12.233080 8.098117 -6.474755 0
M  V30 50 H 4.634593 7.756144 -16.152520 0
M  V30 51 H 3.213676 6.548124 -18.289218 0
M  V30 52 H 3.002183 8.169283 -17.722461 0
M  V30 53 H 12.412744 7.274878 -8.244448 0
M  V30 54 H 12.221854 6.969490 -9.919285 0
M  V30 55 H 12.658927 9.284514 -9.690329 0
M  V30 56 H 10.958617 9.125444 -10.113249 0
M  V30 57 H 11.437888 9.500780 -8.461280 0
M  V30 58 H 4.428524 6.195589 -20.530588 0
M  V30 59 H 6.890938 7.080935 -10.691667 0
M  V30 END ATOM
M  V30 BEGIN BOND
M  V30 1 1 10 7
M  V30 2 2 11 9
M  V30 3 1 12 7
M  V30 4 2 13 1
M  V30 5 1 15 3
M  V30 6 1 16 4
M  V30 7 1 16 7
M  V30 8 1 17 1
M  V30 9 1 17 5
M  V30 10 1 17 10
M  V30 11 1 18 5
M  V30 12 1 18 6
M  V30 13 1 19 4
M  V30 14 1 20 2
M  V30 15 1 20 6
M  V30 16 1 20 8
M  V30 17 1 22 15
M  V30 18 1 22 19
M  V30 19 1 23 2
M  V30 20 2 23 11
M  V30 21 1 24 1
M  V30 22 2 25 22
M  V30 23 1 26 14
M  V30 24 1 26 25
M  V30 25 1 27 6
M  V30 26 1 28 27
M  V30 27 1 29 15
M  V30 28 1 30 3
M  V30 29 1 30 14
M  V30 30 1 30 21
M  V30 31 1 31 2
M  V30 32 1 32 2
M  V30 33 1 33 3
M  V30 34 1 34 5
M  V30 35 1 35 5
M  V30 36 1 6 36 CFG=1
M  V30 37 1 7 37 CFG=1
M  V30 38 1 38 8
M  V30 39 1 39 10
M  V30 40 1 40 14
M  V30 41 1 41 14
M  V30 42 1 15 42 CFG=1
M  V30 43 1 43 16
M  V30 44 1 44 16
M  V30 45 1 17 45 CFG=3
M  V30 46 1 46 18
M  V30 47 1 47 18
M  V30 48 1 20 48 CFG=1
M  V30 49 1 49 23
M  V30 50 1 50 25
M  V30 51 1 51 26
M  V30 52 1 52 26
M  V30 53 1 53 27
M  V30 54 1 54 27
M  V30 55 1 55 28
M  V30 56 1 56 28
M  V30 57 1 57 28
M  V30 58 1 30 58 CFG=3
M  V30 59 1 59 10
M  V30 END BOND
M  V30 END CTAB
M  END
>  <i_epik_Tot_Q>  (1) 
0

>  <i_epik_Tot_abs_Q>  (1) 
2

>  <i_i_glide_confnum>  (1) 
1905

>  <i_i_glide_lignum>  (1) 
109

>  <i_i_glide_posenum>  (1) 
232

>  <i_i_glide_rotatable_bonds>  (1) 
15

>  <i_lp_mmshare_version>  (1) 
72125

>  <i_m_source_file_index>  (1) 
44

>  <i_f3d_flags>  (1) 
0

>  <num_sample>  (1) 
50

>  <b_lp_Chiralities_Consistent>  (1) 
1

>  <r_epik_Charging_Adjusted_Penalty>  (1) 
2.1322098409762558

>  <r_epik_Ionization_Penalty>  (1) 
1.0661195873001319

>  <r_epik_Ionization_Penalty_Charging>  (1) 
1.0661068903442914

>  <r_epik_Ionization_Penalty_Neutral>  (1) 
1.2696955840525338e-05

>  <r_epik_State_Penalty>  (1) 
1.0661029506319644

>  <r_glide_ring_energy>  (1) 
0

>  <r_i_docking_score>  (1) 
-4.8145787402872342

>  <r_i_glide_ecoul>  (1) 
-9.7025509739753844

>  <r_i_glide_eff_state_penalty>  (1) 
1.0661029506319644

>  <r_i_glide_einternal>  (1) 
11.843272489867687

>  <r_i_glide_emodel>  (1) 
-45.371025801258575

>  <r_i_glide_emodel_strain>  (1) 
1.0848500630001752

>  <r_i_glide_energy>  (1) 
-37.353222680138288

>  <r_i_glide_erotb>  (1) 
1.1415552716364241

>  <r_i_glide_esite>  (1) 
-0.14125208187082236

>  <r_i_glide_evdw>  (1) 
-27.6506717061629

>  <r_i_glide_gscore>  (1) 
-5.8806816909191983

>  <r_i_glide_gscore_strain>  (1) 
0

>  <r_i_glide_hbond>  (1) 
-0.32900149742576867

>  <r_i_glide_ligand_efficiency>  (1) 
-0.16048595800957446

>  <r_i_glide_ligand_efficiency_ln>  (1) 
-1.0939247488302741

>  <r_i_glide_ligand_efficiency_sa>  (1) 
-0.49866718547649591

>  <r_i_glide_lipo>  (1) 
-2.4250072353500629

>  <r_i_glide_metal>  (1) 
-0

>  <r_i_glide_rewards>  (1) 
-1.2890599165045158

>  <r_lp_Energy>  (1) 
6.4317659999999997

>  <s_epik_cmdline>  (1) 
J2VwaWtfcHl0aG9uJywgJy1waHQnLCAnMS4wJywgJy1waCcsICc3LjQnLCAnLXRuJywgJzgnLCAnLW1hJywgJzUwMCcsICctaW1hZScsICc8aW5maWxlLm1hZT4nLCAnLW9tYWUnLCAnPG91dGZpbGUubWFlPic=

>  <s_epik_input>  (1) 
Tz1DPVtDSF1bQ0gyXVtDQEBIXShbT0hdKVtDQEhdKFtDSDJdW0NIM10pW0NIMl1bQ0gyXVtDQEBIXShDKD1PKVtPSF0pW05IXVtDQEBIXShGKVtDSDJdT09DMT1bQ0hdW0NIMl1bQ0gyXVtDQEBIXShGKVtOSF1bQ0BIXTFG

>  <s_glide_docking_method>  (1) 
confgen

>  <s_i_glide_gridfile>  (1) 
gpcr_drd2_6luq_protein_autoprepared_prepared

>  <s_lp_Force_Field>  (1) 
S-OPLS

>  <s_lp_Variant>  (1) 
DiffSBDD_43_num_sample_50-4

>  <s_m_source_file>  (1) 
generated__ligand_DiffSBDD_2026-05-06_prepared.sdf

>  <GenAI_Model>  (1) 
DiffSBDD

>  <Protein>  (1) 
generic_title2

$$$$
DiffSBDD_33_num_sample_50
     RDKit          3D

  0  0  0  0  0  0  0  0  0  0999 V3000
M  V30 BEGIN CTAB
M  V30 COUNTS 69 72 0 0 1
M  V30 BEGIN ATOM
M  V30 1 O 5.773076 -0.750558 -19.836809 0
M  V30 2 C 4.967080 -1.040628 -16.387271 0
M  V30 3 O 8.152216 0.418987 -19.037555 0
M  V30 4 C 7.433544 0.703182 -16.726763 0
M  V30 5 C 8.975368 4.363892 -10.723262 0
M  V30 6 C 6.728961 0.513379 -13.032377 0
M  V30 7 C 6.143354 5.581057 -14.773754 0
M  V30 8 C 7.679322 -0.404504 -21.226768 0
M  V30 9 N 5.365244 0.064653 -15.588908 0
M  V30 10 C 7.314510 4.688248 -15.229704 0
M  V30 11 C 6.642031 5.044069 -12.358821 0
M  V30 12 C 7.023824 1.243047 -14.328876 0
M  V30 13 N 4.869669 -0.640389 -17.744749 0
M  V30 14 C 6.348635 6.178122 -13.368312 0 CFG=1
M  V30 15 N 9.434911 7.570257 -8.737738 0 CHG=1
M  V30 16 C 7.832599 4.188652 -12.819995 0
M  V30 17 C 7.813974 0.833180 -20.354152 0 CFG=2
M  V30 18 C 7.145722 0.214468 -18.108971 0
M  V30 19 C 9.420609 7.856849 -7.286225 0
M  V30 20 C 10.477007 8.344442 -9.449638 0
M  V30 21 N 8.874437 3.986003 -12.114669 0
M  V30 22 C 7.675179 3.590361 -14.209175 0 CFG=1
M  V30 23 F 8.741857 1.630509 -20.883286 0
M  V30 24 C 7.395824 7.312565 -13.347059 0
M  V30 25 C 5.957288 -0.363564 -18.526969 0
M  V30 26 O 6.635087 2.610431 -14.182048 0
M  V30 27 C 6.843350 -1.430963 -20.480293 0
M  V30 28 C 9.513135 6.125812 -9.021137 0
M  V30 29 C 9.346602 5.828259 -10.520629 0
M  V30 30 C 8.156879 0.689722 -13.478093 0
M  V30 31 C 6.611105 0.652658 -15.635579 0
M  V30 32 F 8.621109 1.307488 -16.549038 0
M  V30 33 H 3.996719 -1.394257 -16.040400 0
M  V30 34 H 5.673808 -1.864680 -16.285021 0
M  V30 35 H 8.048247 4.168837 -10.182669 0
M  V30 36 H 9.737826 3.733759 -10.264285 0
M  V30 37 H 6.388589 1.103305 -12.183285 0
M  V30 38 H 6.311459 -0.490745 -13.088474 0
M  V30 39 H 5.246109 4.969471 -14.733056 0
M  V30 40 H 5.957691 6.367606 -15.502975 0
M  V30 41 H 7.200107 -0.133589 -22.166055 0
M  V30 42 H 8.655437 -0.825467 -21.471583 0
M  V30 43 H 4.873771 0.131606 -14.709220 0
M  V30 44 H 8.190762 5.309776 -15.409712 0
M  V30 45 H 7.074651 4.225128 -16.188091 0
M  V30 46 H 5.775158 4.383240 -12.306875 0
M  V30 47 H 5.402891 6.634343 -13.074127 0
M  V30 48 H 6.899660 1.428403 -20.362108 0
M  V30 49 H 4.058855 -1.006514 -18.224235 0
M  V30 50 H 10.370999 7.587227 -6.824964 0
M  V30 51 H 9.245971 8.918466 -7.110520 0
M  V30 52 H 8.626404 7.304952 -6.781318 0
M  V30 53 H 11.469764 7.930744 -9.259850 0
M  V30 54 H 10.302044 8.350100 -10.525816 0
M  V30 55 H 10.476223 9.372378 -9.113130 0
M  V30 56 H 8.625429 3.152787 -14.521086 0
M  V30 57 H 8.402686 6.925886 -13.490105 0
M  V30 58 H 7.215239 8.053907 -14.127668 0
M  V30 59 H 7.382525 7.842214 -12.393841 0
M  V30 60 H 6.434792 -2.158724 -21.182069 0
M  V30 61 H 7.443559 -1.994032 -19.764670 0
M  V30 62 H 8.702855 5.647021 -8.469428 0
M  V30 63 H 10.444087 5.703914 -8.642118 0
M  V30 64 H 10.241802 6.077401 -11.085915 0
M  V30 65 H 8.566126 6.474318 -10.910891 0
M  V30 66 H 8.676599 -0.178244 -13.875169 0
M  V30 67 H 8.775766 1.367350 -12.895110 0
M  V30 68 H 8.501286 7.831501 -9.091668 0
M  V30 69 H 6.733157 5.450133 -11.355928 0
M  V30 END ATOM
M  V30 BEGIN BOND
M  V30 1 1 9 2
M  V30 2 1 10 7
M  V30 3 1 12 6
M  V30 4 1 13 2
M  V30 5 1 14 7
M  V30 6 1 14 11
M  V30 7 1 16 11
M  V30 8 1 17 3
M  V30 9 1 17 8
M  V30 10 1 18 3
M  V30 11 1 18 4
M  V30 12 1 19 15
M  V30 13 1 20 15
M  V30 14 1 21 5
M  V30 15 2 21 16
M  V30 16 1 22 10
M  V30 17 1 22 16
M  V30 18 1 23 17
M  V30 19 1 24 14
M  V30 20 1 25 1
M  V30 21 1 25 13
M  V30 22 2 25 18
M  V30 23 1 26 12
M  V30 24 1 26 22
M  V30 25 1 27 1
M  V30 26 1 27 8
M  V30 27 1 28 15
M  V30 28 1 29 5
M  V30 29 1 29 28
M  V30 30 1 30 6
M  V30 31 1 30 12
M  V30 32 2 31 4
M  V30 33 1 31 9
M  V30 34 1 31 12
M  V30 35 1 32 4
M  V30 36 1 33 2
M  V30 37 1 34 2
M  V30 38 1 35 5
M  V30 39 1 36 5
M  V30 40 1 37 6
M  V30 41 1 38 6
M  V30 42 1 39 7
M  V30 43 1 40 7
M  V30 44 1 41 8
M  V30 45 1 42 8
M  V30 46 1 43 9
M  V30 47 1 44 10
M  V30 48 1 45 10
M  V30 49 1 46 11
M  V30 50 1 14 47 CFG=1
M  V30 51 1 17 48 CFG=1
M  V30 52 1 49 13
M  V30 53 1 50 19
M  V30 54 1 51 19
M  V30 55 1 52 19
M  V30 56 1 53 20
M  V30 57 1 54 20
M  V30 58 1 55 20
M  V30 59 1 22 56 CFG=3
M  V30 60 1 57 24
M  V30 61 1 58 24
M  V30 62 1 59 24
M  V30 63 1 60 27
M  V30 64 1 61 27
M  V30 65 1 62 28
M  V30 66 1 63 28
M  V30 67 1 64 29
M  V30 68 1 65 29
M  V30 69 1 66 30
M  V30 70 1 67 30
M  V30 71 1 68 15
M  V30 72 1 69 11
M  V30 END BOND
M  V30 END CTAB
M  END
>  <i_epik_Tot_Q>  (1) 
1

>  <i_epik_Tot_abs_Q>  (1) 
1

>  <i_i_glide_confnum>  (1) 
29

>  <i_i_glide_lignum>  (1) 
84

>  <i_i_glide_posenum>  (1) 
352

>  <i_i_glide_rotatable_bonds>  (1) 
7

>  <i_lp_mmshare_version>  (1) 
72125

>  <i_m_source_file_index>  (1) 
34

>  <i_f3d_flags>  (1) 
0

>  <num_sample>  (1) 
50

>  <b_lp_Chiralities_Consistent>  (1) 
1

>  <r_epik_Charging_Adjusted_Penalty>  (1) 
0.41789118993368612

>  <r_epik_Ionization_Penalty>  (1) 
0.0076682513750627552

>  <r_epik_Ionization_Penalty_Charging>  (1) 
0.0072113509810821487

>  <r_epik_Ionization_Penalty_Neutral>  (1) 
0.0004569003939806066

>  <r_epik_State_Penalty>  (1) 
0.41067983895260396

>  <r_glide_ring_energy>  (1) 
1.3422813252046473

>  <r_i_docking_score>  (1) 
-4.7918187842420954

>  <r_i_glide_ecoul>  (1) 
-6.6891456894020145

>  <r_i_glide_eff_state_penalty>  (1) 
0.41067983895260396

>  <r_i_glide_einternal>  (1) 
6.829676402929497

>  <r_i_glide_emodel>  (1) 
-53.983401984393069

>  <r_i_glide_emodel_strain>  (1) 
0.10577752615019165

>  <r_i_glide_energy>  (1) 
-42.022640801825801

>  <r_i_glide_erotb>  (1) 
0.58078846603177925

>  <r_i_glide_esite>  (1) 
-0.10238335665649348

>  <r_i_glide_evdw>  (1) 
-35.33349511242379

>  <r_i_glide_gscore>  (1) 
-5.2024986231946997

>  <r_i_glide_gscore_strain>  (1) 
0

>  <r_i_glide_hbond>  (1) 
-0.20000000000000001

>  <r_i_glide_ligand_efficiency>  (1) 
-0.14974433700756548

>  <r_i_glide_ligand_efficiency_ln>  (1) 
-1.0730188458385852

>  <r_i_glide_ligand_efficiency_sa>  (1) 
-0.47540863618418011

>  <r_i_glide_lipo>  (1) 
-1.5830804930622

>  <r_i_glide_metal>  (1) 
-0

>  <r_i_glide_rewards>  (1) 
-1.1277766304762933

>  <r_lp_Energy>  (1) 
52.499913999999997

>  <r_lp_tautomer_probability>  (1) 
0.49999519497573586

>  <s_epik_Chemistry_Notes>  (1) 
This compound has an imine and may undergo hydrolysis. This compound contains an acetal/aminal-like group ( X-CH(R)-Y where X, Y are N, S, or O) that may be acid/base labile, releasing an aldehyde.

>  <s_epik_cmdline>  (1) 
J2VwaWtfcHl0aG9uJywgJy1waHQnLCAnMS4wJywgJy1waCcsICc3LjQnLCAnLXRuJywgJzgnLCAnLW1hJywgJzUwMCcsICctaW1hZScsICc8aW5maWxlLm1hZT4nLCAnLW9tYWUnLCAnPG91dGZpbGUubWFlPic=

>  <s_epik_input>  (1) 
TzFbQ0BASF0oRilbQ0gyXVtDSDJdT0MoW0NAQEhdMTIpPU5bQ0gyXVtOSF1DKD1DMkYpQzMoW0NIMl1bQ0gyXTMpT1tDQEBIXShbQ0gyXVtDSDJdW0NAQEhdNFtDSDNdKUMoPVtDSF00KVtOSF1bQ0gyXVtDSDJdW0NIMl1OKFtDSDNdKVtDSDNd

>  <s_glide_docking_method>  (1) 
confgen

>  <s_i_glide_gridfile>  (1) 
gpcr_drd2_6luq_protein_autoprepared_prepared

>  <s_lp_Force_Field>  (1) 
S-OPLS

>  <s_lp_Variant>  (1) 
DiffSBDD_33_num_sample_50-2

>  <s_m_source_file>  (1) 
generated__ligand_DiffSBDD_2026-05-06_prepared.sdf

>  <GenAI_Model>  (1) 
DiffSBDD

>  <Protein>  (1) 
generic_title2

$$$$
DiffSBDD_6_num_sample_50
     RDKit          3D

  0  0  0  0  0  0  0  0  0  0999 V3000
M  V30 BEGIN CTAB
M  V30 COUNTS 43 43 0 0 1
M  V30 BEGIN ATOM
M  V30 1 C 5.984184 6.343533 -17.370818 0
M  V30 2 C 4.760995 8.323377 -20.215113 0
M  V30 3 O 7.026224 -0.230667 -13.873096 0
M  V30 4 C 7.983044 5.754012 -10.983743 0 CFG=1
M  V30 5 O 7.034850 1.817429 -15.556578 0
M  V30 6 C 7.608750 0.987385 -13.458824 0
M  V30 7 O 6.686020 4.969310 -15.574543 0
M  V30 8 C 8.942117 5.403961 -9.824906 0
M  V30 9 C 5.384034 7.251108 -19.378505 0
M  V30 10 O 5.796492 7.021020 -15.092072 0
M  V30 11 C 7.521752 3.533737 -13.965971 0 CFG=2
M  V30 12 C 6.147332 6.157197 -15.899385 0
M  V30 13 N 8.320532 5.217760 -12.308150 0
M  V30 14 C 9.683487 5.600229 -12.664100 0
M  V30 15 N 5.406107 7.369308 -17.983799 0
M  V30 16 C 6.894467 2.138128 -14.185463 0 CFG=1
M  V30 17 F 9.434834 4.169367 -9.904620 0
M  V30 18 S 6.576775 5.125121 -18.478969 0
M  V30 19 F 9.952520 6.273150 -9.782501 0
M  V30 20 O 9.834851 5.369298 -14.042163 0
M  V30 21 C 5.980363 6.085218 -19.816319 0
M  V30 22 O 6.656553 5.369303 -10.691755 0
M  V30 23 C 8.038110 3.784162 -12.526738 0
M  V30 24 N 6.515865 4.562201 -14.204405 0
M  V30 25 H 4.674456 8.017450 -21.257791 0
M  V30 26 H 3.759948 8.569275 -19.860129 0
M  V30 27 H 5.354765 9.237141 -20.184658 0
M  V30 28 H 6.164674 -0.335146 -13.491544 0
M  V30 29 H 7.959052 6.839760 -11.091667 0
M  V30 30 H 6.956043 0.873147 -15.613227 0
M  V30 31 H 8.673164 0.971931 -13.695577 0
M  V30 32 H 7.516781 1.067408 -12.376023 0
M  V30 33 H 8.433745 5.498477 -8.864066 0
M  V30 34 H 8.352666 3.642044 -14.660887 0
M  V30 35 H 10.415709 5.015823 -12.106884 0
M  V30 36 H 9.862490 6.657327 -12.463537 0
M  V30 37 H 5.842353 2.133615 -13.891695 0
M  V30 38 H 10.685413 4.956271 -14.162085 0
M  V30 39 H 6.104343 5.738201 -20.831496 0
M  V30 40 H 6.294005 6.069092 -10.159681 0
M  V30 41 H 8.920603 3.181649 -12.306129 0
M  V30 42 H 7.257747 3.427809 -11.858640 0
M  V30 43 H 6.820169 5.366542 -13.663750 0
M  V30 END ATOM
M  V30 BEGIN BOND
M  V30 1 1 6 3
M  V30 2 1 8 4
M  V30 3 1 9 2
M  V30 4 1 12 1
M  V30 5 1 12 7
M  V30 6 2 12 10
M  V30 7 1 13 4
M  V30 8 1 14 13
M  V30 9 2 15 1
M  V30 10 1 15 9
M  V30 11 1 16 5
M  V30 12 1 16 6
M  V30 13 1 16 11
M  V30 14 1 17 8
M  V30 15 1 18 1
M  V30 16 1 19 8
M  V30 17 1 20 14
M  V30 18 2 21 9
M  V30 19 1 21 18
M  V30 20 1 22 4
M  V30 21 1 23 11
M  V30 22 1 23 13
M  V30 23 1 24 7
M  V30 24 1 24 11
M  V30 25 1 25 2
M  V30 26 1 26 2
M  V30 27 1 27 2
M  V30 28 1 28 3
M  V30 29 1 4 29 CFG=3
M  V30 30 1 30 5
M  V30 31 1 31 6
M  V30 32 1 32 6
M  V30 33 1 33 8
M  V30 34 1 11 34 CFG=3
M  V30 35 1 35 14
M  V30 36 1 36 14
M  V30 37 1 16 37 CFG=1
M  V30 38 1 38 20
M  V30 39 1 39 21
M  V30 40 1 40 22
M  V30 41 1 41 23
M  V30 42 1 42 23
M  V30 43 1 43 24
M  V30 END BOND
M  V30 END CTAB
M  END
>  <i_epik_Tot_Q>  (1) 
0

>  <i_epik_Tot_abs_Q>  (1) 
0

>  <i_i_glide_confnum>  (1) 
2797

>  <i_i_glide_lignum>  (1) 
15

>  <i_i_glide_posenum>  (1) 
248

>  <i_i_glide_rotatable_bonds>  (1) 
15

>  <i_lp_mmshare_version>  (1) 
72125

>  <i_m_source_file_index>  (1) 
7

>  <i_f3d_flags>  (1) 
0

>  <num_sample>  (1) 
50

>  <b_lp_Chiralities_Consistent>  (1) 
1

>  <r_epik_Charging_Adjusted_Penalty>  (1) 
0

>  <r_epik_Ionization_Penalty>  (1) 
3.5581637296787179e-06

>  <r_epik_Ionization_Penalty_Charging>  (1) 
0

>  <r_epik_Ionization_Penalty_Neutral>  (1) 
3.5581637296787179e-06

>  <r_epik_State_Penalty>  (1) 
-0

>  <r_glide_ring_energy>  (1) 
0

>  <r_i_docking_score>  (1) 
-4.7628250797646858

>  <r_i_glide_ecoul>  (1) 
-7.973493073324005

>  <r_i_glide_eff_state_penalty>  (1) 
-0

>  <r_i_glide_einternal>  (1) 
16.381711517476781

>  <r_i_glide_emodel>  (1) 
-40.503687589313145

>  <r_i_glide_emodel_strain>  (1) 
0.80898609723472248

>  <r_i_glide_energy>  (1) 
-35.505776681314387

>  <r_i_glide_erotb>  (1) 
1.3996290448132942

>  <r_i_glide_esite>  (1) 
-0.13873363580714088

>  <r_i_glide_evdw>  (1) 
-27.532283607990379

>  <r_i_glide_gscore>  (1) 
-4.7628250797646858

>  <r_i_glide_gscore_strain>  (1) 
0

>  <r_i_glide_hbond>  (1) 
-0.42666968661951277

>  <r_i_glide_ligand_efficiency>  (1) 
-0.19845104499019525

>  <r_i_glide_ligand_efficiency_ln>  (1) 
-1.1399625933895736

>  <r_i_glide_ligand_efficiency_sa>  (1) 
-0.57243186872833052

>  <r_i_glide_lipo>  (1) 
-1.5894797276429153

>  <r_i_glide_metal>  (1) 
-0

>  <r_i_glide_rewards>  (1) 
-1.4349329331102902

>  <r_lp_Energy>  (1) 
11.251940999999999

>  <r_lp_tautomer_probability>  (1) 
1

>  <s_epik_Chemistry_Notes>  (1) 
This compound contains an acetal/aminal-like group ( X-CH(R)-Y where X, Y are N, S, or O) that may be acid/base labile, releasing an aldehyde. This compound has a N-S or N-O group and may undergo hydrolysis at high or low pH.

>  <s_epik_cmdline>  (1) 
J2VwaWtfcHl0aG9uJywgJy1waHQnLCAnMS4wJywgJy1waCcsICc3LjQnLCAnLXRuJywgJzgnLCAnLW1hJywgJzUwMCcsICctaW1hZScsICc8aW5maWxlLm1hZT4nLCAnLW9tYWUnLCAnPG91dGZpbGUubWFlPic=

>  <s_epik_input>  (1) 
czFbY0hdYyhbQ0gzXSluYzFDKD1PKU9bTkhdW0NASF0oW0NAQEhdKFtPSF0pW0NIMl1bT0hdKVtDSDJdTihbQ0BIXShbQ0hdKEYpRilbT0hdKVtDSDJdW09IXQ==

>  <s_glide_docking_method>  (1) 
confgen

>  <s_i_glide_gridfile>  (1) 
gpcr_drd2_6luq_protein_autoprepared_prepared

>  <s_lp_Force_Field>  (1) 
S-OPLS

>  <s_lp_Variant>  (1) 
DiffSBDD_6_num_sample_50-1

>  <s_m_source_file>  (1) 
generated__ligand_DiffSBDD_2026-05-06_prepared.sdf

>  <GenAI_Model>  (1) 
DiffSBDD

>  <Protein>  (1) 
generic_title2

$$$$
DiffSBDD_13_num_sample_50
     RDKit          3D

  0  0  0  0  0  0  0  0  0  0999 V3000
M  V30 BEGIN CTAB
M  V30 COUNTS 46 50 0 0 1
M  V30 BEGIN ATOM
M  V30 1 C 8.030245 6.347057 -12.647091 0
M  V30 2 N 8.234871 3.597014 -14.754341 0 CFG=2 CHG=1
M  V30 3 C 11.434809 7.454480 -4.813974 0
M  V30 4 C 10.605360 6.700732 -7.017213 0
M  V30 5 C 8.405902 4.090499 -11.813029 0
M  V30 6 C 10.626799 8.080182 -7.422834 0
M  V30 7 C 8.668797 6.875212 -11.493525 0
M  V30 8 C 7.034799 3.573928 -18.008871 0
M  V30 9 C 11.033991 6.430947 -5.686303 0
M  V30 10 C 7.078197 5.020249 -17.496326 0
M  V30 11 O 6.366592 3.371496 -13.648490 0 CHG=-1
M  V30 12 C 8.941774 4.169083 -15.909343 0 CFG=1
M  V30 13 O 11.829187 9.769294 -4.385181 0
M  V30 14 C 9.035884 4.616641 -10.667161 0
M  V30 15 S 10.084718 8.225539 -9.067648 0
M  V30 16 C 8.291814 2.805107 -16.001873 0 CFG=2
M  V30 17 C 7.161622 4.330843 -14.050085 0 CFG=1
M  V30 18 C 10.116536 5.813964 -8.095557 0
M  V30 19 C 7.882000 4.943793 -12.803170 0
M  V30 20 C 11.437225 8.782536 -5.238142 0
M  V30 21 C 9.769652 6.538245 -9.225712 0
M  V30 22 C 7.082570 2.573296 -16.842082 0
M  V30 23 C 9.161241 6.010798 -10.481063 0
M  V30 24 C 8.358631 5.331006 -16.699386 0
M  V30 25 Cl 7.433559 7.419566 -13.843170 0
M  V30 26 C 11.043624 9.098825 -6.538312 0
M  V30 27 H 11.745198 7.209058 -3.808741 0
M  V30 28 H 8.313177 3.020501 -11.924845 0
M  V30 29 H 8.753730 7.944412 -11.379050 0
M  V30 30 H 7.872899 3.399662 -18.685155 0
M  V30 31 H 6.130104 3.411111 -18.595426 0
M  V30 32 H 11.040334 5.416331 -5.331764 0
M  V30 33 H 6.996405 5.715093 -18.333566 0
M  V30 34 H 6.205853 5.209794 -16.874308 0
M  V30 35 H 9.995346 4.252007 -15.652655 0
M  V30 36 H 12.089861 9.448625 -3.535139 0
M  V30 37 H 9.418781 3.942754 -9.919335 0
M  V30 38 H 8.939369 1.937590 -15.890960 0
M  V30 39 H 6.753188 5.108092 -14.680743 0
M  V30 40 H 10.009602 4.749536 -7.990303 0
M  V30 41 H 6.234850 2.569266 -16.179666 0
M  V30 42 H 7.135182 1.562186 -17.246613 0
M  V30 43 H 8.208767 6.169232 -16.034935 0
M  V30 44 H 9.127875 5.644368 -17.405203 0
M  V30 45 H 11.057876 10.121924 -6.854080 0
M  V30 46 H 8.862875 3.195818 -14.074891 0
M  V30 END ATOM
M  V30 BEGIN BOND
M  V30 1 2 6 4
M  V30 2 1 7 1
M  V30 3 2 9 3
M  V30 4 1 9 4
M  V30 5 1 10 8
M  V30 6 1 12 2
M  V30 7 2 14 5
M  V30 8 1 15 6
M  V30 9 1 16 2
M  V30 10 1 16 12
M  V30 11 1 17 2
M  V30 12 1 17 11
M  V30 13 1 18 4
M  V30 14 2 19 1
M  V30 15 1 19 5
M  V30 16 1 19 17
M  V30 17 1 20 3
M  V30 18 1 20 13
M  V30 19 1 21 15
M  V30 20 2 21 18
M  V30 21 1 22 8
M  V30 22 1 22 16
M  V30 23 2 23 7
M  V30 24 1 23 14
M  V30 25 1 23 21
M  V30 26 1 24 10
M  V30 27 1 24 12
M  V30 28 1 25 1
M  V30 29 1 26 6
M  V30 30 2 26 20
M  V30 31 1 27 3
M  V30 32 1 28 5
M  V30 33 1 29 7
M  V30 34 1 30 8
M  V30 35 1 31 8
M  V30 36 1 32 9
M  V30 37 1 33 10
M  V30 38 1 34 10
M  V30 39 1 12 35 CFG=1
M  V30 40 1 36 13
M  V30 41 1 37 14
M  V30 42 1 16 38 CFG=1
M  V30 43 1 17 39 CFG=3
M  V30 44 1 40 18
M  V30 45 1 41 22
M  V30 46 1 42 22
M  V30 47 1 43 24
M  V30 48 1 44 24
M  V30 49 1 45 26
M  V30 50 1 2 46 CFG=1
M  V30 END BOND
M  V30 END CTAB
M  END
>  <i_epik_Tot_Q>  (1) 
0

>  <i_epik_Tot_abs_Q>  (1) 
2

>  <i_i_glide_confnum>  (1) 
3

>  <i_i_glide_lignum>  (1) 
49

>  <i_i_glide_posenum>  (1) 
332

>  <i_i_glide_rotatable_bonds>  (1) 
4

>  <i_lp_mmshare_version>  (1) 
72125

>  <i_m_source_file_index>  (1) 
14

>  <i_f3d_flags>  (1) 
0

>  <num_sample>  (1) 
50

>  <b_lp_Chiralities_Consistent>  (1) 
1

>  <r_epik_Charging_Adjusted_Penalty>  (1) 
0.011735890959206876

>  <r_epik_Ionization_Penalty>  (1) 
0.011735890959206876

>  <r_epik_Ionization_Penalty_Charging>  (1) 
0.0019353161310539371

>  <r_epik_Ionization_Penalty_Neutral>  (1) 
0.009800574828152938

>  <r_epik_State_Penalty>  (1) 
0.0098005748281529397

>  <r_glide_ring_energy>  (1) 
0

>  <r_i_docking_score>  (1) 
-4.7617416530584675

>  <r_i_glide_ecoul>  (1) 
-1.408875750148967

>  <r_i_glide_eff_state_penalty>  (1) 
0.0098005748281529397

>  <r_i_glide_einternal>  (1) 
12.485905871035321

>  <r_i_glide_emodel>  (1) 
-23.139105609620923

>  <r_i_glide_emodel_strain>  (1) 
0.73017630033997705

>  <r_i_glide_energy>  (1) 
-22.368517885753015

>  <r_i_glide_erotb>  (1) 
0.39195233306171845

>  <r_i_glide_esite>  (1) 
0

>  <r_i_glide_evdw>  (1) 
-20.959642135604046

>  <r_i_glide_gscore>  (1) 
-4.7715422278866209

>  <r_i_glide_gscore_strain>  (1) 
0

>  <r_i_glide_hbond>  (1) 
0

>  <r_i_glide_ligand_efficiency>  (1) 
-0.18314390973301797

>  <r_i_glide_ligand_efficiency_ln>  (1) 
-1.118279402672022

>  <r_i_glide_ligand_efficiency_sa>  (1) 
-0.54256311253682021

>  <r_i_glide_lipo>  (1) 
-2.2075352258490883

>  <r_i_glide_metal>  (1) 
-0

>  <r_i_glide_rewards>  (1) 
-1.6966458657967038

>  <r_lp_Energy>  (1) 
50.308721999999996

>  <s_epik_Chemistry_Notes>  (1) 
This compound contains an acetal/aminal-like group ( X-CH(R)-Y where X, Y are N, S, or O) that may be acid/base labile, releasing an aldehyde.

>  <s_epik_cmdline>  (1) 
J2VwaWtfcHl0aG9uJywgJy1waHQnLCAnMS4wJywgJy1waCcsICc3LjQnLCAnLXRuJywgJzgnLCAnLW1hJywgJzUwMCcsICctaW1hZScsICc8aW5maWxlLm1hZT4nLCAnLW9tYWUnLCAnPG91dGZpbGUubWFlPic=

>  <s_epik_input>  (1) 
W2NIXTFbY0hdYyhbT0hdKVtjSF1jKGMxMilzYyhbY0hdMiktYyhbY0hdYzNDbClbY0hdW2NIXWMzW0NASF0oW09IXSlONFtDQEhdKFtDQEhdNDUpW0NIMl1bQ0gyXVtDSDJdW0NIMl01

>  <s_glide_docking_method>  (1) 
confgen

>  <s_i_glide_gridfile>  (1) 
gpcr_drd2_6luq_protein_autoprepared_prepared

>  <s_lp_Force_Field>  (1) 
S-OPLS

>  <s_lp_Variant>  (1) 
DiffSBDD_13_num_sample_50-2

>  <s_m_source_file>  (1) 
generated__ligand_DiffSBDD_2026-05-06_prepared.sdf

>  <GenAI_Model>  (1) 
DiffSBDD

>  <Protein>  (1) 
generic_title2

$$$$
DiffSBDD_34_num_sample_50
     RDKit          3D

  0  0  0  0  0  0  0  0  0  0999 V3000
M  V30 BEGIN CTAB
M  V30 COUNTS 109 114 0 0 1
M  V30 BEGIN ATOM
M  V30 1 C 10.988950 4.020985 -19.769241 0
M  V30 2 C 7.075623 0.388797 -18.477479 0
M  V30 3 C 6.878019 1.170372 -16.049109 0
M  V30 4 C 14.065299 3.880480 -18.603217 0
M  V30 5 C 5.925476 5.799006 -12.944785 0
M  V30 6 C 14.974973 9.460758 -20.465336 0 CFG=1
M  V30 7 C 7.163556 0.799907 -19.974689 0 CFG=2
M  V30 8 C 7.077082 2.329970 -15.058376 0
M  V30 9 O 12.702897 4.384346 -21.358740 0
M  V30 10 C 16.667477 6.479361 -18.038014 0 CFG=1
M  V30 11 N 15.023327 10.569102 -22.691473 0 CHG=1
M  V30 12 C 14.096526 4.165784 -21.184159 0 CFG=1
M  V30 13 O 10.937953 0.399148 -22.050349 0
M  V30 14 C 7.340251 1.544758 -17.483470 0 CFG=1
M  V30 15 C 11.031564 2.814448 -22.048403 0
M  V30 16 F 14.437389 4.396072 -23.499655 0
M  V30 17 C 14.532189 6.395883 -22.274900 0
M  V30 18 C 7.368001 7.678272 -12.138996 0
M  V30 19 O 14.323952 8.305415 -20.983191 0
M  V30 20 C 8.811433 2.042919 -17.507703 0
M  V30 21 C 6.031452 0.176548 -20.809091 0
M  V30 22 C 8.523631 0.464497 -20.607597 0
M  V30 23 C 6.979263 6.199612 -11.934306 0 CFG=2
M  V30 24 C 12.757914 4.344863 -17.912186 0
M  V30 25 O 9.034844 3.097807 -12.691299 0
M  V30 26 O 9.160558 1.579199 -21.118516 0
M  V30 27 C 10.349199 4.121479 -17.302900 0
M  V30 28 C 8.057866 3.829400 -12.556748 0
M  V30 29 C 14.820220 4.894906 -22.324168 0 CFG=1
M  V30 30 C 14.606981 4.690079 -19.820822 0 CFG=1
M  V30 31 C 10.383941 1.458133 -21.745797 0
M  V30 32 O 8.959942 -0.690068 -20.627026 0
M  V30 33 O 9.303480 5.682810 -11.538006 0
M  V30 34 C 5.606997 4.341824 -12.707988 0
M  V30 35 C 11.423950 3.683028 -18.327286 0 CFG=1
M  V30 36 C 15.734611 9.204823 -19.155476 0
M  V30 37 C 15.195383 6.807006 -18.355958 0 CFG=1
M  V30 38 C 14.946062 8.320807 -18.174463 0
M  V30 39 C 6.976763 0.923951 -12.886283 0
M  V30 40 C 14.992039 7.042966 -20.956611 0 CFG=1
M  V30 41 C 15.849677 10.085006 -21.567285 0
M  V30 42 O 17.069324 5.102613 -18.060321 0
M  V30 43 C 6.510826 2.194066 -13.629808 0 CFG=1
M  V30 44 C 8.216276 5.283954 -11.959763 0
M  V30 45 C 14.549560 6.254134 -19.679858 0 CFG=1
M  V30 46 N 6.776363 3.477937 -12.925328 0
M  V30 47 C 11.848872 3.365938 -20.861574 0 CFG=2
M  V30 48 C 8.923095 3.581383 -17.506931 0
M  V30 49 C 17.719237 5.974608 -18.996886 0
M  V30 50 H 9.967007 3.689740 -19.921422 0
M  V30 51 H 10.952106 5.102713 -19.907812 0
M  V30 52 H 7.739447 -0.448693 -18.255509 0
M  V30 53 H 6.072059 0.006183 -18.285187 0
M  V30 54 H 7.425169 0.292391 -15.702642 0
M  V30 55 H 5.824533 0.889477 -16.064956 0
M  V30 56 H 14.836948 3.924952 -17.834973 0
M  V30 57 H 14.008323 2.818555 -18.842293 0
M  V30 58 H 6.270904 5.957340 -13.967986 0
M  V30 59 H 5.034894 6.411068 -12.811253 0
M  V30 60 H 14.180718 10.169307 -20.231982 0
M  V30 61 H 7.034819 1.880760 -20.038292 0
M  V30 62 H 6.634912 3.226446 -15.492463 0
M  V30 63 H 8.145327 2.518959 -14.984403 0
M  V30 64 H 17.042644 6.997480 -17.157056 0
M  V30 65 H 15.606061 10.957570 -23.418320 0
M  V30 66 H 14.476146 9.804422 -23.061930 0
M  V30 67 H 14.331003 3.104385 -21.287112 0
M  V30 68 H 6.699705 2.366250 -17.809301 0
M  V30 69 H 10.272098 3.531583 -22.360403 0
M  V30 70 H 11.693944 2.672800 -22.902905 0
M  V30 71 H 15.014399 6.895605 -23.115481 0
M  V30 72 H 13.460589 6.554771 -22.408478 0
M  V30 73 H 8.190116 7.983842 -11.491474 0
M  V30 74 H 7.665387 7.879720 -13.168703 0
M  V30 75 H 6.527657 8.326620 -11.891687 0
M  V30 76 H 9.367299 1.618193 -16.671717 0
M  V30 77 H 9.334995 1.672687 -18.382787 0
M  V30 78 H 6.110629 0.452779 -21.861482 0
M  V30 79 H 6.041264 -0.912681 -20.750509 0
M  V30 80 H 5.056003 0.518783 -20.460737 0
M  V30 81 H 6.557494 6.104604 -10.932811 0
M  V30 82 H 12.642933 5.425756 -17.935681 0
M  V30 83 H 12.896679 4.119084 -16.853197 0
M  V30 84 H 10.295368 5.211069 -17.290703 0
M  V30 85 H 10.675232 3.837479 -16.301492 0
M  V30 86 H 15.894393 4.717102 -22.264873 0
M  V30 87 H 15.657693 4.419712 -19.867541 0
M  V30 88 H 4.788474 4.068906 -13.374488 0
M  V30 89 H 5.236796 4.187349 -11.692785 0
M  V30 90 H 11.539818 2.601644 -18.242699 0
M  V30 91 H 16.719878 8.783811 -19.355391 0
M  V30 92 H 15.924190 10.169409 -18.683247 0
M  V30 93 H 14.648146 6.349278 -17.533885 0
M  V30 94 H 15.228341 8.598067 -17.160022 0
M  V30 95 H 13.879416 8.543616 -18.238173 0
M  V30 96 H 6.640794 0.027946 -13.409422 0
M  V30 97 H 8.058839 0.844639 -12.792221 0
M  V30 98 H 6.539638 0.879070 -11.891669 0
M  V30 99 H 16.073243 7.162856 -21.000291 0
M  V30 100 H 16.403261 10.934702 -21.165621 0
M  V30 101 H 16.584978 9.367954 -21.933693 0
M  V30 102 H 5.434843 2.059974 -13.716039 0
M  V30 103 H 13.485049 6.478475 -19.613659 0
M  V30 104 H 12.411012 2.533101 -20.437568 0
M  V30 105 H 8.479537 3.982732 -18.417233 0
M  V30 106 H 8.315706 4.005692 -16.712125 0
M  V30 107 H 17.482968 5.765175 -20.035891 0
M  V30 108 H 18.765501 6.172514 -18.771903 0
M  V30 109 H 14.394955 11.288713 -22.343888 0
M  V30 END ATOM
M  V30 BEGIN BOND
M  V30 1 1 7 2
M  V30 2 1 8 3
M  V30 3 1 12 9
M  V30 4 1 14 2
M  V30 5 1 14 3
M  V30 6 1 19 6
M  V30 7 1 20 14
M  V30 8 1 21 7
M  V30 9 1 22 7
M  V30 10 1 23 5
M  V30 11 1 23 18
M  V30 12 1 24 4
M  V30 13 1 26 22
M  V30 14 2 28 25
M  V30 15 1 29 12
M  V30 16 1 29 16
M  V30 17 1 29 17
M  V30 18 1 30 4
M  V30 19 1 30 12
M  V30 20 2 31 13
M  V30 21 1 31 15
M  V30 22 1 31 26
M  V30 23 2 32 22
M  V30 24 1 34 5
M  V30 25 1 35 1
M  V30 26 1 35 24
M  V30 27 1 35 27
M  V30 28 1 36 6
M  V30 29 1 37 10
M  V30 30 1 38 36
M  V30 31 1 38 37
M  V30 32 1 40 17
M  V30 33 1 40 19
M  V30 34 1 41 6
M  V30 35 1 41 11
M  V30 36 1 42 10
M  V30 37 1 43 8
M  V30 38 1 43 39
M  V30 39 1 44 23
M  V30 40 1 44 28
M  V30 41 2 44 33
M  V30 42 1 45 30
M  V30 43 1 45 37
M  V30 44 1 45 40
M  V30 45 1 46 28
M  V30 46 1 46 34
M  V30 47 1 46 43
M  V30 48 1 47 1
M  V30 49 1 47 9
M  V30 50 1 47 15
M  V30 51 1 48 20
M  V30 52 1 48 27
M  V30 53 1 49 10
M  V30 54 1 49 42
M  V30 55 1 50 1
M  V30 56 1 51 1
M  V30 57 1 52 2
M  V30 58 1 53 2
M  V30 59 1 54 3
M  V30 60 1 55 3
M  V30 61 1 56 4
M  V30 62 1 57 4
M  V30 63 1 58 5
M  V30 64 1 59 5
M  V30 65 1 6 60 CFG=1
M  V30 66 1 7 61 CFG=1
M  V30 67 1 62 8
M  V30 68 1 63 8
M  V30 69 1 10 64 CFG=1
M  V30 70 1 65 11
M  V30 71 1 66 11
M  V30 72 1 12 67 CFG=1
M  V30 73 1 14 68 CFG=3
M  V30 74 1 69 15
M  V30 75 1 70 15
M  V30 76 1 71 17
M  V30 77 1 72 17
M  V30 78 1 73 18
M  V30 79 1 74 18
M  V30 80 1 75 18
M  V30 81 1 76 20
M  V30 82 1 77 20
M  V30 83 1 78 21
M  V30 84 1 79 21
M  V30 85 1 80 21
M  V30 86 1 23 81 CFG=1
M  V30 87 1 82 24
M  V30 88 1 83 24
M  V30 89 1 84 27
M  V30 90 1 85 27
M  V30 91 1 29 86 CFG=1
M  V30 92 1 30 87 CFG=3
M  V30 93 1 88 34
M  V30 94 1 89 34
M  V30 95 1 35 90 CFG=3
M  V30 96 1 91 36
M  V30 97 1 92 36
M  V30 98 1 37 93 CFG=1
M  V30 99 1 94 38
M  V30 100 1 95 38
M  V30 101 1 96 39
M  V30 102 1 97 39
M  V30 103 1 98 39
M  V30 104 1 40 99 CFG=3
M  V30 105 1 100 41
M  V30 106 1 101 41
M  V30 107 1 43 102 CFG=3
M  V30 108 1 45 103 CFG=1
M  V30 109 1 47 104 CFG=1
M  V30 110 1 105 48
M  V30 111 1 106 48
M  V30 112 1 107 49
M  V30 113 1 108 49
M  V30 114 1 109 11
M  V30 END BOND
M  V30 END CTAB
M  END
>  <i_epik_Tot_Q>  (1) 
1

>  <i_epik_Tot_abs_Q>  (1) 
1

>  <i_i_glide_confnum>  (1) 
257

>  <i_i_glide_lignum>  (1) 
88

>  <i_i_glide_posenum>  (1) 
345

>  <i_i_glide_rotatable_bonds>  (1) 
6

>  <i_lp_mmshare_version>  (1) 
72125

>  <i_m_source_file_index>  (1) 
35

>  <i_f3d_flags>  (1) 
0

>  <num_sample>  (1) 
50

>  <b_lp_Chiralities_Consistent>  (1) 
1

>  <r_epik_Charging_Adjusted_Penalty>  (1) 
0.0091647518509246212

>  <r_epik_Ionization_Penalty>  (1) 
0.0045823761218381463

>  <r_epik_Ionization_Penalty_Charging>  (1) 
0.0045823759254623037

>  <r_epik_Ionization_Penalty_Neutral>  (1) 
1.9637584269267853e-10

>  <r_epik_State_Penalty>  (1) 
0.0045823759254623184

>  <r_glide_ring_energy>  (1) 
0

>  <r_i_docking_score>  (1) 
-4.7583227289806915

>  <r_i_glide_ecoul>  (1) 
-5.6748949312690744

>  <r_i_glide_eff_state_penalty>  (1) 
0.0045823759254623184

>  <r_i_glide_einternal>  (1) 
21.515890800525394

>  <r_i_glide_emodel>  (1) 
-31.588683308709811

>  <r_i_glide_emodel_strain>  (1) 
0.45056719892818364

>  <r_i_glide_energy>  (1) 
-40.536777745751394

>  <r_i_glide_erotb>  (1) 
0.051949520036259446

>  <r_i_glide_esite>  (1) 
-0.031314781548481933

>  <r_i_glide_evdw>  (1) 
-34.861882814482321

>  <r_i_glide_gscore>  (1) 
-4.7629051049061539

>  <r_i_glide_gscore_strain>  (1) 
0

>  <r_i_glide_hbond>  (1) 
-0.15834049271807241

>  <r_i_glide_ligand_efficiency>  (1) 
-0.097108627122054925

>  <r_i_glide_ligand_efficiency_ln>  (1) 
-0.97271004227577695

>  <r_i_glide_ligand_efficiency_sa>  (1) 
-0.35535015372022727

>  <r_i_glide_lipo>  (1) 
-1.2852558445590729

>  <r_i_glide_metal>  (1) 
-0

>  <r_i_glide_rewards>  (1) 
-0.74561512570230937

>  <r_lp_Energy>  (1) 
80.647393999999991

>  <r_lp_tautomer_probability>  (1) 
0.99995000000000001

>  <s_epik_cmdline>  (1) 
J2VwaWtfcHl0aG9uJywgJy1waHQnLCAnMS4wJywgJy1waCcsICc3LjQnLCAnLXRuJywgJzgnLCAnLW1hJywgJzUwMCcsICctaW1hZScsICc8aW5maWxlLm1hZT4nLCAnLW9tYWUnLCAnPG91dGZpbGUubWFlPic=

>  <s_epik_input>  (1) 
W0NIMl0xT1tDQEBIXTFbQ0BIXTJbQ0gyXVtDSDJdW0NASF0oW0NIMl1bTkgyXSlPW0NASF0oW0NIMl1bQ0BASF0zRilbQ0BIXTJbQ0BIXShbQ0BIXTM0KVtDSDJdW0NIMl1bQ0BASF01W0NIMl1bQ0BIXShPNClbQ0gyXUMoPU8pT0MoPU8pW0NAQEhdKFtDSDNdKVtDSDJdW0NASF0oW0NIMl1bQ0gyXVtDSDJdNSlbQ0gyXVtDSDJdW0NAQEhdKFtDSDNdKU4oQyg9TylDNj1PKVtDSDJdW0NIMl1bQ0BASF02W0NIM10=

>  <s_glide_docking_method>  (1) 
confgen

>  <s_i_glide_gridfile>  (1) 
gpcr_drd2_6luq_protein_autoprepared_prepared

>  <s_lp_Force_Field>  (1) 
S-OPLS

>  <s_lp_Variant>  (1) 
DiffSBDD_34_num_sample_50-2

>  <s_m_source_file>  (1) 
generated__ligand_DiffSBDD_2026-05-06_prepared.sdf

>  <GenAI_Model>  (1) 
DiffSBDD

>  <Protein>  (1) 
generic_title2

$$$$
DiffSBDD_18_num_sample_50
     RDKit          3D

  0  0  0  0  0  0  0  0  0  0999 V3000
M  V30 BEGIN CTAB
M  V30 COUNTS 58 61 0 0 1
M  V30 BEGIN ATOM
M  V30 1 C 7.397142 6.043014 -15.091661 0
M  V30 2 C 17.008213 6.205273 -17.617436 0 CFG=2
M  V30 3 C 6.457960 5.048284 -18.696463 0
M  V30 4 C 5.608929 7.502561 -15.879304 0
M  V30 5 C 6.501442 7.104401 -14.867126 0
M  V30 6 C 14.362085 8.106996 -19.231692 0
M  V30 7 O 14.181183 5.588287 -16.952401 0
M  V30 8 C 13.850624 7.003293 -18.725849 0
M  V30 9 C 8.393853 4.220482 -16.559990 0 CFG=2
M  V30 10 S 17.940552 7.723188 -19.806509 0
M  V30 11 C 14.649625 9.273945 -19.769607 0
M  V30 12 C 15.980424 5.517824 -18.542972 0
M  V30 13 C 12.340968 6.804899 -18.642135 0
M  V30 14 C 16.071861 9.769417 -20.010569 0
M  V30 15 C 9.878216 4.663200 -16.426925 0
M  V30 16 C 12.914795 4.953641 -17.004473 0
M  V30 17 N 14.608464 5.925347 -18.272854 0
M  V30 18 C 8.109277 3.364110 -17.808835 0
M  V30 19 C 18.277821 6.690115 -18.348017 0
M  V30 20 O 17.434836 5.271981 -16.640761 0
M  V30 21 C 5.603580 6.836287 -17.117933 0
M  V30 22 C 6.495736 5.769293 -17.354598 0
M  V30 23 C 7.406698 5.370729 -16.333763 0
M  V30 24 C 11.876935 6.026488 -17.389205 0 CFG=2
M  V30 25 C 17.177531 9.208475 -19.093292 0
M  V30 26 C 7.682962 4.196825 -19.018511 0
M  V30 27 C 10.465378 5.442639 -17.618085 0
M  V30 28 H 8.080574 5.743778 -14.310466 0
M  V30 29 H 16.541018 7.041084 -17.099062 0
M  V30 30 H 5.573566 4.410066 -18.691734 0
M  V30 31 H 6.302706 5.777504 -19.492465 0
M  V30 32 H 4.923578 8.319083 -15.703291 0
M  V30 33 H 6.500569 7.615323 -13.915971 0
M  V30 34 H 8.226409 3.555039 -15.711395 0
M  V30 35 H 13.859782 9.938747 -20.085741 0
M  V30 36 H 16.176069 5.731783 -19.592257 0
M  V30 37 H 16.047720 4.433076 -18.455314 0
M  V30 38 H 11.831914 7.769379 -18.682866 0
M  V30 39 H 12.048336 6.269882 -19.546436 0
M  V30 40 H 16.031367 10.851816 -19.891663 0
M  V30 41 H 16.326274 9.615429 -21.059800 0
M  V30 42 H 10.483513 3.769315 -16.291681 0
M  V30 43 H 10.015236 5.239761 -15.511969 0
M  V30 44 H 12.925791 4.121551 -17.710837 0
M  V30 45 H 12.697297 4.543869 -16.018663 0
M  V30 46 H 8.966072 2.734060 -18.049930 0
M  V30 47 H 7.292398 2.678674 -17.577763 0
M  V30 48 H 18.921929 7.246522 -17.666937 0
M  V30 49 H 18.854846 5.831070 -18.693158 0
M  V30 50 H 17.881451 5.744553 -15.954020 0
M  V30 51 H 4.911248 7.141606 -17.888973 0
M  V30 52 H 11.832498 6.736949 -16.562285 0
M  V30 53 H 16.799494 9.031810 -18.087560 0
M  V30 54 H 17.971490 9.948134 -18.986483 0
M  V30 55 H 7.470183 3.548974 -19.869350 0
M  V30 56 H 8.489402 4.850922 -19.340123 0
M  V30 57 H 9.785035 6.249613 -17.888823 0
M  V30 58 H 10.514404 4.777129 -18.479417 0
M  V30 END ATOM
M  V30 BEGIN BOND
M  V30 1 1 5 1
M  V30 2 2 5 4
M  V30 3 2 8 6
M  V30 4 2 11 6
M  V30 5 1 12 2
M  V30 6 1 13 8
M  V30 7 1 14 11
M  V30 8 1 15 9
M  V30 9 1 16 7
M  V30 10 1 17 7
M  V30 11 1 17 8
M  V30 12 1 17 12
M  V30 13 1 18 9
M  V30 14 1 19 2
M  V30 15 1 19 10
M  V30 16 1 20 2
M  V30 17 1 21 4
M  V30 18 1 22 3
M  V30 19 2 22 21
M  V30 20 2 23 1
M  V30 21 1 23 9
M  V30 22 1 23 22
M  V30 23 1 24 13
M  V30 24 1 24 16
M  V30 25 1 25 10
M  V30 26 1 25 14
M  V30 27 1 26 3
M  V30 28 1 26 18
M  V30 29 1 27 15
M  V30 30 1 27 24
M  V30 31 1 28 1
M  V30 32 1 2 29 CFG=1
M  V30 33 1 30 3
M  V30 34 1 31 3
M  V30 35 1 32 4
M  V30 36 1 33 5
M  V30 37 1 9 34 CFG=1
M  V30 38 1 35 11
M  V30 39 1 36 12
M  V30 40 1 37 12
M  V30 41 1 38 13
M  V30 42 1 39 13
M  V30 43 1 40 14
M  V30 44 1 41 14
M  V30 45 1 42 15
M  V30 46 1 43 15
M  V30 47 1 44 16
M  V30 48 1 45 16
M  V30 49 1 46 18
M  V30 50 1 47 18
M  V30 51 1 48 19
M  V30 52 1 49 19
M  V30 53 1 50 20
M  V30 54 1 51 21
M  V30 55 1 24 52 CFG=1
M  V30 56 1 53 25
M  V30 57 1 54 25
M  V30 58 1 55 26
M  V30 59 1 56 26
M  V30 60 1 57 27
M  V30 61 1 58 27
M  V30 END BOND
M  V30 END CTAB
M  END
>  <i_epik_Tot_Q>  (1) 
0

>  <i_epik_Tot_abs_Q>  (1) 
0

>  <i_i_glide_confnum>  (1) 
16

>  <i_i_glide_lignum>  (1) 
54

>  <i_i_glide_posenum>  (1) 
390

>  <i_i_glide_rotatable_bonds>  (1) 
4

>  <i_lp_mmshare_version>  (1) 
72125

>  <i_m_source_file_index>  (1) 
19

>  <i_f3d_flags>  (1) 
0

>  <num_sample>  (1) 
50

>  <b_lp_Chiralities_Consistent>  (1) 
1

>  <r_epik_Charging_Adjusted_Penalty>  (1) 
0

>  <r_epik_Ionization_Penalty>  (1) 
0.00079685504618355781

>  <r_epik_Ionization_Penalty_Charging>  (1) 
0

>  <r_epik_Ionization_Penalty_Neutral>  (1) 
0.00079685504618355781

>  <r_epik_State_Penalty>  (1) 
-0

>  <r_glide_ring_energy>  (1) 
0.85507922053399688

>  <r_i_docking_score>  (1) 
-4.7456182635087254

>  <r_i_glide_ecoul>  (1) 
-2.3669813444842602

>  <r_i_glide_eff_state_penalty>  (1) 
-0

>  <r_i_glide_einternal>  (1) 
2.3620074854151953

>  <r_i_glide_emodel>  (1) 
-34.394651104265762

>  <r_i_glide_emodel_strain>  (1) 
0.083386324944804358

>  <r_i_glide_energy>  (1) 
-29.893232881697653

>  <r_i_glide_erotb>  (1) 
0.39257817709614257

>  <r_i_glide_esite>  (1) 
0

>  <r_i_glide_evdw>  (1) 
-27.526251537213394

>  <r_i_glide_gscore>  (1) 
-4.7456182635087254

>  <r_i_glide_gscore_strain>  (1) 
0

>  <r_i_glide_hbond>  (1) 
-0.1519274913002957

>  <r_i_glide_ligand_efficiency>  (1) 
-0.17576363938921205

>  <r_i_glide_ligand_efficiency_ln>  (1) 
-1.1047016941131542

>  <r_i_glide_ligand_efficiency_sa>  (1) 
-0.52729091816763629

>  <r_i_glide_lipo>  (1) 
-2.2144729593364381

>  <r_i_glide_metal>  (1) 
-0

>  <r_i_glide_rewards>  (1) 
-1.0404362114348256

>  <r_lp_Energy>  (1) 
7.009665

>  <r_lp_tautomer_probability>  (1) 
1

>  <s_epik_Chemistry_Notes>  (1) 
This compound has a N-S or N-O group and may undergo hydrolysis at high or low pH.

>  <s_epik_cmdline>  (1) 
J2VwaWtfcHl0aG9uJywgJy1waHQnLCAnMS4wJywgJy1waCcsICc3LjQnLCAnLXRuJywgJzgnLCAnLW1hJywgJzUwMCcsICctaW1hZScsICc8aW5maWxlLm1hZT4nLCAnLW9tYWUnLCAnPG91dGZpbGUubWFlPic=

>  <s_epik_input>  (1) 
W2NIXTFbY0hdW2NIXVtjSF1jKGMxMilbQ0BASF0oW0NIMl1bQ0gyXVtDSDJdMilbQ0gyXVtDSDJdW0NASF0oW0NIMl0zKVtDSDJdT04oQzM0KVtDSDJdW0NAQEhdKFtPSF0pW0NIMl1TW0NIMl1bQ0gyXVtDSF09Qz00

>  <s_glide_docking_method>  (1) 
confgen

>  <s_i_glide_gridfile>  (1) 
gpcr_drd2_6luq_protein_autoprepared_prepared

>  <s_lp_Force_Field>  (1) 
S-OPLS

>  <s_lp_Variant>  (1) 
DiffSBDD_18_num_sample_50-1

>  <s_m_source_file>  (1) 
generated__ligand_DiffSBDD_2026-05-06_prepared.sdf

>  <GenAI_Model>  (1) 
DiffSBDD

>  <Protein>  (1) 
generic_title2

$$$$
DiffSBDD_38_num_sample_50
     RDKit          3D

  0  0  0  0  0  0  0  0  0  0999 V3000
M  V30 BEGIN CTAB
M  V30 COUNTS 60 62 0 0 1
M  V30 BEGIN ATOM
M  V30 1 C 6.326380 2.208130 -18.997678 0
M  V30 2 O 8.464085 1.109827 -18.950301 0
M  V30 3 S 10.159717 4.969296 -16.393071 0
M  V30 4 F 10.948708 6.084608 -6.746922 0
M  V30 5 C 9.389386 5.314631 -8.856032 0 CFG=1
M  V30 6 C 6.812024 3.653611 -21.090441 0
M  V30 7 C 10.237615 7.331168 -10.045666 0
M  V30 8 C 8.635065 5.769247 -13.790735 0
M  V30 9 C 5.951300 3.474271 -19.824329 0 CFG=2
M  V30 10 C 8.502759 4.822849 -16.105416 0
M  V30 11 N 8.365223 3.154697 -18.009899 0
M  V30 12 C 8.970016 5.658156 -11.255850 0
M  V30 13 C 6.412000 5.301702 -14.817617 0
M  V30 14 C 7.818082 2.106368 -18.639895 0
M  V30 15 F 12.105779 7.439025 -7.918174 0
M  V30 16 O 7.525743 6.354678 -18.368097 0
M  V30 17 C 8.305907 5.009639 -12.485410 0 CFG=2
M  V30 18 O 8.877190 4.888863 -10.107575 0
M  V30 19 C 8.861947 3.576304 -12.612668 0
M  V30 20 O 9.036023 8.569299 -7.062558 0
M  V30 21 C 9.620231 6.841391 -11.242204 0
M  V30 22 N 10.999445 8.950148 -6.035848 0
M  V30 23 C 6.765432 4.991006 -12.302111 0
M  V30 24 C 7.078222 5.220459 -18.209076 0
M  V30 25 C 10.212715 8.273772 -6.877203 0
M  V30 26 C 5.844065 4.791657 -19.010308 0
M  V30 27 C 10.155517 6.638024 -8.907906 0
M  V30 28 C 7.648003 4.168843 -17.228216 0 CFG=2
M  V30 29 N 7.873420 5.256206 -14.945283 0
M  V30 30 C 6.003831 4.511086 -13.559599 0
M  V30 31 N 8.334860 5.369180 -7.895356 0
M  V30 32 C 10.851019 7.088963 -7.619762 0
M  V30 33 H 5.721213 2.137961 -18.094727 0
M  V30 34 H 6.066198 1.324193 -19.581447 0
M  V30 35 H 10.097226 4.544048 -8.550124 0
M  V30 36 H 7.839091 3.932057 -20.854152 0
M  V30 37 H 6.843063 2.736072 -21.678439 0
M  V30 38 H 6.404863 4.436445 -21.730824 0
M  V30 39 H 10.791473 8.257569 -10.069472 0
M  V30 40 H 8.322386 6.808063 -13.677181 0
M  V30 41 H 9.716408 5.769300 -13.901460 0
M  V30 42 H 4.940986 3.282957 -20.189624 0
M  V30 43 H 9.365771 3.127362 -17.865216 0
M  V30 44 H 6.132371 6.346539 -14.674652 0
M  V30 45 H 5.835122 4.978546 -15.674840 0
M  V30 46 H 8.475306 3.047816 -13.481721 0
M  V30 47 H 9.947676 3.591166 -12.692177 0
M  V30 48 H 8.635076 2.969458 -11.743607 0
M  V30 49 H 9.695376 7.422394 -12.145629 0
M  V30 50 H 10.627489 9.733893 -5.523777 0
M  V30 51 H 11.961899 8.674616 -5.916949 0
M  V30 52 H 6.490485 4.374557 -11.444180 0
M  V30 53 H 6.426495 6.000176 -12.061747 0
M  V30 54 H 5.036584 4.702997 -18.291663 0
M  V30 55 H 6.846633 3.615733 -16.750539 0
M  V30 56 H 4.930618 4.605822 -13.399166 0
M  V30 57 H 6.185560 3.448479 -13.719944 0
M  V30 58 H 7.788556 6.226574 -7.998659 0
M  V30 59 H 7.672524 4.625621 -8.059446 0
M  V30 60 H 5.563265 5.607383 -19.676391 0
M  V30 END ATOM
M  V30 BEGIN BOND
M  V30 1 1 9 1
M  V30 2 1 9 6
M  V30 3 2 10 3
M  V30 4 1 14 1
M  V30 5 2 14 2
M  V30 6 1 14 11
M  V30 7 1 17 8
M  V30 8 1 17 12
M  V30 9 1 18 5
M  V30 10 1 18 12
M  V30 11 1 17 19 CFG=3
M  V30 12 1 21 7
M  V30 13 2 21 12
M  V30 14 1 23 17
M  V30 15 2 24 16
M  V30 16 2 25 20
M  V30 17 1 25 22
M  V30 18 1 26 9
M  V30 19 1 26 24
M  V30 20 1 27 5
M  V30 21 2 27 7
M  V30 22 1 28 10
M  V30 23 1 28 11
M  V30 24 1 28 24
M  V30 25 1 29 8
M  V30 26 1 29 10
M  V30 27 1 29 13
M  V30 28 1 30 13
M  V30 29 1 30 23
M  V30 30 1 31 5
M  V30 31 1 32 4
M  V30 32 1 32 15
M  V30 33 1 32 25
M  V30 34 1 32 27
M  V30 35 1 33 1
M  V30 36 1 34 1
M  V30 37 1 5 35 CFG=1
M  V30 38 1 36 6
M  V30 39 1 37 6
M  V30 40 1 38 6
M  V30 41 1 39 7
M  V30 42 1 40 8
M  V30 43 1 41 8
M  V30 44 1 9 42 CFG=3
M  V30 45 1 43 11
M  V30 46 1 44 13
M  V30 47 1 45 13
M  V30 48 1 46 19
M  V30 49 1 47 19
M  V30 50 1 48 19
M  V30 51 1 49 21
M  V30 52 1 50 22
M  V30 53 1 51 22
M  V30 54 1 52 23
M  V30 55 1 53 23
M  V30 56 1 54 26
M  V30 57 1 28 55 CFG=1
M  V30 58 1 56 30
M  V30 59 1 57 30
M  V30 60 1 58 31
M  V30 61 1 59 31
M  V30 62 1 60 26
M  V30 END BOND
M  V30 END CTAB
M  END
>  <i_epik_Tot_Q>  (1) 
0

>  <i_epik_Tot_abs_Q>  (1) 
0

>  <i_i_glide_confnum>  (1) 
30

>  <i_i_glide_lignum>  (1) 
95

>  <i_i_glide_posenum>  (1) 
320

>  <i_i_glide_rotatable_bonds>  (1) 
5

>  <i_lp_mmshare_version>  (1) 
72125

>  <i_m_source_file_index>  (1) 
39

>  <i_f3d_flags>  (1) 
0

>  <num_sample>  (1) 
50

>  <b_lp_Chiralities_Consistent>  (1) 
1

>  <r_epik_Charging_Adjusted_Penalty>  (1) 
0.0043173356697657605

>  <r_epik_Ionization_Penalty>  (1) 
2.5101429145755949

>  <r_epik_Ionization_Penalty_Charging>  (1) 
0

>  <r_epik_Ionization_Penalty_Neutral>  (1) 
2.5101429145755949

>  <r_epik_State_Penalty>  (1) 
0.0043173356697657605

>  <r_glide_ring_energy>  (1) 
0.02445303134611947

>  <r_i_docking_score>  (1) 
-4.7431967285706964

>  <r_i_glide_ecoul>  (1) 
0.78353865773409281

>  <r_i_glide_eff_state_penalty>  (1) 
0.0043173356697657605

>  <r_i_glide_einternal>  (1) 
1.4927992213019223

>  <r_i_glide_emodel>  (1) 
-51.230470609798552

>  <r_i_glide_emodel_strain>  (1) 
0.33994440192510922

>  <r_i_glide_energy>  (1) 
-39.717838873049914

>  <r_i_glide_erotb>  (1) 
0.36503894659470715

>  <r_i_glide_esite>  (1) 
-0.0049759273722439629

>  <r_i_glide_evdw>  (1) 
-40.501377530784005

>  <r_i_glide_gscore>  (1) 
-4.7475140642404625

>  <r_i_glide_gscore_strain>  (1) 
0

>  <r_i_glide_hbond>  (1) 
-0.21033147184986828

>  <r_i_glide_ligand_efficiency>  (1) 
-0.14822489776783426

>  <r_i_glide_ligand_efficiency_ln>  (1) 
-1.0621310421865788

>  <r_i_glide_ligand_efficiency_sa>  (1) 
-0.47058471728907791

>  <r_i_glide_lipo>  (1) 
-1.067628607026587

>  <r_i_glide_metal>  (1) 
-0

>  <r_i_glide_rewards>  (1) 
-1.9220789267073835

>  <r_lp_Energy>  (1) 
66.989650999999995

>  <r_lp_tautomer_probability>  (1) 
0.99999998000000001

>  <s_epik_Chemistry_Notes>  (1) 
This compound contains an acetal/aminal-like group ( X-CH(R)-Y where X, Y are N, S, or O) that may be acid/base labile, releasing an aldehyde.

>  <s_epik_cmdline>  (1) 
J2VwaWtfcHl0aG9uJywgJy1waHQnLCAnMS4wJywgJy1waCcsICc3LjQnLCAnLXRuJywgJzgnLCAnLW1hJywgJzUwMCcsICctaW1hZScsICc8aW5maWxlLm1hZT4nLCAnLW9tYWUnLCAnPG91dGZpbGUubWFlPic=

>  <s_epik_input>  (1) 
W0NIM11bQ0BASF0xW0NIMl1DKD1PKVtOSF1bQ0BIXShDKD1PKVtDSDJdMSlDKD1TKU4oW0NIMl1bQ0gyXVtDSDJdMilbQ0gyXVtDQEBdMihbQ0gzXSlDKE9bQ0BASF0zW05IMl0pPVtDSF1bQ0hdPUMzQyhGKShGKUMoPU8pW05IMl0=

>  <s_glide_docking_method>  (1) 
confgen

>  <s_i_glide_gridfile>  (1) 
gpcr_drd2_6luq_protein_autoprepared_prepared

>  <s_lp_Force_Field>  (1) 
S-OPLS

>  <s_lp_Variant>  (1) 
DiffSBDD_38_num_sample_50-3

>  <s_m_source_file>  (1) 
generated__ligand_DiffSBDD_2026-05-06_prepared.sdf

>  <GenAI_Model>  (1) 
DiffSBDD

>  <Protein>  (1) 
generic_title2

$$$$
DiffSBDD_33_num_sample_50
     RDKit          3D

  0  0  0  0  0  0  0  0  0  0999 V3000
M  V30 BEGIN CTAB
M  V30 COUNTS 69 72 0 0 1
M  V30 BEGIN ATOM
M  V30 1 O 5.983546 -0.401205 -19.662882 0
M  V30 2 C 5.120616 -0.920052 -16.248259 0
M  V30 3 O 8.259111 0.876837 -18.747705 0
M  V30 4 C 7.485727 0.982680 -16.442039 0
M  V30 5 C 7.948794 4.794930 -10.054523 0
M  V30 6 C 6.622644 0.612940 -12.767329 0
M  V30 7 C 6.369707 5.689178 -14.811394 0
M  V30 8 C 7.870502 0.180868 -20.992131 0
M  V30 9 N 5.433751 0.169186 -15.389513 0
M  V30 10 C 7.578049 4.732432 -14.876796 0
M  V30 11 C 6.179850 5.321848 -12.318110 0
M  V30 12 C 6.993096 1.380038 -14.029006 0
M  V30 13 N 5.034873 -0.472654 -17.590518 0
M  V30 14 C 6.242496 6.382339 -13.438205 0 CFG=1
M  V30 15 N 9.434840 7.302737 -8.756590 0 CHG=1
M  V30 16 C 7.431288 4.434581 -12.368149 0
M  V30 17 C 7.905806 1.362529 -20.034900 0 CFG=2
M  V30 18 C 7.254644 0.552668 -17.853398 0
M  V30 19 C 9.344139 7.327875 -7.277439 0
M  V30 20 C 10.058303 8.524623 -9.297187 0
M  V30 21 N 8.243204 4.292584 -11.388320 0
M  V30 22 C 7.640044 3.728100 -13.704274 0 CFG=1
M  V30 23 F 8.779179 2.260261 -20.489443 0
M  V30 24 C 7.351729 7.428344 -13.195241 0
M  V30 25 C 6.116403 -0.079095 -18.328649 0
M  V30 26 O 6.612215 2.747900 -13.869476 0
M  V30 27 C 7.109986 -0.954460 -20.326730 0
M  V30 28 C 10.051943 6.076210 -9.303604 0
M  V30 29 C 9.201717 4.803014 -9.157178 0
M  V30 30 C 8.069489 0.812988 -13.123305 0
M  V30 31 C 6.645556 0.828961 -15.374558 0
M  V30 32 F 8.632567 1.643547 -16.207767 0
M  V30 33 H 4.160574 -1.342161 -15.953604 0
M  V30 34 H 5.865204 -1.710901 -16.158396 0
M  V30 35 H 7.547162 5.795675 -10.063822 0
M  V30 36 H 7.182129 4.169248 -9.595915 0
M  V30 37 H 6.232281 1.179500 -11.924636 0
M  V30 38 H 6.236249 -0.400992 -12.858598 0
M  V30 39 H 5.459930 5.120461 -15.002978 0
M  V30 40 H 6.434562 6.430898 -15.608106 0
M  V30 41 H 7.386047 0.478474 -21.922257 0
M  V30 42 H 8.878537 -0.150634 -21.243400 0
M  V30 43 H 4.917148 0.164899 -14.521348 0
M  V30 44 H 8.494450 5.323727 -14.882677 0
M  V30 45 H 7.570323 4.191299 -15.823292 0
M  V30 46 H 5.314130 4.679076 -12.479782 0
M  V30 47 H 5.296422 6.924247 -13.434017 0
M  V30 48 H 6.949349 1.888663 -20.010423 0
M  V30 49 H 4.269078 -0.877787 -18.110275 0
M  V30 50 H 10.329503 7.248334 -6.816873 0
M  V30 51 H 8.882278 8.256654 -6.939519 0
M  V30 52 H 8.720963 6.516584 -6.901765 0
M  V30 53 H 11.060403 8.681022 -8.895839 0
M  V30 54 H 10.116083 8.495930 -10.385505 0
M  V30 55 H 9.430875 9.369302 -9.035365 0
M  V30 56 H 8.634085 3.283162 -13.724581 0
M  V30 57 H 8.338626 6.975138 -13.106526 0
M  V30 58 H 7.407346 8.149770 -14.010876 0
M  V30 59 H 7.166308 7.981725 -12.273374 0
M  V30 60 H 6.768359 -1.666276 -21.077901 0
M  V30 61 H 7.743242 -1.515554 -19.636701 0
M  V30 62 H 11.011641 5.950618 -8.801521 0
M  V30 63 H 10.235257 6.215915 -10.369150 0
M  V30 64 H 8.906844 4.661510 -8.118285 0
M  V30 65 H 9.834770 3.945217 -9.394160 0
M  V30 66 H 8.629052 -0.038983 -13.501735 0
M  V30 67 H 8.634774 1.492697 -12.494664 0
M  V30 68 H 8.464948 7.351533 -9.091661 0
M  V30 69 H 5.990492 5.804212 -11.363862 0
M  V30 END ATOM
M  V30 BEGIN BOND
M  V30 1 1 9 2
M  V30 2 1 10 7
M  V30 3 1 12 6
M  V30 4 1 13 2
M  V30 5 1 14 7
M  V30 6 1 14 11
M  V30 7 1 16 11
M  V30 8 1 17 3
M  V30 9 1 17 8
M  V30 10 1 18 3
M  V30 11 1 18 4
M  V30 12 1 19 15
M  V30 13 1 20 15
M  V30 14 1 21 5
M  V30 15 2 21 16
M  V30 16 1 22 10
M  V30 17 1 22 16
M  V30 18 1 23 17
M  V30 19 1 24 14
M  V30 20 1 25 1
M  V30 21 1 25 13
M  V30 22 2 25 18
M  V30 23 1 26 12
M  V30 24 1 26 22
M  V30 25 1 27 1
M  V30 26 1 27 8
M  V30 27 1 28 15
M  V30 28 1 29 5
M  V30 29 1 29 28
M  V30 30 1 30 6
M  V30 31 1 30 12
M  V30 32 2 31 4
M  V30 33 1 31 9
M  V30 34 1 31 12
M  V30 35 1 32 4
M  V30 36 1 33 2
M  V30 37 1 34 2
M  V30 38 1 35 5
M  V30 39 1 36 5
M  V30 40 1 37 6
M  V30 41 1 38 6
M  V30 42 1 39 7
M  V30 43 1 40 7
M  V30 44 1 41 8
M  V30 45 1 42 8
M  V30 46 1 43 9
M  V30 47 1 44 10
M  V30 48 1 45 10
M  V30 49 1 46 11
M  V30 50 1 14 47 CFG=3
M  V30 51 1 17 48 CFG=1
M  V30 52 1 49 13
M  V30 53 1 50 19
M  V30 54 1 51 19
M  V30 55 1 52 19
M  V30 56 1 53 20
M  V30 57 1 54 20
M  V30 58 1 55 20
M  V30 59 1 22 56 CFG=1
M  V30 60 1 57 24
M  V30 61 1 58 24
M  V30 62 1 59 24
M  V30 63 1 60 27
M  V30 64 1 61 27
M  V30 65 1 62 28
M  V30 66 1 63 28
M  V30 67 1 64 29
M  V30 68 1 65 29
M  V30 69 1 66 30
M  V30 70 1 67 30
M  V30 71 1 68 15
M  V30 72 1 69 11
M  V30 END BOND
M  V30 END CTAB
M  END
>  <i_epik_Tot_Q>  (1) 
1

>  <i_epik_Tot_abs_Q>  (1) 
1

>  <i_i_glide_confnum>  (1) 
113

>  <i_i_glide_lignum>  (1) 
84

>  <i_i_glide_posenum>  (1) 
327

>  <i_i_glide_rotatable_bonds>  (1) 
7

>  <i_lp_mmshare_version>  (1) 
72125

>  <i_m_source_file_index>  (1) 
34

>  <i_f3d_flags>  (1) 
0

>  <num_sample>  (1) 
50

>  <b_lp_Chiralities_Consistent>  (1) 
1

>  <r_epik_Charging_Adjusted_Penalty>  (1) 
0.41789118993368612

>  <r_epik_Ionization_Penalty>  (1) 
0.0076682513750627552

>  <r_epik_Ionization_Penalty_Charging>  (1) 
0.0072113509810821487

>  <r_epik_Ionization_Penalty_Neutral>  (1) 
0.0004569003939806066

>  <r_epik_State_Penalty>  (1) 
0.41067983895260396

>  <r_glide_ring_energy>  (1) 
1.3422813252046473

>  <r_i_docking_score>  (1) 
-4.742927707087067

>  <r_i_glide_ecoul>  (1) 
-5.7859075428720885

>  <r_i_glide_eff_state_penalty>  (1) 
0.41067983895260396

>  <r_i_glide_einternal>  (1) 
4.8439376095405837

>  <r_i_glide_emodel>  (1) 
-51.66594276332625

>  <r_i_glide_emodel_strain>  (1) 
0.64348330589317015

>  <r_i_glide_energy>  (1) 
-39.395505977895048

>  <r_i_glide_erotb>  (1) 
0.58078846603177925

>  <r_i_glide_esite>  (1) 
-0.10949623584202157

>  <r_i_glide_evdw>  (1) 
-33.60959843502296

>  <r_i_glide_gscore>  (1) 
-5.1536075460396713

>  <r_i_glide_gscore_strain>  (1) 
0

>  <r_i_glide_hbond>  (1) 
-0.20000000000000001

>  <r_i_glide_ligand_efficiency>  (1) 
-0.14821649084647084

>  <r_i_glide_ligand_efficiency_ln>  (1) 
-1.0620708009431454

>  <r_i_glide_ligand_efficiency_sa>  (1) 
-0.4705580269774457

>  <r_i_glide_lipo>  (1) 
-1.7013081851135194

>  <r_i_glide_metal>  (1) 
-0

>  <r_i_glide_rewards>  (1) 
-1.1752255379339478

>  <r_lp_Energy>  (1) 
52.499913999999997

>  <r_lp_tautomer_probability>  (1) 
0.49999519497573586

>  <s_epik_Chemistry_Notes>  (1) 
This compound has an imine and may undergo hydrolysis. This compound contains an acetal/aminal-like group ( X-CH(R)-Y where X, Y are N, S, or O) that may be acid/base labile, releasing an aldehyde.

>  <s_epik_cmdline>  (1) 
J2VwaWtfcHl0aG9uJywgJy1waHQnLCAnMS4wJywgJy1waCcsICc3LjQnLCAnLXRuJywgJzgnLCAnLW1hJywgJzUwMCcsICctaW1hZScsICc8aW5maWxlLm1hZT4nLCAnLW9tYWUnLCAnPG91dGZpbGUubWFlPic=

>  <s_epik_input>  (1) 
TzFbQ0BASF0oRilbQ0gyXVtDSDJdT0MoW0NAQEhdMTIpPU5bQ0gyXVtOSF1DKD1DMkYpQzMoW0NIMl1bQ0gyXTMpT1tDQEBIXShbQ0gyXVtDSDJdW0NAQEhdNFtDSDNdKUMoPVtDSF00KVtOSF1bQ0gyXVtDSDJdW0NIMl1OKFtDSDNdKVtDSDNd

>  <s_glide_docking_method>  (1) 
confgen

>  <s_i_glide_gridfile>  (1) 
gpcr_drd2_6luq_protein_autoprepared_prepared

>  <s_lp_Force_Field>  (1) 
S-OPLS

>  <s_lp_Variant>  (1) 
DiffSBDD_33_num_sample_50-2

>  <s_m_source_file>  (1) 
generated__ligand_DiffSBDD_2026-05-06_prepared.sdf

>  <GenAI_Model>  (1) 
DiffSBDD

>  <Protein>  (1) 
generic_title2

$$$$
DiffSBDD_8_num_sample_50
     RDKit          3D

  0  0  0  0  0  0  0  0  0  0999 V3000
M  V30 BEGIN CTAB
M  V30 COUNTS 64 69 0 0 1
M  V30 BEGIN ATOM
M  V30 1 C 9.157439 6.538638 -10.788259 0 CFG=2
M  V30 2 O 9.034660 0.989656 -16.774046 0
M  V30 3 C 10.179437 7.302281 -8.463043 0 CFG=1
M  V30 4 N 11.985473 8.731597 -7.993889 0
M  V30 5 F 6.634468 3.095029 -18.402944 0
M  V30 6 C 7.096108 1.920420 -17.974021 0 CFG=2
M  V30 7 C 7.432565 1.051848 -19.187618 0
M  V30 8 C 7.302162 1.918115 -14.681015 0
M  V30 9 C 7.420091 4.715230 -14.293288 0
M  V30 10 C 7.617587 1.569052 -20.599594 0
M  V30 11 O 4.923605 -2.015687 -18.216843 0
M  V30 12 C 12.023397 8.780823 -9.444359 0 CFG=2
M  V30 13 O 4.339775 -0.630653 -16.291670 0 CHG=-1
M  V30 14 O 10.953297 7.758265 -6.239924 0
M  V30 15 O 6.093923 1.144565 -17.341277 0
M  V30 16 N 7.831401 2.812074 -15.725420 0
M  V30 17 C 7.199697 6.228237 -14.174184 0
M  V30 18 N 5.049839 -0.897977 -17.490827 0 CHG=1
M  V30 19 N 6.679753 -0.169855 -19.113537 0
M  V30 20 C 5.971606 -0.008477 -18.050414 0
M  V30 21 C 7.870591 4.183733 -15.610593 0
M  V30 22 O 8.244531 4.897879 -16.542073 0
M  V30 23 C 11.079790 7.946462 -7.447604 0
M  V30 24 C 9.013627 5.405338 -9.763207 0
M  V30 25 C 11.149949 7.505155 -9.679155 0 CFG=2
M  V30 26 O 13.330191 8.569238 -9.928377 0
M  V30 27 C 8.774915 0.915751 -19.881526 0
M  V30 28 C 8.920943 6.586634 -12.293168 0 CFG=2
M  V30 29 C 9.948918 7.762675 -12.237819 0
M  V30 30 C 8.266000 2.159143 -16.983622 0 CFG=1
M  V30 31 C 7.489343 2.412522 -13.279216 0
M  V30 32 C 9.681207 5.828201 -8.401088 0
M  V30 33 C 7.492219 6.831160 -12.785660 0
M  V30 34 C 10.554743 7.051170 -11.023426 0 CFG=2
M  V30 35 C 7.248061 3.879270 -13.242946 0
M  V30 36 H 8.634834 7.397370 -10.397315 0
M  V30 37 H 8.664995 0.283556 -17.283547 0
M  V30 38 H 9.325114 7.977986 -8.511851 0
M  V30 39 H 12.657299 9.241106 -7.441816 0
M  V30 40 H 7.714709 0.912633 -14.738045 0
M  V30 41 H 6.235738 1.804129 -14.865035 0
M  V30 42 H 7.152185 1.017960 -21.415002 0
M  V30 43 H 7.672524 2.647460 -20.742165 0
M  V30 44 H 11.567920 9.692379 -9.829878 0
M  V30 45 H 6.169345 6.446222 -14.457820 0
M  V30 46 H 7.827152 6.751861 -14.895717 0
M  V30 47 H 9.466586 4.488850 -10.141133 0
M  V30 48 H 7.958335 5.179608 -9.600417 0
M  V30 49 H 11.867847 6.710056 -9.491676 0
M  V30 50 H 13.786308 9.415203 -9.891676 0
M  V30 51 H 9.588525 1.567960 -19.565171 0
M  V30 52 H 9.080626 -0.077185 -20.209006 0
M  V30 53 H 9.374643 5.706584 -12.752182 0
M  V30 54 H 10.635207 7.770021 -13.083111 0
M  V30 55 H 9.495330 8.734120 -12.034120 0
M  V30 56 H 8.981811 2.802566 -17.497008 0
M  V30 57 H 8.501337 2.222670 -12.920608 0
M  V30 58 H 6.801044 1.903475 -12.605418 0
M  V30 59 H 10.511890 5.160669 -8.170169 0
M  V30 60 H 8.963356 5.715848 -7.587654 0
M  V30 61 H 6.773964 6.449948 -12.059308 0
M  V30 62 H 7.296214 7.902587 -12.818728 0
M  V30 63 H 11.174467 6.295274 -11.491719 0
M  V30 64 H 6.934637 4.279978 -12.292175 0
M  V30 END ATOM
M  V30 BEGIN BOND
M  V30 1 1 6 5 CFG=3
M  V30 2 1 7 6
M  V30 3 1 10 7
M  V30 4 1 12 4
M  V30 5 1 15 6
M  V30 6 1 16 8
M  V30 7 1 17 9
M  V30 8 2 18 11
M  V30 9 1 18 13
M  V30 10 1 19 7
M  V30 11 1 20 15
M  V30 12 1 20 18
M  V30 13 2 20 19
M  V30 14 1 21 9
M  V30 15 1 21 16
M  V30 16 2 22 21
M  V30 17 1 23 3
M  V30 18 1 23 4
M  V30 19 2 23 14
M  V30 20 1 24 1
M  V30 21 1 25 3
M  V30 22 1 25 12
M  V30 23 1 26 12
M  V30 24 1 27 7
M  V30 25 1 27 10
M  V30 26 1 28 1
M  V30 27 1 29 28
M  V30 28 1 30 2
M  V30 29 1 30 6
M  V30 30 1 30 16
M  V30 31 1 31 8
M  V30 32 1 32 3
M  V30 33 1 32 24
M  V30 34 1 33 17
M  V30 35 1 33 28
M  V30 36 1 34 1
M  V30 37 1 34 25
M  V30 38 1 34 29
M  V30 39 2 35 9
M  V30 40 1 35 31
M  V30 41 1 1 36 CFG=1
M  V30 42 1 37 2
M  V30 43 1 3 38 CFG=3
M  V30 44 1 39 4
M  V30 45 1 40 8
M  V30 46 1 41 8
M  V30 47 1 42 10
M  V30 48 1 43 10
M  V30 49 1 12 44 CFG=3
M  V30 50 1 45 17
M  V30 51 1 46 17
M  V30 52 1 47 24
M  V30 53 1 48 24
M  V30 54 1 25 49 CFG=1
M  V30 55 1 50 26
M  V30 56 1 51 27
M  V30 57 1 52 27
M  V30 58 1 28 53 CFG=3
M  V30 59 1 54 29
M  V30 60 1 55 29
M  V30 61 1 30 56 CFG=3
M  V30 62 1 57 31
M  V30 63 1 58 31
M  V30 64 1 59 32
M  V30 65 1 60 32
M  V30 66 1 61 33
M  V30 67 1 62 33
M  V30 68 1 34 63 CFG=3
M  V30 69 1 64 35
M  V30 END BOND
M  V30 END CTAB
M  END
>  <i_epik_Tot_Q>  (1) 
0

>  <i_epik_Tot_abs_Q>  (1) 
2

>  <i_i_glide_confnum>  (1) 
267

>  <i_i_glide_lignum>  (1) 
19

>  <i_i_glide_posenum>  (1) 
352

>  <i_i_glide_rotatable_bonds>  (1) 
8

>  <i_lp_mmshare_version>  (1) 
72125

>  <i_m_source_file_index>  (1) 
9

>  <i_f3d_flags>  (1) 
0

>  <num_sample>  (1) 
50

>  <b_lp_Chiralities_Consistent>  (1) 
1

>  <r_epik_Charging_Adjusted_Penalty>  (1) 
0.96578762746863478

>  <r_epik_Ionization_Penalty>  (1) 
0.96579538567658219

>  <r_epik_Ionization_Penalty_Charging>  (1) 
0

>  <r_epik_Ionization_Penalty_Neutral>  (1) 
0.96579538567658219

>  <r_epik_State_Penalty>  (1) 
0.96578762746863478

>  <r_glide_ring_energy>  (1) 
0.016691843605627837

>  <r_i_docking_score>  (1) 
-4.7372703799428413

>  <r_i_glide_ecoul>  (1) 
-7.6399869521563719

>  <r_i_glide_eff_state_penalty>  (1) 
0.96578762746863478

>  <r_i_glide_einternal>  (1) 
22.869323466482921

>  <r_i_glide_emodel>  (1) 
-36.661435828503642

>  <r_i_glide_emodel_strain>  (1) 
0.2117440934260344

>  <r_i_glide_energy>  (1) 
-40.635100374024972

>  <r_i_glide_erotb>  (1) 
0.41978570389785574

>  <r_i_glide_esite>  (1) 
0

>  <r_i_glide_evdw>  (1) 
-32.995113421868602

>  <r_i_glide_gscore>  (1) 
-5.7030580074114763

>  <r_i_glide_gscore_strain>  (1) 
0

>  <r_i_glide_hbond>  (1) 
-0.32000000000000001

>  <r_i_glide_ligand_efficiency>  (1) 
-0.13535058228408117

>  <r_i_glide_ligand_efficiency_ln>  (1) 
-1.0399359864488482

>  <r_i_glide_ligand_efficiency_sa>  (1) 
-0.44274072977386658

>  <r_i_glide_lipo>  (1) 
-0.89653439879078178

>  <r_i_glide_metal>  (1) 
-0

>  <r_i_glide_rewards>  (1) 
-2.1105555986016644

>  <r_lp_Energy>  (1) 
65.271344999999997

>  <s_epik_Chemistry_Notes>  (1) 
This compound has an imine and may undergo hydrolysis. This compound contains an acetal/aminal-like group ( X-CH(R)-Y where X, Y are N, S, or O) that may be acid/base labile, releasing an aldehyde.

>  <s_epik_cmdline>  (1) 
J2VwaWtfcHl0aG9uJywgJy1waHQnLCAnMS4wJywgJy1waCcsICc3LjQnLCAnLXRuJywgJzgnLCAnLW1hJywgJzUwMCcsICctaW1hZScsICc8aW5maWxlLm1hZT4nLCAnLW9tYWUnLCAnPG91dGZpbGUubWFlPic=

>  <s_epik_input>  (1) 
W09IXVtDQEBIXTFbTkhdQyg9TylbQ0BIXShbQ0gyXVtDSDJdMilbQ0BIXTFbQ0BASF0oW0NASF0yMylbQ0gyXVtDQEBIXTNbQ0gyXVtDSDJdQzQ9W0NIXVtDSDJdW0NIMl1OKEM0PU8pW0NAQEhdKFtPSF0pW0NAQF0oRikoQzU2W0NIMl1bQ0gyXTYpT0MoPU41KVtOK10oPU8pW08tXQ==

>  <s_glide_docking_method>  (1) 
confgen

>  <s_i_glide_gridfile>  (1) 
gpcr_drd2_6luq_protein_autoprepared_prepared

>  <s_lp_Force_Field>  (1) 
S-OPLS

>  <s_lp_Variant>  (1) 
DiffSBDD_8_num_sample_50-2

>  <s_m_source_file>  (1) 
generated__ligand_DiffSBDD_2026-05-06_prepared.sdf

>  <GenAI_Model>  (1) 
DiffSBDD

>  <Protein>  (1) 
generic_title2

$$$$
DiffSBDD_31_num_sample_50
     RDKit          3D

  0  0  0  0  0  0  0  0  0  0999 V3000
M  V30 BEGIN CTAB
M  V30 COUNTS 71 76 0 0 1
M  V30 BEGIN ATOM
M  V30 1 C 6.066469 5.940990 -21.089730 0
M  V30 2 C 7.691023 5.042907 -18.952056 0
M  V30 3 C 12.530930 7.238952 -13.052246 0
M  V30 4 C 8.899319 4.385506 -11.077569 0
M  V30 5 C 10.037002 6.424194 -11.846987 0
M  V30 6 C 7.991181 5.948691 -14.643429 0
M  V30 7 C 10.925011 7.468302 -9.686793 0 CFG=2
M  V30 8 C 10.006529 5.032162 -17.671975 0
M  V30 9 F 5.289687 6.368985 -22.113411 0
M  V30 10 C 5.744298 4.752873 -20.413592 0
M  V30 11 C 8.565656 4.550714 -17.814201 0
M  V30 12 C 7.437719 6.119285 -12.117745 0
M  V30 13 C 7.503873 2.996661 -14.400223 0
M  V30 14 C 8.371594 3.355151 -15.634625 0
M  V30 15 C 7.310026 5.546857 -15.972051 0
M  V30 16 C 6.555004 4.301135 -19.350760 0
M  V30 17 F 10.588165 6.450903 -8.894736 0
M  V30 18 C 7.192358 6.686747 -20.702666 0
M  V30 19 C 8.003400 6.243596 -19.638769 0
M  V30 20 C 12.222503 7.523614 -11.768616 0
M  V30 21 N 7.773663 4.294519 -16.582587 0
M  V30 22 C 8.947246 3.650240 -12.438918 0
M  V30 23 C 10.123107 8.731512 -9.332696 0
M  V30 24 C 8.729101 5.893376 -11.258743 0 CFG=1
M  V30 25 O 9.034857 8.968919 -10.164785 0
M  V30 26 C 9.730158 3.647927 -18.206624 0
M  V30 27 C 6.673580 7.430726 -12.077047 0
M  V30 28 C 11.014439 7.105942 -11.156870 0
M  V30 29 C 12.485282 7.853193 -9.545457 0 CFG=2
M  V30 30 O 12.864444 8.570507 -8.393876 0
M  V30 31 C 6.119082 6.211643 -11.369174 0
M  V30 32 C 7.339716 5.296730 -13.409794 0 CFG=2
M  V30 33 N 7.692587 3.867515 -13.202539 0 CFG=1 CHG=1
M  V30 34 C 13.119454 8.356818 -10.890034 0
M  V30 35 H 13.433159 7.595357 -13.487471 0
M  V30 36 H 11.884057 6.649767 -13.678791 0
M  V30 37 H 9.809532 4.184524 -10.502822 0
M  V30 38 H 8.065457 4.031768 -10.475184 0
M  V30 39 H 10.182710 6.203209 -12.884074 0
M  V30 40 H 9.065530 5.780102 -14.672387 0
M  V30 41 H 7.840214 7.024632 -14.548071 0
M  V30 42 H 10.430464 5.734653 -18.386366 0
M  V30 43 H 10.436739 5.102909 -16.675485 0
M  V30 44 H 4.877924 4.180710 -20.709933 0
M  V30 45 H 7.728724 1.973080 -14.090838 0
M  V30 46 H 6.450877 2.992293 -14.673719 0
M  V30 47 H 9.330856 3.772234 -15.346187 0
M  V30 48 H 8.560820 2.419767 -16.160669 0
M  V30 49 H 7.430125 6.363609 -16.681705 0
M  V30 50 H 6.231392 5.480861 -15.825450 0
M  V30 51 H 6.304738 3.384710 -18.838492 0
M  V30 52 H 7.438404 7.600467 -21.223742 0
M  V30 53 H 8.864688 6.824155 -19.350378 0
M  V30 54 H 9.803313 3.971326 -13.032037 0
M  V30 55 H 9.085704 2.583434 -12.265644 0
M  V30 56 H 10.747375 9.611451 -9.466184 0
M  V30 57 H 9.813731 8.721858 -8.289401 0
M  V30 58 H 8.571021 6.343857 -10.280922 0
M  V30 59 H 8.258295 8.464013 -9.891198 0
M  V30 60 H 10.066905 2.823816 -17.584032 0
M  V30 61 H 9.886995 3.487181 -19.272672 0
M  V30 62 H 7.080054 8.241311 -11.491010 0
M  V30 63 H 6.138518 7.760380 -12.965809 0
M  V30 64 H 13.069932 6.969149 -9.491546 0
M  V30 65 H 13.637621 9.080494 -8.598861 0
M  V30 66 H 5.229063 5.751095 -11.797203 0
M  V30 67 H 6.161161 6.161526 -10.291846 0
M  V30 68 H 6.275776 5.264121 -13.643877 0
M  V30 69 H 14.197794 8.182872 -10.963060 0
M  V30 70 H 13.002926 9.426273 -11.033975 0
M  V30 71 H 6.989296 3.546907 -12.548702 0
M  V30 END ATOM
M  V30 BEGIN BOND
M  V30 1 1 9 1
M  V30 2 1 10 1
M  V30 3 1 11 2
M  V30 4 1 11 8
M  V30 5 1 14 13
M  V30 6 1 15 6
M  V30 7 1 16 2
M  V30 8 2 16 10
M  V30 9 1 7 17 CFG=1
M  V30 10 2 18 1
M  V30 11 2 19 2
M  V30 12 1 19 18
M  V30 13 2 20 3
M  V30 14 1 21 11
M  V30 15 1 21 14
M  V30 16 1 21 15
M  V30 17 1 22 4
M  V30 18 1 23 7
M  V30 19 1 24 4
M  V30 20 1 24 5
M  V30 21 1 24 12
M  V30 22 1 25 23
M  V30 23 1 26 8
M  V30 24 1 26 11
M  V30 25 1 27 12
M  V30 26 2 28 5
M  V30 27 1 28 7
M  V30 28 1 28 20
M  V30 29 1 29 7
M  V30 30 1 30 29
M  V30 31 1 31 12
M  V30 32 1 31 27
M  V30 33 1 32 6
M  V30 34 1 32 12
M  V30 35 1 33 13
M  V30 36 1 33 22
M  V30 37 1 33 32
M  V30 38 1 34 20
M  V30 39 1 34 29
M  V30 40 1 35 3
M  V30 41 1 36 3
M  V30 42 1 37 4
M  V30 43 1 38 4
M  V30 44 1 39 5
M  V30 45 1 40 6
M  V30 46 1 41 6
M  V30 47 1 42 8
M  V30 48 1 43 8
M  V30 49 1 44 10
M  V30 50 1 45 13
M  V30 51 1 46 13
M  V30 52 1 47 14
M  V30 53 1 48 14
M  V30 54 1 49 15
M  V30 55 1 50 15
M  V30 56 1 51 16
M  V30 57 1 52 18
M  V30 58 1 53 19
M  V30 59 1 54 22
M  V30 60 1 55 22
M  V30 61 1 56 23
M  V30 62 1 57 23
M  V30 63 1 24 58 CFG=1
M  V30 64 1 59 25
M  V30 65 1 60 26
M  V30 66 1 61 26
M  V30 67 1 62 27
M  V30 68 1 63 27
M  V30 69 1 29 64 CFG=1
M  V30 70 1 65 30
M  V30 71 1 66 31
M  V30 72 1 67 31
M  V30 73 1 32 68 CFG=3
M  V30 74 1 69 34
M  V30 75 1 70 34
M  V30 76 1 33 71 CFG=1
M  V30 END BOND
M  V30 END CTAB
M  END
>  <i_epik_Tot_Q>  (1) 
1

>  <i_epik_Tot_abs_Q>  (1) 
1

>  <i_i_glide_confnum>  (1) 
55

>  <i_i_glide_lignum>  (1) 
78

>  <i_i_glide_posenum>  (1) 
162

>  <i_i_glide_rotatable_bonds>  (1) 
6

>  <i_lp_mmshare_version>  (1) 
72125

>  <i_m_source_file_index>  (1) 
32

>  <i_f3d_flags>  (1) 
0

>  <num_sample>  (1) 
50

>  <b_lp_Chiralities_Consistent>  (1) 
1

>  <r_epik_Charging_Adjusted_Penalty>  (1) 
0.0036996964664751512

>  <r_epik_Ionization_Penalty>  (1) 
0.0040620325304727405

>  <r_epik_Ionization_Penalty_Charging>  (1) 
0.0036996964664751512

>  <r_epik_Ionization_Penalty_Neutral>  (1) 
0.00036233606399758918

>  <r_epik_State_Penalty>  (1) 
-0

>  <r_glide_ring_energy>  (1) 
1.268751269706806

>  <r_i_docking_score>  (1) 
-4.7239922680688684

>  <r_i_glide_ecoul>  (1) 
-12.468969373057437

>  <r_i_glide_eff_state_penalty>  (1) 
-0

>  <r_i_glide_einternal>  (1) 
5.4231557292190775

>  <r_i_glide_emodel>  (1) 
-18.452879098315826

>  <r_i_glide_emodel_strain>  (1) 
3.4583368905664145

>  <r_i_glide_energy>  (1) 
-15.439441822392634

>  <r_i_glide_erotb>  (1) 
0.36352394052346937

>  <r_i_glide_esite>  (1) 
-0.023859844589133723

>  <r_i_glide_evdw>  (1) 
-2.9704724493351971

>  <r_i_glide_gscore>  (1) 
-4.7239922680688684

>  <r_i_glide_gscore_strain>  (1) 
0

>  <r_i_glide_hbond>  (1) 
-0.22446482353858507

>  <r_i_glide_ligand_efficiency>  (1) 
-0.13894094906084908

>  <r_i_glide_ligand_efficiency_ln>  (1) 
-1.04366239551134

>  <r_i_glide_ligand_efficiency_sa>  (1) 
-0.45011473825822035

>  <r_i_glide_lipo>  (1) 
-1.6828629034827534

>  <r_i_glide_metal>  (1) 
-0

>  <r_i_glide_rewards>  (1) 
-1.1374596085564908

>  <r_lp_Energy>  (1) 
29.781917

>  <r_lp_tautomer_probability>  (1) 
1

>  <s_epik_cmdline>  (1) 
J2VwaWtfcHl0aG9uJywgJy1waHQnLCAnMS4wJywgJy1waCcsICc3LjQnLCAnLXRuJywgJzgnLCAnLW1hJywgJzUwMCcsICctaW1hZScsICc8aW5maWxlLm1hZT4nLCAnLW9tYWUnLCAnPG91dGZpbGUubWFlPic=

>  <s_epik_input>  (1) 
RmMxW2NIXVtjSF1jKFtjSF1bY0hdMSlDMihbQ0gyXVtDSDJdMilOKFtDSDJdW0NIMl0zKVtDSDJdW0NIMl1OKFtDQEhdM0M0NVtDSDJdW0NIMl01KVtDSDJdW0NIMl1bQ0BIXTQvW0NIXT1DKFxbQ0BdNihGKVtDSDJdW09IXSlDKD1bQ0gyXSlbQ0gyXVtDQEhdNltPSF0=

>  <s_glide_docking_method>  (1) 
confgen

>  <s_i_glide_gridfile>  (1) 
gpcr_drd2_6luq_protein_autoprepared_prepared

>  <s_lp_Force_Field>  (1) 
S-OPLS

>  <s_lp_Variant>  (1) 
DiffSBDD_31_num_sample_50-1

>  <s_m_source_file>  (1) 
generated__ligand_DiffSBDD_2026-05-06_prepared.sdf

>  <GenAI_Model>  (1) 
DiffSBDD

>  <Protein>  (1) 
generic_title2

$$$$
DiffSBDD_29_num_sample_50
     RDKit          3D

  0  0  0  0  0  0  0  0  0  0999 V3000
M  V30 BEGIN CTAB
M  V30 COUNTS 64 67 0 0 1
M  V30 BEGIN ATOM
M  V30 1 C 7.490744 4.901475 -15.098477 0
M  V30 2 O 10.618486 8.672066 -9.036281 0
M  V30 3 C 11.835021 8.628478 -5.093431 0
M  V30 4 C 8.252513 4.099632 -14.085184 0
M  V30 5 O 9.034741 7.204155 -7.080635 0
M  V30 6 N 8.518160 7.031028 -11.596810 0 CFG=2 CHG=1
M  V30 7 C 10.514594 8.496274 -5.840009 0
M  V30 8 C 12.964094 9.096992 -7.400285 0
M  V30 9 C 13.210201 7.769478 -9.491700 0
M  V30 10 C 6.879198 5.659206 -17.285285 0
M  V30 11 C 8.926518 5.816874 -12.337318 0
M  V30 12 C 7.475637 7.820155 -12.300332 0
M  V30 13 C 8.589331 5.903242 -6.778029 0
M  V30 14 C 11.118911 7.592496 -8.233609 0 CFG=1
M  V30 15 C 6.605899 5.766241 -14.577340 0
M  V30 16 C 6.222456 6.967977 -12.518858 0
M  V30 17 C 7.745966 4.920207 -12.776691 0 CFG=1
M  V30 18 C 12.619005 7.778195 -8.073409 0 CFG=2
M  V30 19 C 7.665952 4.814530 -16.482761 0
M  V30 20 C 9.452793 8.352094 -9.767259 0
M  V30 21 N 5.826987 6.619450 -15.286071 0
M  V30 22 C 10.424880 7.388082 -6.878867 0 CFG=2
M  V30 23 C 12.879438 9.400558 -5.894429 0
M  V30 24 N 6.564385 5.725745 -13.208849 0
M  V30 25 C 5.970473 6.542197 -16.641689 0
M  V30 26 N 9.398509 3.160983 -17.533044 0
M  V30 27 C 9.682934 7.846909 -11.186336 0
M  V30 28 C 8.629023 3.891952 -17.071581 0
M  V30 29 C 9.014601 4.929414 -7.891732 0
M  V30 30 H 12.194877 7.651971 -4.767148 0
M  V30 31 H 11.656163 9.177212 -4.168171 0
M  V30 32 H 7.929736 3.058725 -14.077884 0
M  V30 33 H 9.330479 4.169275 -14.237351 0
M  V30 34 H 9.813256 8.170832 -5.091686 0
M  V30 35 H 10.182993 9.450034 -6.242298 0
M  V30 36 H 13.968592 9.369311 -7.722018 0
M  V30 37 H 12.234662 9.769291 -7.838838 0
M  V30 38 H 13.141569 8.751001 -9.961240 0
M  V30 39 H 14.260047 7.482272 -9.490239 0
M  V30 40 H 12.634753 7.097377 -10.133484 0
M  V30 41 H 6.964948 5.640340 -18.361837 0
M  V30 42 H 9.624674 5.223854 -11.744707 0
M  V30 43 H 9.478991 6.166262 -13.210563 0
M  V30 44 H 7.855743 8.179211 -13.257913 0
M  V30 45 H 7.215026 8.698503 -11.710022 0
M  V30 46 H 8.982934 5.769307 -5.775981 0
M  V30 47 H 7.513966 5.771799 -6.664317 0
M  V30 48 H 10.995552 6.666094 -8.795516 0
M  V30 49 H 5.451437 7.538348 -13.038799 0
M  V30 50 H 5.788397 6.711804 -11.550503 0
M  V30 51 H 7.461918 4.246930 -11.967573 0
M  V30 52 H 13.028098 6.969331 -7.491668 0
M  V30 53 H 8.750013 9.186472 -9.748700 0
M  V30 54 H 9.032981 7.498201 -9.276485 0
M  V30 55 H 10.878858 6.502673 -6.430878 0
M  V30 56 H 13.863639 9.369310 -5.422392 0
M  V30 57 H 12.621671 10.457712 -5.824600 0
M  V30 58 H 5.350077 7.204308 -17.225252 0
M  V30 59 H 10.583401 7.234211 -11.195544 0
M  V30 60 H 9.834802 8.652347 -11.898510 0
M  V30 61 H 8.629954 3.927196 -7.723496 0
M  V30 62 H 8.605759 5.250734 -8.849582 0
M  V30 63 H 10.093117 4.856339 -7.995635 0
M  V30 64 H 8.067736 6.735279 -10.737261 0
M  V30 END ATOM
M  V30 BEGIN BOND
M  V30 1 1 4 1
M  V30 2 1 7 3
M  V30 3 1 11 6
M  V30 4 1 12 6
M  V30 5 1 13 5
M  V30 6 1 14 2
M  V30 7 1 15 1
M  V30 8 1 16 12
M  V30 9 1 17 4
M  V30 10 1 17 11
M  V30 11 1 18 8
M  V30 12 1 18 9
M  V30 13 1 18 14
M  V30 14 2 19 1
M  V30 15 1 19 10
M  V30 16 1 20 2
M  V30 17 2 21 15
M  V30 18 1 22 5
M  V30 19 1 22 7
M  V30 20 1 22 14
M  V30 21 1 23 3
M  V30 22 1 23 8
M  V30 23 1 24 15
M  V30 24 1 24 16
M  V30 25 1 24 17
M  V30 26 2 25 10
M  V30 27 1 25 21
M  V30 28 1 27 6
M  V30 29 1 27 20
M  V30 30 1 28 19
M  V30 31 3 28 26
M  V30 32 1 29 13
M  V30 33 1 30 3
M  V30 34 1 31 3
M  V30 35 1 32 4
M  V30 36 1 33 4
M  V30 37 1 34 7
M  V30 38 1 35 7
M  V30 39 1 36 8
M  V30 40 1 37 8
M  V30 41 1 38 9
M  V30 42 1 39 9
M  V30 43 1 40 9
M  V30 44 1 41 10
M  V30 45 1 42 11
M  V30 46 1 43 11
M  V30 47 1 44 12
M  V30 48 1 45 12
M  V30 49 1 46 13
M  V30 50 1 47 13
M  V30 51 1 14 48 CFG=3
M  V30 52 1 49 16
M  V30 53 1 50 16
M  V30 54 1 17 51 CFG=1
M  V30 55 1 18 52 CFG=1
M  V30 56 1 53 20
M  V30 57 1 54 20
M  V30 58 1 22 55 CFG=1
M  V30 59 1 56 23
M  V30 60 1 57 23
M  V30 61 1 58 25
M  V30 62 1 59 27
M  V30 63 1 60 27
M  V30 64 1 61 29
M  V30 65 1 62 29
M  V30 66 1 63 29
M  V30 67 1 6 64 CFG=1
M  V30 END BOND
M  V30 END CTAB
M  END
>  <i_epik_Tot_Q>  (1) 
1

>  <i_epik_Tot_abs_Q>  (1) 
1

>  <i_i_glide_confnum>  (1) 
271

>  <i_i_glide_lignum>  (1) 
75

>  <i_i_glide_posenum>  (1) 
109

>  <i_i_glide_rotatable_bonds>  (1) 
6

>  <i_lp_mmshare_version>  (1) 
72125

>  <i_m_source_file_index>  (1) 
30

>  <i_f3d_flags>  (1) 
0

>  <num_sample>  (1) 
50

>  <b_lp_Chiralities_Consistent>  (1) 
1

>  <r_epik_Charging_Adjusted_Penalty>  (1) 
1.0026227849201053

>  <r_epik_Ionization_Penalty>  (1) 
0.50131159217577048

>  <r_epik_Ionization_Penalty_Charging>  (1) 
0.50131139246005263

>  <r_epik_Ionization_Penalty_Neutral>  (1) 
1.9971571790720627e-07

>  <r_epik_State_Penalty>  (1) 
0.50131139246005263

>  <r_glide_ring_energy>  (1) 
0.31448414249904627

>  <r_i_docking_score>  (1) 
-4.7201434088113379

>  <r_i_glide_ecoul>  (1) 
-4.76679520148567

>  <r_i_glide_eff_state_penalty>  (1) 
0.50131139246005263

>  <r_i_glide_einternal>  (1) 
12.809219492132433

>  <r_i_glide_emodel>  (1) 
-30.926961764672878

>  <r_i_glide_emodel_strain>  (1) 
1.0496137146049449

>  <r_i_glide_energy>  (1) 
-29.051831302340879

>  <r_i_glide_erotb>  (1) 
0.6137117962777916

>  <r_i_glide_esite>  (1) 
-0.097336804288527923

>  <r_i_glide_evdw>  (1) 
-24.285036100855208

>  <r_i_glide_gscore>  (1) 
-5.2214548012713902

>  <r_i_glide_gscore_strain>  (1) 
0

>  <r_i_glide_hbond>  (1) 
-0.10406408914487959

>  <r_i_glide_ligand_efficiency>  (1) 
-0.16276356582108062

>  <r_i_glide_ligand_efficiency_ln>  (1) 
-1.0807931481083011

>  <r_i_glide_ligand_efficiency_sa>  (1) 
-0.50006124188073198

>  <r_i_glide_lipo>  (1) 
-2.2600808818358202

>  <r_i_glide_metal>  (1) 
-0

>  <r_i_glide_rewards>  (1) 
-1.4444137370143433

>  <r_lp_Energy>  (1) 
45.537855

>  <s_epik_cmdline>  (1) 
J2VwaWtfcHl0aG9uJywgJy1waHQnLCAnMS4wJywgJy1waCcsICc3LjQnLCAnLXRuJywgJzgnLCAnLW1hJywgJzUwMCcsICctaW1hZScsICc8aW5maWxlLm1hZT4nLCAnLW9tYWUnLCAnPG91dGZpbGUubWFlPic=

>  <s_epik_input>  (1) 
TiNDYzFbY0hdW2NIXW5jKGMxMilOM1tDQEhdKFtDSDJdMilbQ0gyXU4oW0NIMl1bQ0gyXTMpW0NIMl1bQ0gyXU9bQ0BIXTRbQ0BASF0oW0NIM10pW0NIMl1bQ0gyXVtDSDJdW0NIMl1bQ0BIXTRPW0NIMl1bQ0gzXQ==

>  <s_glide_docking_method>  (1) 
confgen

>  <s_i_glide_gridfile>  (1) 
gpcr_drd2_6luq_protein_autoprepared_prepared

>  <s_lp_Force_Field>  (1) 
S-OPLS

>  <s_lp_Variant>  (1) 
DiffSBDD_29_num_sample_50-5

>  <s_m_source_file>  (1) 
generated__ligand_DiffSBDD_2026-05-06_prepared.sdf

>  <GenAI_Model>  (1) 
DiffSBDD

>  <Protein>  (1) 
generic_title2

$$$$
DiffSBDD_21_num_sample_50
     RDKit          3D

  0  0  0  0  0  0  0  0  0  0999 V3000
M  V30 BEGIN CTAB
M  V30 COUNTS 58 61 0 0 1
M  V30 BEGIN ATOM
M  V30 1 C 11.697894 8.388221 -6.457197 0 CFG=2
M  V30 2 C 6.242474 0.973622 -15.592620 0 CFG=2
M  V30 3 C 9.450930 6.169280 -6.309754 0
M  V30 4 O 6.634914 2.230177 -15.031847 0
M  V30 5 C 7.929022 1.350606 -13.084768 0
M  V30 6 N 7.948654 4.156864 -12.597205 0
M  V30 7 C 10.119455 7.542104 -8.296061 0
M  V30 8 C 10.469343 7.162476 -12.105505 0
M  V30 9 O 8.263892 4.657436 -14.795742 0
M  V30 10 C 5.316666 0.202604 -14.626942 0
M  V30 11 C 12.066287 7.986975 -10.280297 0
M  V30 12 C 7.834772 2.340827 -14.275389 0 CFG=2
M  V30 13 F 7.970039 0.917913 -17.209826 0
M  V30 14 F 12.232826 7.483142 -4.291670 0
M  V30 15 C 11.675849 7.160531 -5.482118 0 CFG=1
M  V30 16 C 9.834867 7.256728 -9.646053 0
M  V30 17 C 12.357470 8.280002 -8.927897 0
M  V30 18 C 10.799228 7.468988 -10.638779 0
M  V30 19 C 10.310714 6.620881 -5.142975 0
M  V30 20 C 8.022520 3.834612 -13.910155 0
M  V30 21 C 8.723755 5.185707 -11.895062 0 CFG=1
M  V30 22 F 8.227955 -0.407623 -15.505553 0
M  V30 23 C 10.026376 5.726679 -12.505038 0
M  V30 24 C 9.064421 7.285033 -7.255643 0
M  V30 25 O 10.896534 9.432922 -5.945936 0
M  V30 26 O 7.506584 5.511936 -12.428064 0
M  V30 27 C 5.932052 -0.212740 -13.290914 0
M  V30 28 C 7.338668 0.158362 -16.314376 0
M  V30 29 C 11.383375 8.058701 -7.927997 0
M  V30 30 C 6.569871 0.933792 -12.507126 0
M  V30 31 H 12.681603 8.845004 -6.457407 0
M  V30 32 H 5.583871 1.272445 -16.407640 0
M  V30 33 H 8.523211 5.769488 -5.901214 0
M  V30 34 H 9.928927 5.369413 -6.871254 0
M  V30 35 H 8.489696 0.461371 -13.364648 0
M  V30 36 H 8.547894 1.769141 -12.291713 0
M  V30 37 H 9.709388 7.875002 -12.424728 0
M  V30 38 H 11.357203 7.369368 -12.701316 0
M  V30 39 H 4.445304 0.815309 -14.394659 0
M  V30 40 H 4.921289 -0.676751 -15.134392 0
M  V30 41 H 12.812423 8.167414 -11.040457 0
M  V30 42 H 8.634838 2.101948 -14.968520 0
M  V30 43 H 12.234844 6.326782 -5.907710 0
M  V30 44 H 8.863793 6.878698 -9.915299 0
M  V30 45 H 13.325955 8.678625 -8.661876 0
M  V30 46 H 9.834709 7.453625 -4.691653 0
M  V30 47 H 10.391808 5.832803 -4.394009 0
M  V30 48 H 8.746282 5.015561 -10.823023 0
M  V30 49 H 9.970364 5.737268 -13.587394 0
M  V30 50 H 10.811348 5.015955 -12.279009 0
M  V30 51 H 8.718926 8.191708 -6.757935 0
M  V30 52 H 8.234844 6.882079 -7.811427 0
M  V30 53 H 11.000273 10.186095 -6.506897 0
M  V30 54 H 5.140838 -0.630522 -12.667100 0
M  V30 55 H 6.634965 -1.028419 -13.441965 0
M  V30 56 H 6.884552 -0.659050 -16.875763 0
M  V30 57 H 5.900092 1.791345 -12.446206 0
M  V30 58 H 6.696003 0.569240 -11.491556 0
M  V30 END ATOM
M  V30 BEGIN BOND
M  V30 1 1 4 2
M  V30 2 1 10 2
M  V30 3 1 12 4
M  V30 4 1 12 5
M  V30 5 1 15 1
M  V30 6 1 15 14
M  V30 7 1 16 7
M  V30 8 2 17 11
M  V30 9 1 18 8
M  V30 10 1 18 11
M  V30 11 2 18 16
M  V30 12 1 19 3
M  V30 13 1 19 15
M  V30 14 1 20 6
M  V30 15 2 20 9
M  V30 16 1 20 12
M  V30 17 1 21 6
M  V30 18 1 23 8
M  V30 19 1 23 21
M  V30 20 1 24 3
M  V30 21 1 24 7
M  V30 22 1 25 1
M  V30 23 1 26 6
M  V30 24 1 26 21
M  V30 25 1 27 10
M  V30 26 1 28 2
M  V30 27 1 28 13
M  V30 28 1 28 22
M  V30 29 1 29 1
M  V30 30 2 29 7
M  V30 31 1 29 17
M  V30 32 1 30 5
M  V30 33 1 30 27
M  V30 34 1 1 31 CFG=3
M  V30 35 1 2 32 CFG=3
M  V30 36 1 33 3
M  V30 37 1 34 3
M  V30 38 1 35 5
M  V30 39 1 36 5
M  V30 40 1 37 8
M  V30 41 1 38 8
M  V30 42 1 39 10
M  V30 43 1 40 10
M  V30 44 1 41 11
M  V30 45 1 12 42 CFG=3
M  V30 46 1 15 43 CFG=3
M  V30 47 1 44 16
M  V30 48 1 45 17
M  V30 49 1 46 19
M  V30 50 1 47 19
M  V30 51 1 21 48 CFG=1
M  V30 52 1 49 23
M  V30 53 1 50 23
M  V30 54 1 51 24
M  V30 55 1 52 24
M  V30 56 1 53 25
M  V30 57 1 54 27
M  V30 58 1 55 27
M  V30 59 1 56 28
M  V30 60 1 57 30
M  V30 61 1 58 30
M  V30 END BOND
M  V30 END CTAB
M  END
>  <i_epik_Tot_Q>  (1) 
0

>  <i_epik_Tot_abs_Q>  (1) 
0

>  <i_i_glide_confnum>  (1) 
516

>  <i_i_glide_lignum>  (1) 
59

>  <i_i_glide_posenum>  (1) 
219

>  <i_i_glide_rotatable_bonds>  (1) 
7

>  <i_lp_mmshare_version>  (1) 
72125

>  <i_m_source_file_index>  (1) 
22

>  <i_f3d_flags>  (1) 
0

>  <num_sample>  (1) 
50

>  <b_lp_Chiralities_Consistent>  (1) 
1

>  <r_epik_Charging_Adjusted_Penalty>  (1) 
0

>  <r_epik_Ionization_Penalty>  (1) 
2.1179066564973658e-05

>  <r_epik_Ionization_Penalty_Charging>  (1) 
0

>  <r_epik_Ionization_Penalty_Neutral>  (1) 
2.1179066564973658e-05

>  <r_epik_State_Penalty>  (1) 
-0

>  <r_glide_ring_energy>  (1) 
1.9317522254523016

>  <r_i_docking_score>  (1) 
-4.7194301263214298

>  <r_i_glide_ecoul>  (1) 
-2.2254822261213354

>  <r_i_glide_eff_state_penalty>  (1) 
-0

>  <r_i_glide_einternal>  (1) 
14.915699179278818

>  <r_i_glide_emodel>  (1) 
-23.682651906154049

>  <r_i_glide_emodel_strain>  (1) 
0.57191233277762876

>  <r_i_glide_energy>  (1) 
-25.125365619097373

>  <r_i_glide_erotb>  (1) 
0.54329591006541389

>  <r_i_glide_esite>  (1) 
-0.036882056167332811

>  <r_i_glide_evdw>  (1) 
-22.899883392976037

>  <r_i_glide_gscore>  (1) 
-4.7194301263214298

>  <r_i_glide_gscore_strain>  (1) 
0

>  <r_i_glide_hbond>  (1) 
0

>  <r_i_glide_ligand_efficiency>  (1) 
-0.15731433754404767

>  <r_i_glide_ligand_efficiency_ln>  (1) 
-1.0723059470100589

>  <r_i_glide_ligand_efficiency_sa>  (1) 
-0.4888122232694625

>  <r_i_glide_lipo>  (1) 
-2.0854536791780243

>  <r_i_glide_metal>  (1) 
-0

>  <r_i_glide_rewards>  (1) 
-1.6615737974744844

>  <r_lp_Energy>  (1) 
33.981971000000001

>  <r_lp_tautomer_probability>  (1) 
1

>  <s_epik_Chemistry_Notes>  (1) 
This compound contains an acetal/aminal-like group ( X-CH(R)-Y where X, Y are N, S, or O) that may be acid/base labile, releasing an aldehyde. This compound has a N-S or N-O group and may undergo hydrolysis at high or low pH.

>  <s_epik_cmdline>  (1) 
J2VwaWtfcHl0aG9uJywgJy1waHQnLCAnMS4wJywgJy1waCcsICc3LjQnLCAnLXRuJywgJzgnLCAnLW1hJywgJzUwMCcsICctaW1hZScsICc8aW5maWxlLm1hZT4nLCAnLW9tYWUnLCAnPG91dGZpbGUubWFlPic=

>  <s_epik_input>  (1) 
W0NIMl0xW0NIMl1bQ0gyXVtDQEhdKEYpW0NASF0oW09IXSljKGMxMilbY0hdW2NIXWMoW2NIXTIpW0NIMl1bQ0gyXVtDQEBIXShPMylOM0MoPU8pW0NASF0oT1tDQEhdNFtDSF0oRilGKVtDSDJdW0NIMl1bQ0gyXVtDSDJdNA==

>  <s_glide_docking_method>  (1) 
confgen

>  <s_i_glide_gridfile>  (1) 
gpcr_drd2_6luq_protein_autoprepared_prepared

>  <s_lp_Force_Field>  (1) 
S-OPLS

>  <s_lp_Variant>  (1) 
DiffSBDD_21_num_sample_50-1

>  <s_m_source_file>  (1) 
generated__ligand_DiffSBDD_2026-05-06_prepared.sdf

>  <GenAI_Model>  (1) 
DiffSBDD

>  <Protein>  (1) 
generic_title2

$$$$
DiffSBDD_33_num_sample_50
     RDKit          3D

  0  0  0  0  0  0  0  0  0  0999 V3000
M  V30 BEGIN CTAB
M  V30 COUNTS 69 72 0 0 1
M  V30 BEGIN ATOM
M  V30 1 O 5.376288 -0.191472 -19.990537 0
M  V30 2 C 5.192534 -1.146288 -16.557376 0
M  V30 3 O 7.548402 1.369296 -19.291492 0
M  V30 4 C 7.178746 1.125586 -16.896584 0
M  V30 5 C 8.915490 4.379153 -10.695067 0
M  V30 6 C 6.801845 0.444616 -13.134158 0
M  V30 7 C 6.038025 5.572304 -14.739171 0
M  V30 8 C 6.839767 0.898168 -21.518069 0
M  V30 9 N 5.454677 -0.080750 -15.652782 0
M  V30 10 C 7.223104 4.700122 -15.205583 0
M  V30 11 C 6.582120 5.047365 -12.327816 0
M  V30 12 C 7.026784 1.244335 -14.409319 0
M  V30 13 N 4.821856 -0.624033 -17.821219 0
M  V30 14 C 6.259960 6.170465 -13.339478 0 CFG=1
M  V30 15 N 9.434856 7.564521 -8.682902 0 CHG=1
M  V30 16 C 7.781306 4.205016 -12.794578 0
M  V30 17 C 6.889994 1.943483 -20.413226 0 CFG=2
M  V30 18 C 6.778329 0.792983 -18.297379 0
M  V30 19 C 9.425047 7.839284 -7.228901 0
M  V30 20 C 10.484180 8.330309 -9.391314 0
M  V30 21 N 8.825835 4.007004 -12.089106 0
M  V30 22 C 7.629271 3.613162 -14.186420 0 CFG=1
M  V30 23 F 7.521196 3.025079 -20.868862 0
M  V30 24 C 7.307964 7.298516 -13.344288 0
M  V30 25 C 5.686698 0.020258 -18.664159 0
M  V30 26 O 6.634829 2.592757 -14.145027 0
M  V30 27 C 6.435801 -0.432059 -20.903382 0
M  V30 28 C 9.479958 6.120837 -8.980243 0
M  V30 29 C 9.314224 5.837658 -10.481160 0
M  V30 30 C 8.198331 0.644432 -13.652012 0
M  V30 31 C 6.551689 0.753143 -15.740417 0
M  V30 32 F 8.246533 1.931784 -16.763057 0
M  V30 33 H 4.375872 -1.761784 -16.186205 0
M  V30 34 H 6.070848 -1.785543 -16.655532 0
M  V30 35 H 7.987092 4.169250 -10.162564 0
M  V30 36 H 9.677415 3.757715 -10.230679 0
M  V30 37 H 6.514350 0.994122 -12.240740 0
M  V30 38 H 6.405514 -0.567114 -13.198482 0
M  V30 39 H 5.135522 4.969327 -14.691618 0
M  V30 40 H 5.840690 6.359382 -15.467555 0
M  V30 41 H 6.123500 1.202718 -22.281822 0
M  V30 42 H 7.808809 0.794078 -22.006380 0
M  V30 43 H 5.074431 -0.227608 -14.726518 0
M  V30 44 H 8.081350 5.346974 -15.391722 0
M  V30 45 H 6.997483 4.236806 -16.165875 0
M  V30 46 H 5.723679 4.379228 -12.248331 0
M  V30 47 H 5.319430 6.628810 -13.031874 0
M  V30 48 H 5.890632 2.294638 -20.147051 0
M  V30 49 H 4.050408 -1.107612 -18.259458 0
M  V30 50 H 10.376244 7.565063 -6.770349 0
M  V30 51 H 9.238529 8.897773 -7.042664 0
M  V30 52 H 8.634928 7.276808 -6.730311 0
M  V30 53 H 11.478288 7.943134 -9.163511 0
M  V30 54 H 10.342546 8.306754 -10.471649 0
M  V30 55 H 10.456424 9.369336 -9.091804 0
M  V30 56 H 8.586348 3.203845 -14.505362 0
M  V30 57 H 8.315694 6.913931 -13.491646 0
M  V30 58 H 7.114846 8.015947 -14.142284 0
M  V30 59 H 7.297796 7.840898 -12.398411 0
M  V30 60 H 6.088954 -1.113294 -21.680454 0
M  V30 61 H 7.277646 -0.926845 -20.414916 0
M  V30 62 H 8.661980 5.648164 -8.433016 0
M  V30 63 H 10.406206 5.681701 -8.607429 0
M  V30 64 H 10.234338 6.056496 -11.024471 0
M  V30 65 H 8.555132 6.502745 -10.887062 0
M  V30 66 H 8.680176 -0.225170 -14.092799 0
M  V30 67 H 8.855795 1.302711 -13.090694 0
M  V30 68 H 8.510591 7.850228 -9.033543 0
M  V30 69 H 6.696773 5.477933 -11.337267 0
M  V30 END ATOM
M  V30 BEGIN BOND
M  V30 1 1 9 2
M  V30 2 1 10 7
M  V30 3 1 12 6
M  V30 4 1 13 2
M  V30 5 1 14 7
M  V30 6 1 14 11
M  V30 7 1 16 11
M  V30 8 1 17 3
M  V30 9 1 17 8
M  V30 10 1 18 3
M  V30 11 1 18 4
M  V30 12 1 19 15
M  V30 13 1 20 15
M  V30 14 1 21 5
M  V30 15 2 21 16
M  V30 16 1 22 10
M  V30 17 1 22 16
M  V30 18 1 23 17
M  V30 19 1 24 14
M  V30 20 1 25 1
M  V30 21 1 25 13
M  V30 22 2 25 18
M  V30 23 1 26 12
M  V30 24 1 26 22
M  V30 25 1 27 1
M  V30 26 1 27 8
M  V30 27 1 28 15
M  V30 28 1 29 5
M  V30 29 1 29 28
M  V30 30 1 30 6
M  V30 31 1 30 12
M  V30 32 2 31 4
M  V30 33 1 31 9
M  V30 34 1 31 12
M  V30 35 1 32 4
M  V30 36 1 33 2
M  V30 37 1 34 2
M  V30 38 1 35 5
M  V30 39 1 36 5
M  V30 40 1 37 6
M  V30 41 1 38 6
M  V30 42 1 39 7
M  V30 43 1 40 7
M  V30 44 1 41 8
M  V30 45 1 42 8
M  V30 46 1 43 9
M  V30 47 1 44 10
M  V30 48 1 45 10
M  V30 49 1 46 11
M  V30 50 1 14 47 CFG=1
M  V30 51 1 17 48 CFG=1
M  V30 52 1 49 13
M  V30 53 1 50 19
M  V30 54 1 51 19
M  V30 55 1 52 19
M  V30 56 1 53 20
M  V30 57 1 54 20
M  V30 58 1 55 20
M  V30 59 1 22 56 CFG=3
M  V30 60 1 57 24
M  V30 61 1 58 24
M  V30 62 1 59 24
M  V30 63 1 60 27
M  V30 64 1 61 27
M  V30 65 1 62 28
M  V30 66 1 63 28
M  V30 67 1 64 29
M  V30 68 1 65 29
M  V30 69 1 66 30
M  V30 70 1 67 30
M  V30 71 1 68 15
M  V30 72 1 69 11
M  V30 END BOND
M  V30 END CTAB
M  END
>  <i_epik_Tot_Q>  (1) 
1

>  <i_epik_Tot_abs_Q>  (1) 
1

>  <i_i_glide_confnum>  (1) 
29

>  <i_i_glide_lignum>  (1) 
84

>  <i_i_glide_posenum>  (1) 
352

>  <i_i_glide_rotatable_bonds>  (1) 
7

>  <i_lp_mmshare_version>  (1) 
72125

>  <i_m_source_file_index>  (1) 
34

>  <i_f3d_flags>  (1) 
0

>  <num_sample>  (1) 
50

>  <b_lp_Chiralities_Consistent>  (1) 
1

>  <r_epik_Charging_Adjusted_Penalty>  (1) 
0.41789118993368612

>  <r_epik_Ionization_Penalty>  (1) 
0.0076682513750627552

>  <r_epik_Ionization_Penalty_Charging>  (1) 
0.0072113509810821487

>  <r_epik_Ionization_Penalty_Neutral>  (1) 
0.0004569003939806066

>  <r_epik_State_Penalty>  (1) 
0.41067983895260396

>  <r_glide_ring_energy>  (1) 
1.3422813252046473

>  <r_i_docking_score>  (1) 
-4.7136884377327837

>  <r_i_glide_ecoul>  (1) 
-5.2852418555435534

>  <r_i_glide_eff_state_penalty>  (1) 
0.41067983895260396

>  <r_i_glide_einternal>  (1) 
6.9863303273272077

>  <r_i_glide_emodel>  (1) 
-53.212645725869407

>  <r_i_glide_emodel_strain>  (1) 
0.1657870914968953

>  <r_i_glide_energy>  (1) 
-41.622718074699094

>  <r_i_glide_erotb>  (1) 
0.58078846603177925

>  <r_i_glide_esite>  (1) 
-0.10000000000000001

>  <r_i_glide_evdw>  (1) 
-36.33747621915554

>  <r_i_glide_gscore>  (1) 
-5.124368276685388

>  <r_i_glide_gscore_strain>  (1) 
0

>  <r_i_glide_hbond>  (1) 
-0.20000000000000001

>  <r_i_glide_ligand_efficiency>  (1) 
-0.14730276367914949

>  <r_i_glide_ligand_efficiency_ln>  (1) 
-1.0555233315023413

>  <r_i_glide_ligand_efficiency_sa>  (1) 
-0.46765712404421006

>  <r_i_glide_lipo>  (1) 
-1.6096580476224132

>  <r_i_glide_metal>  (1) 
-0

>  <r_i_glide_rewards>  (1) 
-1.1858386058054431

>  <r_lp_Energy>  (1) 
52.499913999999997

>  <r_lp_tautomer_probability>  (1) 
0.49999519497573586

>  <s_epik_Chemistry_Notes>  (1) 
This compound has an imine and may undergo hydrolysis. This compound contains an acetal/aminal-like group ( X-CH(R)-Y where X, Y are N, S, or O) that may be acid/base labile, releasing an aldehyde.

>  <s_epik_cmdline>  (1) 
J2VwaWtfcHl0aG9uJywgJy1waHQnLCAnMS4wJywgJy1waCcsICc3LjQnLCAnLXRuJywgJzgnLCAnLW1hJywgJzUwMCcsICctaW1hZScsICc8aW5maWxlLm1hZT4nLCAnLW9tYWUnLCAnPG91dGZpbGUubWFlPic=

>  <s_epik_input>  (1) 
TzFbQ0BASF0oRilbQ0gyXVtDSDJdT0MoW0NAQEhdMTIpPU5bQ0gyXVtOSF1DKD1DMkYpQzMoW0NIMl1bQ0gyXTMpT1tDQEBIXShbQ0gyXVtDSDJdW0NAQEhdNFtDSDNdKUMoPVtDSF00KVtOSF1bQ0gyXVtDSDJdW0NIMl1OKFtDSDNdKVtDSDNd

>  <s_glide_docking_method>  (1) 
confgen

>  <s_i_glide_gridfile>  (1) 
gpcr_drd2_6luq_protein_autoprepared_prepared

>  <s_lp_Force_Field>  (1) 
S-OPLS

>  <s_lp_Variant>  (1) 
DiffSBDD_33_num_sample_50-2

>  <s_m_source_file>  (1) 
generated__ligand_DiffSBDD_2026-05-06_prepared.sdf

>  <GenAI_Model>  (1) 
DiffSBDD

>  <Protein>  (1) 
generic_title2

$$$$
DiffSBDD_31_num_sample_50
     RDKit          3D

  0  0  0  0  0  0  0  0  0  0999 V3000
M  V30 BEGIN CTAB
M  V30 COUNTS 71 76 0 0 1
M  V30 BEGIN ATOM
M  V30 1 C 6.629471 5.503575 -14.058944 0
M  V30 2 C 7.133105 2.726639 -14.314804 0
M  V30 3 C 6.300471 6.590723 -17.946985 0
M  V30 4 C 5.123702 2.234117 -20.444488 0
M  V30 5 C 6.380327 4.281288 -19.699740 0
M  V30 6 C 8.022262 1.943051 -17.808245 0
M  V30 7 C 5.718827 5.848412 -21.564412 0 CFG=2
M  V30 8 C 6.990878 0.305085 -13.295683 0
M  V30 9 F 6.386506 6.830176 -13.938872 0
M  V30 10 C 5.835181 4.577912 -13.365177 0
M  V30 11 C 7.409859 1.227326 -14.434940 0
M  V30 12 C 7.628556 2.111529 -20.350734 0
M  V30 13 C 6.041815 -0.307220 -17.727482 0
M  V30 14 C 6.023674 0.428524 -16.358597 0
M  V30 15 C 8.445654 0.963824 -16.701526 0
M  V30 16 C 6.082637 3.196619 -13.491664 0
M  V30 17 F 4.793132 5.015081 -22.047490 0
M  V30 18 C 7.675933 5.053033 -14.876857 0
M  V30 19 C 7.930452 3.674178 -15.004578 0
M  V30 20 C 6.014516 6.656641 -19.265844 0
M  V30 21 N 7.352758 0.642880 -15.786529 0
M  V30 22 C 5.045769 1.500858 -19.109785 0
M  V30 23 C 6.969225 5.907940 -22.475660 0
M  V30 24 C 6.419323 3.029287 -20.582102 0 CFG=1
M  V30 25 O 6.601876 6.202514 -23.807573 0
M  V30 26 C 8.443082 0.613170 -13.517407 0
M  V30 27 C 8.995708 2.573872 -20.819212 0
M  V30 28 C 6.068632 5.535270 -20.134766 0
M  V30 29 C 5.078386 7.294092 -21.280850 0 CFG=2
M  V30 30 O 5.170179 8.226451 -22.342276 0
M  V30 31 C 8.274092 1.495236 -21.581087 0
M  V30 32 C 7.528623 1.228280 -19.083872 0 CFG=2
M  V30 33 N 6.189626 0.580328 -18.922012 0 CFG=1 CHG=1
M  V30 34 C 5.594843 7.923663 -19.917900 0
M  V30 35 H 6.234829 7.472797 -17.326455 0
M  V30 36 H 6.598167 5.673968 -17.471422 0
M  V30 37 H 4.283125 2.921950 -20.522543 0
M  V30 38 H 5.034814 1.521110 -21.265826 0
M  V30 39 H 6.604434 4.123325 -18.667600 0
M  V30 40 H 7.283740 2.639735 -17.423369 0
M  V30 41 H 8.895369 2.545567 -18.057917 0
M  V30 42 H 6.567956 0.707830 -12.378638 0
M  V30 43 H 6.655511 -0.699033 -13.548644 0
M  V30 44 H 5.034830 4.925704 -12.733210 0
M  V30 45 H 5.094745 -0.837823 -17.836498 0
M  V30 46 H 6.804509 -1.087175 -17.739832 0
M  V30 47 H 5.487626 1.369300 -16.416623 0
M  V30 48 H 5.467544 -0.184072 -15.647372 0
M  V30 49 H 9.285432 1.369295 -16.141993 0
M  V30 50 H 8.825427 0.038250 -17.134452 0
M  V30 51 H 5.463949 2.495606 -12.957946 0
M  V30 52 H 8.289402 5.765999 -15.407767 0
M  V30 53 H 8.739945 3.345576 -15.629439 0
M  V30 54 H 5.034839 2.227926 -18.302183 0
M  V30 55 H 4.110392 0.939643 -19.091667 0
M  V30 56 H 7.531219 4.977226 -22.481425 0
M  V30 57 H 7.655689 6.677546 -22.120605 0
M  V30 58 H 6.459906 3.333808 -21.622664 0
M  V30 59 H 5.952617 6.894003 -23.786915 0
M  V30 60 H 9.034842 -0.222390 -13.880272 0
M  V30 61 H 8.939075 1.278239 -12.813456 0
M  V30 62 H 9.069806 3.554090 -21.285148 0
M  V30 63 H 9.868569 2.271184 -20.244107 0
M  V30 64 H 4.009909 7.126815 -21.147393 0
M  V30 65 H 6.049322 8.575502 -22.367338 0
M  V30 66 H 8.672549 0.485126 -21.508204 0
M  V30 67 H 7.876076 1.759024 -22.559331 0
M  V30 68 H 8.222310 0.402293 -19.247136 0
M  V30 69 H 4.816830 8.457644 -19.370552 0
M  V30 70 H 6.459514 8.569240 -20.068273 0
M  V30 71 H 6.124109 -0.046118 -19.712647 0
M  V30 END ATOM
M  V30 BEGIN BOND
M  V30 1 1 9 1
M  V30 2 1 10 1
M  V30 3 1 11 2
M  V30 4 1 11 8
M  V30 5 1 14 13
M  V30 6 1 15 6
M  V30 7 1 16 2
M  V30 8 2 16 10
M  V30 9 1 7 17 CFG=3
M  V30 10 2 18 1
M  V30 11 2 19 2
M  V30 12 1 19 18
M  V30 13 2 20 3
M  V30 14 1 21 11
M  V30 15 1 21 14
M  V30 16 1 21 15
M  V30 17 1 22 4
M  V30 18 1 23 7
M  V30 19 1 24 4
M  V30 20 1 24 5
M  V30 21 1 24 12
M  V30 22 1 25 23
M  V30 23 1 26 8
M  V30 24 1 26 11
M  V30 25 1 27 12
M  V30 26 2 28 5
M  V30 27 1 28 7
M  V30 28 1 28 20
M  V30 29 1 29 7
M  V30 30 1 30 29
M  V30 31 1 31 12
M  V30 32 1 31 27
M  V30 33 1 32 6
M  V30 34 1 32 12
M  V30 35 1 33 13
M  V30 36 1 33 22
M  V30 37 1 33 32
M  V30 38 1 34 20
M  V30 39 1 34 29
M  V30 40 1 35 3
M  V30 41 1 36 3
M  V30 42 1 37 4
M  V30 43 1 38 4
M  V30 44 1 39 5
M  V30 45 1 40 6
M  V30 46 1 41 6
M  V30 47 1 42 8
M  V30 48 1 43 8
M  V30 49 1 44 10
M  V30 50 1 45 13
M  V30 51 1 46 13
M  V30 52 1 47 14
M  V30 53 1 48 14
M  V30 54 1 49 15
M  V30 55 1 50 15
M  V30 56 1 51 16
M  V30 57 1 52 18
M  V30 58 1 53 19
M  V30 59 1 54 22
M  V30 60 1 55 22
M  V30 61 1 56 23
M  V30 62 1 57 23
M  V30 63 1 24 58 CFG=3
M  V30 64 1 59 25
M  V30 65 1 60 26
M  V30 66 1 61 26
M  V30 67 1 62 27
M  V30 68 1 63 27
M  V30 69 1 29 64 CFG=1
M  V30 70 1 65 30
M  V30 71 1 66 31
M  V30 72 1 67 31
M  V30 73 1 32 68 CFG=3
M  V30 74 1 69 34
M  V30 75 1 70 34
M  V30 76 1 33 71 CFG=3
M  V30 END BOND
M  V30 END CTAB
M  END
>  <i_epik_Tot_Q>  (1) 
1

>  <i_epik_Tot_abs_Q>  (1) 
1

>  <i_i_glide_confnum>  (1) 
212

>  <i_i_glide_lignum>  (1) 
78

>  <i_i_glide_posenum>  (1) 
230

>  <i_i_glide_rotatable_bonds>  (1) 
6

>  <i_lp_mmshare_version>  (1) 
72125

>  <i_m_source_file_index>  (1) 
32

>  <i_f3d_flags>  (1) 
0

>  <num_sample>  (1) 
50

>  <b_lp_Chiralities_Consistent>  (1) 
1

>  <r_epik_Charging_Adjusted_Penalty>  (1) 
0.0036996964664751512

>  <r_epik_Ionization_Penalty>  (1) 
0.0040620325304727405

>  <r_epik_Ionization_Penalty_Charging>  (1) 
0.0036996964664751512

>  <r_epik_Ionization_Penalty_Neutral>  (1) 
0.00036233606399758918

>  <r_epik_State_Penalty>  (1) 
-0

>  <r_glide_ring_energy>  (1) 
0

>  <r_i_docking_score>  (1) 
-4.7126672460779586

>  <r_i_glide_ecoul>  (1) 
-1.8249633922583843

>  <r_i_glide_eff_state_penalty>  (1) 
-0

>  <r_i_glide_einternal>  (1) 
10.014896245946574

>  <r_i_glide_emodel>  (1) 
-29.664058152238162

>  <r_i_glide_emodel_strain>  (1) 
1.8551338412454044

>  <r_i_glide_energy>  (1) 
-27.36530371489323

>  <r_i_glide_erotb>  (1) 
0.36352394052346937

>  <r_i_glide_esite>  (1) 
0

>  <r_i_glide_evdw>  (1) 
-25.540340322634844

>  <r_i_glide_gscore>  (1) 
-4.7126672460779586

>  <r_i_glide_gscore_strain>  (1) 
0

>  <r_i_glide_hbond>  (1) 
0

>  <r_i_glide_ligand_efficiency>  (1) 
-0.13860786017876348

>  <r_i_glide_ligand_efficiency_ln>  (1) 
-1.0411603804974408

>  <r_i_glide_ligand_efficiency_sa>  (1) 
-0.44903565958494157

>  <r_i_glide_lipo>  (1) 
-2.7659521509798624

>  <r_i_glide_metal>  (1) 
-0

>  <r_i_glide_rewards>  (1) 
-0.75947751065106561

>  <r_lp_Energy>  (1) 
29.781917

>  <r_lp_tautomer_probability>  (1) 
1

>  <s_epik_cmdline>  (1) 
J2VwaWtfcHl0aG9uJywgJy1waHQnLCAnMS4wJywgJy1waCcsICc3LjQnLCAnLXRuJywgJzgnLCAnLW1hJywgJzUwMCcsICctaW1hZScsICc8aW5maWxlLm1hZT4nLCAnLW9tYWUnLCAnPG91dGZpbGUubWFlPic=

>  <s_epik_input>  (1) 
RmMxW2NIXVtjSF1jKFtjSF1bY0hdMSlDMihbQ0gyXVtDSDJdMilOKFtDSDJdW0NIMl0zKVtDSDJdW0NIMl1OKFtDQEhdM0M0NVtDSDJdW0NIMl01KVtDSDJdW0NIMl1bQ0BIXTQvW0NIXT1DKFxbQ0BdNihGKVtDSDJdW09IXSlDKD1bQ0gyXSlbQ0gyXVtDQEhdNltPSF0=

>  <s_glide_docking_method>  (1) 
confgen

>  <s_i_glide_gridfile>  (1) 
gpcr_drd2_6luq_protein_autoprepared_prepared

>  <s_lp_Force_Field>  (1) 
S-OPLS

>  <s_lp_Variant>  (1) 
DiffSBDD_31_num_sample_50-1

>  <s_m_source_file>  (1) 
generated__ligand_DiffSBDD_2026-05-06_prepared.sdf

>  <GenAI_Model>  (1) 
DiffSBDD

>  <Protein>  (1) 
generic_title2

$$$$
DiffSBDD_21_num_sample_50
     RDKit          3D

  0  0  0  0  0  0  0  0  0  0999 V3000
M  V30 BEGIN CTAB
M  V30 COUNTS 58 61 0 0 1
M  V30 BEGIN ATOM
M  V30 1 C 10.524721 8.536900 -8.205643 0 CFG=2
M  V30 2 C 6.927070 6.025446 -18.105532 0 CFG=2
M  V30 3 C 10.319417 6.100041 -6.318976 0
M  V30 4 O 6.232106 5.491590 -16.987769 0
M  V30 5 C 4.920163 7.649573 -16.777137 0
M  V30 6 N 5.824479 5.626119 -13.848562 0
M  V30 7 C 9.468081 6.293853 -8.763868 0
M  V30 8 C 9.065855 4.399208 -12.081846 0
M  V30 9 O 7.034485 7.359863 -14.691482 0
M  V30 10 C 5.960049 6.086568 -19.307776 0
M  V30 11 C 10.125622 6.624784 -11.490794 0
M  V30 12 C 5.434583 6.338340 -16.155800 0 CFG=2
M  V30 13 F 8.779107 5.402467 -19.440780 0
M  V30 14 F 12.228004 9.220410 -6.767547 0
M  V30 15 C 11.603236 8.122426 -7.196907 0 CFG=1
M  V30 16 C 9.102328 5.306912 -9.706679 0
M  V30 17 C 10.482241 7.611679 -10.556429 0
M  V30 18 C 9.434968 5.470890 -11.070281 0
M  V30 19 C 11.031015 7.405977 -5.973115 0
M  V30 20 C 6.163904 6.500437 -14.821715 0
M  V30 21 C 6.716394 4.997331 -12.876970 0 CFG=1
M  V30 22 F 8.915212 5.050515 -17.307621 0
M  V30 23 C 8.193818 4.903777 -13.245374 0
M  V30 24 C 9.109653 6.111582 -7.288380 0
M  V30 25 O 9.385858 8.969269 -7.500482 0
M  V30 26 O 6.107976 6.178696 -12.555634 0
M  V30 27 C 4.995561 7.282809 -19.303014 0
M  V30 28 C 8.089036 5.053087 -18.354965 0
M  V30 29 C 10.156186 7.452876 -9.195162 0
M  V30 30 C 4.109753 7.374234 -18.055489 0
M  V30 31 H 10.912935 9.369274 -8.789440 0
M  V30 32 H 7.352603 7.001049 -17.890898 0
M  V30 33 H 9.952386 5.769327 -5.351352 0
M  V30 34 H 11.050045 5.370780 -6.674667 0
M  V30 35 H 4.271950 8.145712 -16.052224 0
M  V30 36 H 5.728884 8.355658 -16.964219 0
M  V30 37 H 10.000561 4.013977 -12.488674 0
M  V30 38 H 8.595752 3.551077 -11.586519 0
M  V30 39 H 6.539142 6.144104 -20.229375 0
M  V30 40 H 5.396201 5.156251 -19.369262 0
M  V30 41 H 10.383799 6.750534 -12.531797 0
M  V30 42 H 4.538314 5.769301 -15.933177 0
M  V30 43 H 12.369635 7.519805 -7.685080 0
M  V30 44 H 8.571326 4.426597 -9.384617 0
M  V30 45 H 11.004528 8.494914 -10.882393 0
M  V30 46 H 10.356237 8.056748 -5.418268 0
M  V30 47 H 11.833638 7.183249 -5.271230 0
M  V30 48 H 6.309258 4.122724 -12.373947 0
M  V30 49 H 8.587392 5.841687 -13.629346 0
M  V30 50 H 8.272508 4.188088 -14.064394 0
M  V30 51 H 8.364446 6.837057 -6.971275 0
M  V30 52 H 8.581241 5.168097 -7.205979 0
M  V30 53 H 9.653263 9.643248 -6.898128 0
M  V30 54 H 5.562489 8.207711 -19.413894 0
M  V30 55 H 4.352761 7.220164 -20.182893 0
M  V30 56 H 7.735499 4.032099 -18.501975 0
M  V30 57 H 3.383945 8.169341 -18.204593 0
M  V30 58 H 3.507920 6.473630 -17.944038 0
M  V30 END ATOM
M  V30 BEGIN BOND
M  V30 1 1 4 2
M  V30 2 1 10 2
M  V30 3 1 12 4
M  V30 4 1 12 5
M  V30 5 1 15 1
M  V30 6 1 15 14
M  V30 7 1 16 7
M  V30 8 2 17 11
M  V30 9 1 18 8
M  V30 10 1 18 11
M  V30 11 2 18 16
M  V30 12 1 19 3
M  V30 13 1 19 15
M  V30 14 1 20 6
M  V30 15 2 20 9
M  V30 16 1 20 12
M  V30 17 1 21 6
M  V30 18 1 23 8
M  V30 19 1 23 21
M  V30 20 1 24 3
M  V30 21 1 24 7
M  V30 22 1 25 1
M  V30 23 1 26 6
M  V30 24 1 26 21
M  V30 25 1 27 10
M  V30 26 1 28 2
M  V30 27 1 28 13
M  V30 28 1 28 22
M  V30 29 1 29 1
M  V30 30 2 29 7
M  V30 31 1 29 17
M  V30 32 1 30 5
M  V30 33 1 30 27
M  V30 34 1 1 31 CFG=3
M  V30 35 1 2 32 CFG=1
M  V30 36 1 33 3
M  V30 37 1 34 3
M  V30 38 1 35 5
M  V30 39 1 36 5
M  V30 40 1 37 8
M  V30 41 1 38 8
M  V30 42 1 39 10
M  V30 43 1 40 10
M  V30 44 1 41 11
M  V30 45 1 12 42 CFG=1
M  V30 46 1 15 43 CFG=3
M  V30 47 1 44 16
M  V30 48 1 45 17
M  V30 49 1 46 19
M  V30 50 1 47 19
M  V30 51 1 21 48 CFG=1
M  V30 52 1 49 23
M  V30 53 1 50 23
M  V30 54 1 51 24
M  V30 55 1 52 24
M  V30 56 1 53 25
M  V30 57 1 54 27
M  V30 58 1 55 27
M  V30 59 1 56 28
M  V30 60 1 57 30
M  V30 61 1 58 30
M  V30 END BOND
M  V30 END CTAB
M  END
>  <i_epik_Tot_Q>  (1) 
0

>  <i_epik_Tot_abs_Q>  (1) 
0

>  <i_i_glide_confnum>  (1) 
35

>  <i_i_glide_lignum>  (1) 
59

>  <i_i_glide_posenum>  (1) 
5

>  <i_i_glide_rotatable_bonds>  (1) 
7

>  <i_lp_mmshare_version>  (1) 
72125

>  <i_m_source_file_index>  (1) 
22

>  <i_f3d_flags>  (1) 
0

>  <num_sample>  (1) 
50

>  <b_lp_Chiralities_Consistent>  (1) 
1

>  <r_epik_Charging_Adjusted_Penalty>  (1) 
0

>  <r_epik_Ionization_Penalty>  (1) 
2.1179066564973658e-05

>  <r_epik_Ionization_Penalty_Charging>  (1) 
0

>  <r_epik_Ionization_Penalty_Neutral>  (1) 
2.1179066564973658e-05

>  <r_epik_State_Penalty>  (1) 
-0

>  <r_glide_ring_energy>  (1) 
0

>  <r_i_docking_score>  (1) 
-4.7047790034047798

>  <r_i_glide_ecoul>  (1) 
2.2173667464503306

>  <r_i_glide_eff_state_penalty>  (1) 
-0

>  <r_i_glide_einternal>  (1) 
5.0454535147255797

>  <r_i_glide_emodel>  (1) 
-31.250646693627957

>  <r_i_glide_emodel_strain>  (1) 
0.78739406454128869

>  <r_i_glide_energy>  (1) 
-27.994168311635633

>  <r_i_glide_erotb>  (1) 
0.54329591006541389

>  <r_i_glide_esite>  (1) 
0

>  <r_i_glide_evdw>  (1) 
-30.211535058085964

>  <r_i_glide_gscore>  (1) 
-4.7047790034047798

>  <r_i_glide_gscore_strain>  (1) 
0

>  <r_i_glide_hbond>  (1) 
0

>  <r_i_glide_ligand_efficiency>  (1) 
-0.15682596678015934

>  <r_i_glide_ligand_efficiency_ln>  (1) 
-1.068977052246626

>  <r_i_glide_ligand_efficiency_sa>  (1) 
-0.48729474175695114

>  <r_i_glide_lipo>  (1) 
-2.0112608798367817

>  <r_i_glide_metal>  (1) 
-0

>  <r_i_glide_rewards>  (1) 
-2.0588422926966632

>  <r_lp_Energy>  (1) 
33.981971000000001

>  <r_lp_tautomer_probability>  (1) 
1

>  <s_epik_Chemistry_Notes>  (1) 
This compound contains an acetal/aminal-like group ( X-CH(R)-Y where X, Y are N, S, or O) that may be acid/base labile, releasing an aldehyde. This compound has a N-S or N-O group and may undergo hydrolysis at high or low pH.

>  <s_epik_cmdline>  (1) 
J2VwaWtfcHl0aG9uJywgJy1waHQnLCAnMS4wJywgJy1waCcsICc3LjQnLCAnLXRuJywgJzgnLCAnLW1hJywgJzUwMCcsICctaW1hZScsICc8aW5maWxlLm1hZT4nLCAnLW9tYWUnLCAnPG91dGZpbGUubWFlPic=

>  <s_epik_input>  (1) 
W0NIMl0xW0NIMl1bQ0gyXVtDQEhdKEYpW0NASF0oW09IXSljKGMxMilbY0hdW2NIXWMoW2NIXTIpW0NIMl1bQ0gyXVtDQEBIXShPMylOM0MoPU8pW0NASF0oT1tDQEhdNFtDSF0oRilGKVtDSDJdW0NIMl1bQ0gyXVtDSDJdNA==

>  <s_glide_docking_method>  (1) 
confgen

>  <s_i_glide_gridfile>  (1) 
gpcr_drd2_6luq_protein_autoprepared_prepared

>  <s_lp_Force_Field>  (1) 
S-OPLS

>  <s_lp_Variant>  (1) 
DiffSBDD_21_num_sample_50-1

>  <s_m_source_file>  (1) 
generated__ligand_DiffSBDD_2026-05-06_prepared.sdf

>  <GenAI_Model>  (1) 
DiffSBDD

>  <Protein>  (1) 
generic_title2

$$$$
DiffSBDD_38_num_sample_50
     RDKit          3D

  0  0  0  0  0  0  0  0  0  0999 V3000
M  V30 BEGIN CTAB
M  V30 COUNTS 60 62 0 0 1
M  V30 BEGIN ATOM
M  V30 1 C 6.587543 2.749362 -19.679721 0
M  V30 2 O 8.888648 2.077212 -19.594036 0
M  V30 3 S 10.068398 4.969381 -16.394025 0
M  V30 4 F 10.873303 6.101074 -6.617197 0
M  V30 5 C 9.426835 5.306125 -8.773565 0 CFG=1
M  V30 6 C 5.104137 4.146822 -21.196823 0
M  V30 7 C 10.240811 7.351886 -9.937546 0
M  V30 8 C 8.693070 5.769300 -13.701238 0
M  V30 9 C 6.230327 4.167836 -20.156119 0 CFG=1
M  V30 10 C 8.423668 4.894171 -16.025554 0
M  V30 11 N 8.078733 3.094715 -17.753298 0
M  V30 12 C 9.025092 5.654501 -11.170402 0
M  V30 13 C 6.415714 5.477758 -14.661314 0
M  V30 14 C 7.959907 2.622646 -19.005441 0
M  V30 15 F 12.134357 7.370021 -7.783021 0
M  V30 16 O 7.435250 6.505457 -18.150449 0
M  V30 17 C 8.356783 5.009602 -12.400232 0 CFG=2
M  V30 18 O 8.986833 4.855909 -10.041545 0
M  V30 19 C 8.890695 3.572604 -12.548955 0
M  V30 20 O 9.035161 8.487842 -6.797224 0
M  V30 21 C 9.629664 6.863684 -11.138941 0
M  V30 22 N 11.098035 9.151262 -6.206498 0
M  V30 23 C 6.816011 4.998668 -12.190394 0
M  V30 24 C 6.968135 5.373908 -18.057698 0
M  V30 25 C 10.247463 8.312201 -6.804058 0
M  V30 26 C 5.808244 5.046378 -18.974319 0
M  V30 27 C 10.171709 6.643513 -8.808107 0
M  V30 28 C 7.476015 4.263497 -17.078668 0 CFG=2
M  V30 29 N 7.864767 5.341294 -14.838921 0
M  V30 30 C 6.007921 4.617652 -13.454595 0
M  V30 31 N 8.306682 5.369302 -7.891631 0
M  V30 32 C 10.856444 7.090514 -7.511282 0
M  V30 33 H 5.818335 2.361537 -19.009687 0
M  V30 34 H 6.593084 2.073720 -20.535891 0
M  V30 35 H 10.126490 4.554059 -8.411185 0
M  V30 36 H 4.183509 3.769780 -20.755770 0
M  V30 37 H 4.901969 5.149842 -21.573340 0
M  V30 38 H 5.355291 3.518949 -22.052197 0
M  V30 39 H 10.773754 8.291310 -9.951118 0
M  V30 40 H 8.429151 6.816374 -13.560317 0
M  V30 41 H 9.770680 5.747085 -13.853249 0
M  V30 42 H 7.107292 4.609022 -20.635831 0
M  V30 43 H 8.962096 2.837290 -17.335961 0
M  V30 44 H 6.223376 6.525797 -14.426364 0
M  V30 45 H 5.784739 5.281773 -15.521664 0
M  V30 46 H 8.451808 3.050753 -13.399334 0
M  V30 47 H 9.970171 3.580804 -12.691351 0
M  V30 48 H 8.699411 2.969590 -11.667004 0
M  V30 49 H 9.667499 7.470083 -12.028343 0
M  V30 50 H 10.744855 9.967049 -5.729402 0
M  V30 51 H 12.089756 8.967259 -6.236831 0
M  V30 52 H 6.552706 4.327739 -11.370738 0
M  V30 53 H 6.497367 5.991861 -11.867992 0
M  V30 54 H 5.034920 4.562661 -18.386920 0
M  V30 55 H 6.634839 3.805695 -16.570563 0
M  V30 56 H 4.943270 4.741982 -13.259691 0
M  V30 57 H 6.154388 3.561968 -13.686518 0
M  V30 58 H 8.574521 5.655322 -6.961762 0
M  V30 59 H 7.644376 6.081201 -8.198624 0
M  V30 60 H 5.381708 5.983689 -19.335186 0
M  V30 END ATOM
M  V30 BEGIN BOND
M  V30 1 1 9 1
M  V30 2 1 9 6
M  V30 3 2 10 3
M  V30 4 1 14 1
M  V30 5 2 14 2
M  V30 6 1 14 11
M  V30 7 1 17 8
M  V30 8 1 17 12
M  V30 9 1 18 5
M  V30 10 1 18 12
M  V30 11 1 17 19 CFG=3
M  V30 12 1 21 7
M  V30 13 2 21 12
M  V30 14 1 23 17
M  V30 15 2 24 16
M  V30 16 2 25 20
M  V30 17 1 25 22
M  V30 18 1 26 9
M  V30 19 1 26 24
M  V30 20 1 27 5
M  V30 21 2 27 7
M  V30 22 1 28 10
M  V30 23 1 28 11
M  V30 24 1 28 24
M  V30 25 1 29 8
M  V30 26 1 29 10
M  V30 27 1 29 13
M  V30 28 1 30 13
M  V30 29 1 30 23
M  V30 30 1 31 5
M  V30 31 1 32 4
M  V30 32 1 32 15
M  V30 33 1 32 25
M  V30 34 1 32 27
M  V30 35 1 33 1
M  V30 36 1 34 1
M  V30 37 1 5 35 CFG=1
M  V30 38 1 36 6
M  V30 39 1 37 6
M  V30 40 1 38 6
M  V30 41 1 39 7
M  V30 42 1 40 8
M  V30 43 1 41 8
M  V30 44 1 9 42 CFG=3
M  V30 45 1 43 11
M  V30 46 1 44 13
M  V30 47 1 45 13
M  V30 48 1 46 19
M  V30 49 1 47 19
M  V30 50 1 48 19
M  V30 51 1 49 21
M  V30 52 1 50 22
M  V30 53 1 51 22
M  V30 54 1 52 23
M  V30 55 1 53 23
M  V30 56 1 54 26
M  V30 57 1 28 55 CFG=1
M  V30 58 1 56 30
M  V30 59 1 57 30
M  V30 60 1 58 31
M  V30 61 1 59 31
M  V30 62 1 60 26
M  V30 END BOND
M  V30 END CTAB
M  END
>  <i_epik_Tot_Q>  (1) 
0

>  <i_epik_Tot_abs_Q>  (1) 
0

>  <i_i_glide_confnum>  (1) 
15

>  <i_i_glide_lignum>  (1) 
93

>  <i_i_glide_posenum>  (1) 
102

>  <i_i_glide_rotatable_bonds>  (1) 
5

>  <i_lp_mmshare_version>  (1) 
72125

>  <i_m_source_file_index>  (1) 
39

>  <i_f3d_flags>  (1) 
0

>  <num_sample>  (1) 
50

>  <b_lp_Chiralities_Consistent>  (1) 
1

>  <r_epik_Charging_Adjusted_Penalty>  (1) 
0.0043173356697657605

>  <r_epik_Ionization_Penalty>  (1) 
2.5101429145755949

>  <r_epik_Ionization_Penalty_Charging>  (1) 
0

>  <r_epik_Ionization_Penalty_Neutral>  (1) 
2.5101429145755949

>  <r_epik_State_Penalty>  (1) 
0.0043173356697657605

>  <r_glide_ring_energy>  (1) 
0.024453031346160229

>  <r_i_docking_score>  (1) 
-4.7001910052467446

>  <r_i_glide_ecoul>  (1) 
0.94089847366695833

>  <r_i_glide_eff_state_penalty>  (1) 
0.0043173356697657605

>  <r_i_glide_einternal>  (1) 
2.6962690879354376

>  <r_i_glide_emodel>  (1) 
-51.330998397665027

>  <r_i_glide_emodel_strain>  (1) 
0

>  <r_i_glide_energy>  (1) 
-39.263435150779081

>  <r_i_glide_erotb>  (1) 
0.36503894659470715

>  <r_i_glide_esite>  (1) 
-0.0020983175338301283

>  <r_i_glide_evdw>  (1) 
-40.204333624446036

>  <r_i_glide_gscore>  (1) 
-4.7045083409165107

>  <r_i_glide_gscore_strain>  (1) 
0

>  <r_i_glide_hbond>  (1) 
-0.20691223683658716

>  <r_i_glide_ligand_efficiency>  (1) 
-0.14688096891396077

>  <r_i_glide_ligand_efficiency_ln>  (1) 
-1.0525008884426035

>  <r_i_glide_ligand_efficiency_sa>  (1) 
-0.46631800913625954

>  <r_i_glide_lipo>  (1) 
-1.1679029605979263

>  <r_i_glide_metal>  (1) 
-0

>  <r_i_glide_rewards>  (1) 
-1.8235518623706157

>  <r_lp_Energy>  (1) 
65.752579999999995

>  <r_lp_tautomer_probability>  (1) 
0.99999998000000001

>  <s_epik_Chemistry_Notes>  (1) 
This compound contains an acetal/aminal-like group ( X-CH(R)-Y where X, Y are N, S, or O) that may be acid/base labile, releasing an aldehyde.

>  <s_epik_cmdline>  (1) 
J2VwaWtfcHl0aG9uJywgJy1waHQnLCAnMS4wJywgJy1waCcsICc3LjQnLCAnLXRuJywgJzgnLCAnLW1hJywgJzUwMCcsICctaW1hZScsICc8aW5maWxlLm1hZT4nLCAnLW9tYWUnLCAnPG91dGZpbGUubWFlPic=

>  <s_epik_input>  (1) 
W0NIM11bQ0BASF0xW0NIMl1DKD1PKVtOSF1bQ0BIXShDKD1PKVtDSDJdMSlDKD1TKU4oW0NIMl1bQ0gyXVtDSDJdMilbQ0gyXVtDQEBdMihbQ0gzXSlDKE9bQ0BASF0zW05IMl0pPVtDSF1bQ0hdPUMzQyhGKShGKUMoPU8pW05IMl0=

>  <s_glide_docking_method>  (1) 
confgen

>  <s_i_glide_gridfile>  (1) 
gpcr_drd2_6luq_protein_autoprepared_prepared

>  <s_lp_Force_Field>  (1) 
S-OPLS

>  <s_lp_Variant>  (1) 
DiffSBDD_38_num_sample_50-1

>  <s_m_source_file>  (1) 
generated__ligand_DiffSBDD_2026-05-06_prepared.sdf

>  <GenAI_Model>  (1) 
DiffSBDD

>  <Protein>  (1) 
generic_title2

$$$$
DiffSBDD_29_num_sample_50
     RDKit          3D

  0  0  0  0  0  0  0  0  0  0999 V3000
M  V30 BEGIN CTAB
M  V30 COUNTS 64 67 0 0 1
M  V30 BEGIN ATOM
M  V30 1 C 10.272380 7.054081 -8.570171 0
M  V30 2 O 8.144268 3.840364 -14.339406 0
M  V30 3 C 8.517007 4.874335 -18.063128 0
M  V30 4 C 9.038147 6.223375 -8.350350 0
M  V30 5 O 7.667399 1.699896 -16.269127 0
M  V30 6 N 9.022549 4.608726 -11.896438 0 CFG=1 CHG=1
M  V30 7 C 8.720735 3.643253 -17.163360 0
M  V30 8 C 7.414330 6.169298 -16.099778 0
M  V30 9 C 6.112967 5.808917 -13.949385 0
M  V30 10 C 12.302531 8.169286 -7.977076 0
M  V30 11 C 8.939289 4.685520 -10.422062 0
M  V30 12 C 9.983594 5.562744 -12.514068 0
M  V30 13 C 6.501152 0.888347 -16.225937 0
M  V30 14 C 7.029751 3.787863 -15.208572 0 CFG=1
M  V30 15 C 10.451517 7.464645 -9.836472 0
M  V30 16 C 9.677874 6.998319 -12.096467 0
M  V30 17 C 8.634835 6.082160 -9.928007 0 CFG=2
M  V30 18 C 6.483873 5.231097 -15.328147 0 CFG=2
M  V30 19 C 11.198356 7.398687 -7.579983 0
M  V30 20 C 8.167435 2.817560 -13.361926 0
M  V30 21 N 11.507611 8.169364 -10.291684 0
M  V30 22 C 7.433802 3.079033 -16.531597 0 CFG=2
M  V30 23 C 7.439815 5.875516 -17.613024 0
M  V30 24 N 9.434854 7.095405 -10.661791 0
M  V30 25 C 12.418299 8.519409 -9.344150 0
M  V30 26 N 10.916606 6.652595 -5.092111 0
M  V30 27 C 9.221812 3.221653 -12.342044 0
M  V30 28 C 11.034748 6.980674 -6.195100 0
M  V30 29 C 6.931870 -0.552080 -15.979515 0
M  V30 30 H 8.262836 4.536884 -19.068660 0
M  V30 31 H 9.473651 5.389133 -18.162799 0
M  V30 32 H 9.245413 5.269297 -7.864396 0
M  V30 33 H 8.302989 6.775132 -7.769381 0
M  V30 34 H 9.186536 2.867697 -17.772685 0
M  V30 35 H 9.455835 3.867503 -16.391217 0
M  V30 36 H 7.033142 7.181197 -15.962386 0
M  V30 37 H 8.418391 6.169186 -15.674047 0
M  V30 38 H 6.992087 5.971673 -13.329959 0
M  V30 39 H 5.603802 6.769249 -14.045396 0
M  V30 40 H 5.441055 5.142124 -13.408579 0
M  V30 41 H 13.051216 8.476398 -7.265378 0
M  V30 42 H 9.834886 4.278601 -9.960902 0
M  V30 43 H 8.092305 4.090119 -10.097678 0
M  V30 44 H 9.930792 5.489349 -13.600568 0
M  V30 45 H 11.011849 5.328737 -12.257672 0
M  V30 46 H 5.834847 1.188613 -15.419876 0
M  V30 47 H 5.946999 0.957195 -17.162953 0
M  V30 48 H 6.234842 3.218819 -14.736427 0
M  V30 49 H 8.765818 7.332197 -12.592337 0
M  V30 50 H 10.460692 7.670389 -12.445104 0
M  V30 51 H 7.569301 6.169243 -10.117693 0
M  V30 52 H 5.547230 5.228141 -15.878290 0
M  V30 53 H 8.390430 1.844498 -13.800302 0
M  V30 54 H 7.205540 2.738114 -12.852501 0
M  V30 55 H 6.634895 3.149121 -17.271057 0
M  V30 56 H 6.458980 5.527969 -17.939753 0
M  V30 57 H 7.595658 6.803120 -18.164590 0
M  V30 58 H 13.262700 9.080924 -9.687893 0
M  V30 59 H 10.234835 3.082061 -12.691665 0
M  V30 60 H 9.129358 2.569301 -11.491610 0
M  V30 61 H 6.066751 -1.213737 -15.928362 0
M  V30 62 H 7.586837 -0.910516 -16.772927 0
M  V30 63 H 7.473040 -0.630693 -15.036864 0
M  V30 64 H 8.113286 4.883226 -12.240396 0
M  V30 END ATOM
M  V30 BEGIN BOND
M  V30 1 1 4 1
M  V30 2 1 7 3
M  V30 3 1 11 6
M  V30 4 1 12 6
M  V30 5 1 13 5
M  V30 6 1 14 2
M  V30 7 1 15 1
M  V30 8 1 16 12
M  V30 9 1 17 4
M  V30 10 1 17 11
M  V30 11 1 18 8
M  V30 12 1 18 9
M  V30 13 1 18 14
M  V30 14 2 19 1
M  V30 15 1 19 10
M  V30 16 1 20 2
M  V30 17 2 21 15
M  V30 18 1 22 5
M  V30 19 1 22 7
M  V30 20 1 22 14
M  V30 21 1 23 3
M  V30 22 1 23 8
M  V30 23 1 24 15
M  V30 24 1 24 16
M  V30 25 1 24 17
M  V30 26 2 25 10
M  V30 27 1 25 21
M  V30 28 1 27 6
M  V30 29 1 27 20
M  V30 30 1 28 19
M  V30 31 3 28 26
M  V30 32 1 29 13
M  V30 33 1 30 3
M  V30 34 1 31 3
M  V30 35 1 32 4
M  V30 36 1 33 4
M  V30 37 1 34 7
M  V30 38 1 35 7
M  V30 39 1 36 8
M  V30 40 1 37 8
M  V30 41 1 38 9
M  V30 42 1 39 9
M  V30 43 1 40 9
M  V30 44 1 41 10
M  V30 45 1 42 11
M  V30 46 1 43 11
M  V30 47 1 44 12
M  V30 48 1 45 12
M  V30 49 1 46 13
M  V30 50 1 47 13
M  V30 51 1 14 48 CFG=1
M  V30 52 1 49 16
M  V30 53 1 50 16
M  V30 54 1 17 51 CFG=1
M  V30 55 1 18 52 CFG=3
M  V30 56 1 53 20
M  V30 57 1 54 20
M  V30 58 1 22 55 CFG=3
M  V30 59 1 56 23
M  V30 60 1 57 23
M  V30 61 1 58 25
M  V30 62 1 59 27
M  V30 63 1 60 27
M  V30 64 1 61 29
M  V30 65 1 62 29
M  V30 66 1 63 29
M  V30 67 1 6 64 CFG=3
M  V30 END BOND
M  V30 END CTAB
M  END
>  <i_epik_Tot_Q>  (1) 
1

>  <i_epik_Tot_abs_Q>  (1) 
1

>  <i_i_glide_confnum>  (1) 
315

>  <i_i_glide_lignum>  (1) 
74

>  <i_i_glide_posenum>  (1) 
311

>  <i_i_glide_rotatable_bonds>  (1) 
6

>  <i_lp_mmshare_version>  (1) 
72125

>  <i_m_source_file_index>  (1) 
30

>  <i_f3d_flags>  (1) 
0

>  <num_sample>  (1) 
50

>  <b_lp_Chiralities_Consistent>  (1) 
1

>  <r_epik_Charging_Adjusted_Penalty>  (1) 
1.0026227849201053

>  <r_epik_Ionization_Penalty>  (1) 
0.50131159217577048

>  <r_epik_Ionization_Penalty_Charging>  (1) 
0.50131139246005263

>  <r_epik_Ionization_Penalty_Neutral>  (1) 
1.9971571790720627e-07

>  <r_epik_State_Penalty>  (1) 
0.50131139246005263

>  <r_glide_ring_energy>  (1) 
0.9799809587009326

>  <r_i_docking_score>  (1) 
-4.6940954101227845

>  <r_i_glide_ecoul>  (1) 
-4.8618850632844115

>  <r_i_glide_eff_state_penalty>  (1) 
0.50131139246005263

>  <r_i_glide_einternal>  (1) 
4.2409429951528228

>  <r_i_glide_emodel>  (1) 
-38.311623667679264

>  <r_i_glide_emodel_strain>  (1) 
0.023075004989550507

>  <r_i_glide_energy>  (1) 
-31.6235088385232

>  <r_i_glide_erotb>  (1) 
0.6137117962777916

>  <r_i_glide_esite>  (1) 
-0.098737240208350119

>  <r_i_glide_evdw>  (1) 
-26.761623775238789

>  <r_i_glide_gscore>  (1) 
-5.1954068025828368

>  <r_i_glide_gscore_strain>  (1) 
0

>  <r_i_glide_hbond>  (1) 
0

>  <r_i_glide_ligand_efficiency>  (1) 
-0.16186535896975118

>  <r_i_glide_ligand_efficiency_ln>  (1) 
-1.074828816928878

>  <r_i_glide_ligand_efficiency_sa>  (1) 
-0.49730166585844626

>  <r_i_glide_lipo>  (1) 
-1.9584474743258804

>  <r_i_glide_metal>  (1) 
-0

>  <r_i_glide_rewards>  (1) 
-1.6845699360717972

>  <r_lp_Energy>  (1) 
45.317810000000001

>  <s_epik_cmdline>  (1) 
J2VwaWtfcHl0aG9uJywgJy1waHQnLCAnMS4wJywgJy1waCcsICc3LjQnLCAnLXRuJywgJzgnLCAnLW1hJywgJzUwMCcsICctaW1hZScsICc8aW5maWxlLm1hZT4nLCAnLW9tYWUnLCAnPG91dGZpbGUubWFlPic=

>  <s_epik_input>  (1) 
TiNDYzFbY0hdW2NIXW5jKGMxMilOM1tDQEhdKFtDSDJdMilbQ0gyXU4oW0NIMl1bQ0gyXTMpW0NIMl1bQ0gyXU9bQ0BIXTRbQ0BASF0oW0NIM10pW0NIMl1bQ0gyXVtDSDJdW0NIMl1bQ0BIXTRPW0NIMl1bQ0gzXQ==

>  <s_glide_docking_method>  (1) 
confgen

>  <s_i_glide_gridfile>  (1) 
gpcr_drd2_6luq_protein_autoprepared_prepared

>  <s_lp_Force_Field>  (1) 
S-OPLS

>  <s_lp_Variant>  (1) 
DiffSBDD_29_num_sample_50-4

>  <s_m_source_file>  (1) 
generated__ligand_DiffSBDD_2026-05-06_prepared.sdf

>  <GenAI_Model>  (1) 
DiffSBDD

>  <Protein>  (1) 
generic_title2

$$$$
DiffSBDD_40_num_sample_50
     RDKit          3D

  0  0  0  0  0  0  0  0  0  0999 V3000
M  V30 BEGIN CTAB
M  V30 COUNTS 79 82 0 0 1
M  V30 BEGIN ATOM
M  V30 1 C 6.829549 3.428274 -13.101456 0 CFG=1
M  V30 2 S 10.445435 6.480579 -6.232828 0
M  V30 3 C 11.994316 7.765987 -10.536153 0
M  V30 4 C 6.985642 0.735656 -15.154882 0 CFG=2
M  V30 5 C 10.851393 7.086751 -10.308003 0
M  V30 6 C 6.290248 5.854833 -16.569560 0
M  V30 7 C 7.362825 3.254953 -14.565945 0 CFG=2
M  V30 8 C 7.340681 5.356424 -17.253777 0
M  V30 9 C 7.973788 1.846472 -14.804248 0
M  V30 10 C 7.490742 4.453506 -12.150933 0
M  V30 11 C 9.297981 8.721119 -7.156165 0
M  V30 12 C 7.434175 5.572820 -18.757649 0 CFG=1
M  V30 13 C 10.142697 7.124014 -8.955492 0 CFG=1
M  V30 14 C 9.451330 4.134799 -17.249332 0
M  V30 15 C 8.900023 5.596614 -19.209496 0 CFG=2
M  V30 16 C 8.394791 4.605475 -16.549042 0
M  V30 17 C 10.202371 6.234971 -11.385360 0 CFG=1
M  V30 18 C 10.186788 8.208949 -6.001924 0 CFG=2
M  V30 19 S 8.235034 8.182023 -11.891668 0
M  V30 20 C 5.807117 0.569170 -14.298194 0
M  V30 21 F 8.987712 5.761070 -20.530350 0
M  V30 22 C 8.321385 4.377509 -15.040199 0
M  V30 23 C 9.641940 4.338949 -18.744163 0
M  V30 24 C 11.026841 6.424599 -7.925976 0
M  V30 25 F 6.770974 4.603435 -19.390845 0
M  V30 26 O 4.678151 0.169271 -14.560409 0
M  V30 27 O 9.341354 5.235282 -10.850405 0
M  V30 28 O 5.474753 3.823494 -13.178184 0
M  V30 29 C 9.575850 7.114824 -12.454920 0
M  V30 30 C 11.835434 7.595330 -2.628046 0
M  V30 31 N 13.307942 9.769193 -4.889136 0
M  V30 32 C 8.950639 4.197550 -11.740886 0
M  V30 33 N 12.330944 9.279171 -6.831182 0
M  V30 34 O 6.785086 -0.215629 -14.022522 0
M  V30 35 C 12.121842 9.222871 -4.532386 0
M  V30 36 C 9.825264 8.565540 -8.579064 0
M  V30 37 C 11.502726 8.902488 -5.751016 0
M  V30 38 C 13.373172 9.769385 -6.188460 0
M  V30 39 C 11.722274 9.044090 -3.115586 0
M  V30 40 H 6.826271 2.465036 -12.595103 0
M  V30 41 H 12.451504 8.366075 -9.762692 0
M  V30 42 H 12.482206 7.726263 -11.499442 0
M  V30 43 H 7.147793 0.131538 -16.046389 0
M  V30 44 H 5.515828 6.407076 -17.076251 0
M  V30 45 H 6.187376 5.716406 -15.504920 0
M  V30 46 H 6.515234 3.321369 -15.242596 0
M  V30 47 H 8.634230 1.904927 -15.669502 0
M  V30 48 H 8.619160 1.539601 -13.978461 0
M  V30 49 H 7.377309 5.458317 -12.546666 0
M  V30 50 H 6.920632 4.479410 -11.222962 0
M  V30 51 H 8.316488 8.257188 -7.070179 0
M  V30 52 H 9.152155 9.769213 -7.091695 0
M  V30 53 H 6.953105 6.511314 -19.028396 0
M  V30 54 H 9.188726 6.593820 -8.980321 0
M  V30 55 H 10.227357 3.583918 -16.736396 0
M  V30 56 H 9.392034 6.466848 -18.772806 0
M  V30 57 H 11.017553 5.724911 -11.894479 0
M  V30 58 H 9.626875 8.169059 -5.091702 0
M  V30 59 H 8.083394 7.696090 -10.648193 0
M  V30 60 H 8.048105 5.334585 -14.611656 0
M  V30 61 H 9.328093 4.172476 -14.685290 0
M  V30 62 H 10.705776 4.436948 -18.963610 0
M  V30 63 H 9.284459 3.454140 -19.271044 0
M  V30 64 H 11.035307 5.369154 -8.175310 0
M  V30 65 H 12.023072 6.859431 -7.926149 0
M  V30 66 H 5.143747 3.918876 -12.298480 0
M  V30 67 H 10.367290 7.768698 -12.807846 0
M  V30 68 H 9.229495 6.521828 -13.294357 0
M  V30 69 H 11.502383 7.505893 -1.596211 0
M  V30 70 H 11.244954 6.909146 -3.232208 0
M  V30 71 H 12.871410 7.255638 -2.670914 0
M  V30 72 H 9.032042 3.256427 -11.200236 0
M  V30 73 H 9.628230 4.106817 -12.585796 0
M  V30 74 H 14.021848 10.105537 -4.260456 0
M  V30 75 H 10.690419 9.207401 -8.721971 0
M  V30 76 H 9.065535 8.950999 -9.259415 0
M  V30 77 H 14.234811 10.143023 -6.706418 0
M  V30 78 H 12.378789 9.651227 -2.488188 0
M  V30 79 H 10.745920 9.483147 -2.963755 0
M  V30 END ATOM
M  V30 BEGIN BOND
M  V30 1 2 5 3
M  V30 2 1 7 1
M  V30 3 2 8 6
M  V30 4 1 9 4
M  V30 5 1 9 7
M  V30 6 1 10 1
M  V30 7 1 12 8
M  V30 8 1 13 5
M  V30 9 1 15 12
M  V30 10 1 16 8
M  V30 11 2 16 14
M  V30 12 1 17 5
M  V30 13 1 18 2
M  V30 14 1 18 11
M  V30 15 1 20 4
M  V30 16 1 21 15
M  V30 17 1 22 7
M  V30 18 1 22 16
M  V30 19 1 23 14
M  V30 20 1 23 15
M  V30 21 1 24 2
M  V30 22 1 24 13
M  V30 23 1 25 12
M  V30 24 2 26 20
M  V30 25 1 27 17
M  V30 26 1 28 1
M  V30 27 1 29 17
M  V30 28 1 29 19
M  V30 29 1 32 10
M  V30 30 1 32 27
M  V30 31 1 34 4
M  V30 32 1 34 20
M  V30 33 1 35 31
M  V30 34 1 36 11
M  V30 35 1 36 13
M  V30 36 1 37 18
M  V30 37 1 37 33
M  V30 38 2 37 35
M  V30 39 1 38 31
M  V30 40 2 38 33
M  V30 41 1 39 30
M  V30 42 1 39 35
M  V30 43 1 1 40 CFG=1
M  V30 44 1 41 3
M  V30 45 1 42 3
M  V30 46 1 4 43 CFG=3
M  V30 47 1 44 6
M  V30 48 1 45 6
M  V30 49 1 7 46 CFG=3
M  V30 50 1 47 9
M  V30 51 1 48 9
M  V30 52 1 49 10
M  V30 53 1 50 10
M  V30 54 1 51 11
M  V30 55 1 52 11
M  V30 56 1 12 53 CFG=1
M  V30 57 1 13 54 CFG=3
M  V30 58 1 55 14
M  V30 59 1 15 56 CFG=1
M  V30 60 1 17 57 CFG=3
M  V30 61 1 18 58 CFG=1
M  V30 62 1 59 19
M  V30 63 1 60 22
M  V30 64 1 61 22
M  V30 65 1 62 23
M  V30 66 1 63 23
M  V30 67 1 64 24
M  V30 68 1 65 24
M  V30 69 1 66 28
M  V30 70 1 67 29
M  V30 71 1 68 29
M  V30 72 1 69 30
M  V30 73 1 70 30
M  V30 74 1 71 30
M  V30 75 1 72 32
M  V30 76 1 73 32
M  V30 77 1 74 31
M  V30 78 1 75 36
M  V30 79 1 76 36
M  V30 80 1 77 38
M  V30 81 1 78 39
M  V30 82 1 79 39
M  V30 END BOND
M  V30 END CTAB
M  END
>  <i_epik_Tot_Q>  (1) 
0

>  <i_epik_Tot_abs_Q>  (1) 
0

>  <i_i_glide_confnum>  (1) 
6114

>  <i_i_glide_lignum>  (1) 
98

>  <i_i_glide_posenum>  (1) 
10

>  <i_i_glide_rotatable_bonds>  (1) 
16

>  <i_lp_mmshare_version>  (1) 
72125

>  <i_m_source_file_index>  (1) 
41

>  <i_f3d_flags>  (1) 
0

>  <num_sample>  (1) 
50

>  <b_lp_Chiralities_Consistent>  (1) 
1

>  <r_epik_Charging_Adjusted_Penalty>  (1) 
0.92388938130089981

>  <r_epik_Ionization_Penalty>  (1) 
0.33440672530639315

>  <r_epik_Ionization_Penalty_Charging>  (1) 
0.3225466834979146

>  <r_epik_Ionization_Penalty_Neutral>  (1) 
0.011860041808478553

>  <r_epik_State_Penalty>  (1) 
0.60134269780298522

>  <r_glide_ring_energy>  (1) 
0

>  <r_i_docking_score>  (1) 
-4.6933120836516462

>  <r_i_glide_ecoul>  (1) 
-1.2914026942026799

>  <r_i_glide_eff_state_penalty>  (1) 
0.60134269780298522

>  <r_i_glide_einternal>  (1) 
27.041736785968681

>  <r_i_glide_emodel>  (1) 
-10.23899631601007

>  <r_i_glide_emodel_strain>  (1) 
3.8129066058970977

>  <r_i_glide_energy>  (1) 
-19.872076749548526

>  <r_i_glide_erotb>  (1) 
0.63692825108646745

>  <r_i_glide_esite>  (1) 
-0.1050275943319785

>  <r_i_glide_evdw>  (1) 
-18.580674055345845

>  <r_i_glide_gscore>  (1) 
-5.2946547814546312

>  <r_i_glide_gscore_strain>  (1) 
0

>  <r_i_glide_hbond>  (1) 
-0.11143957842612899

>  <r_i_glide_ligand_efficiency>  (1) 
-0.12034133547824734

>  <r_i_glide_ligand_efficiency_ln>  (1) 
-1.006379338321107

>  <r_i_glide_ligand_efficiency_sa>  (1) 
-0.40810291394143916

>  <r_i_glide_lipo>  (1) 
-3.3616520199598465

>  <r_i_glide_metal>  (1) 
-0

>  <r_i_glide_rewards>  (1) 
-1.2307197329254507

>  <r_lp_Energy>  (1) 
18.659057999999998

>  <r_lp_tautomer_probability>  (1) 
0.49999999999999867

>  <s_epik_Chemistry_Notes>  (1) 
This compound has an ester and may undergo hydrolysis at high or low pH.

>  <s_epik_cmdline>  (1) 
J2VwaWtfcHl0aG9uJywgJy1waHQnLCAnMS4wJywgJy1waCcsICc3LjQnLCAnLXRuJywgJzgnLCAnLW1hJywgJzUwMCcsICctaW1hZScsICc8aW5maWxlLm1hZT4nLCAnLW9tYWUnLCAnPG91dGZpbGUubWFlPic=

>  <s_epik_input>  (1) 
W0NIMl09QzFbQ0BIXShGKVtDQEhdKEYpW0NIMl1bQ0hdPUMxW0NIMl1bQ0BASF0oW0NIMl1bQ0BASF0yQyg9TylPMilbQ0BIXShbT0hdKVtDSDJdW0NIMl1PW0NAQEhdKFtDSDJdW1NIXSlDKD1bQ0gyXSlbQ0BIXTNbQ0gyXVNbQ0BIXShbQ0gyXVtDSDJdMylDND1OW0NIXT1OW0NAQEhdNFtDSDJdW0NIM10=

>  <s_glide_docking_method>  (1) 
confgen

>  <s_i_glide_gridfile>  (1) 
gpcr_drd2_6luq_protein_autoprepared_prepared

>  <s_lp_Force_Field>  (1) 
S-OPLS

>  <s_lp_Variant>  (1) 
DiffSBDD_40_num_sample_50-1

>  <s_m_source_file>  (1) 
generated__ligand_DiffSBDD_2026-05-06_prepared.sdf

>  <GenAI_Model>  (1) 
DiffSBDD

>  <Protein>  (1) 
generic_title2

$$$$
DiffSBDD_2_num_sample_50
     RDKit          3D

  0  0  0  0  0  0  0  0  0  0999 V3000
M  V30 BEGIN CTAB
M  V30 COUNTS 55 58 0 0 1
M  V30 BEGIN ATOM
M  V30 1 C 9.034780 5.446576 -9.303556 0 CFG=1
M  V30 2 C 9.396665 6.695946 -11.838315 0
M  V30 3 O 11.102374 7.369309 -10.385994 0 CHG=-1
M  V30 4 C 6.862578 2.630096 -13.928785 0
M  V30 5 O 8.107771 2.608380 -18.157883 0
M  V30 6 C 7.776109 1.535264 -17.444122 0
M  V30 7 C 10.490956 8.400277 -6.013582 0
M  V30 8 C 9.073469 3.461282 -17.862011 0
M  V30 9 C 10.846281 6.908552 -6.071289 0
M  V30 10 O 10.133113 5.043335 -16.610389 0
M  V30 11 C 7.434371 1.559235 -16.149233 0
M  V30 12 C 6.365512 0.294481 -14.350119 0
M  V30 13 C 9.149386 4.137178 -16.719447 0
M  V30 14 C 7.525786 5.180214 -11.306793 0
M  V30 15 N 9.084416 6.891810 -9.341590 0 CFG=2 CHG=1
M  V30 16 C 9.805677 7.446996 -10.532866 0 CFG=2
M  V30 17 C 10.843038 6.351182 -7.503294 0
M  V30 18 C 6.332598 1.466083 -13.519779 0
M  V30 19 C 7.298692 6.803590 -13.191953 0
M  V30 20 N 7.937855 6.476148 -11.891664 0
M  V30 21 C 8.234852 3.960367 -15.559889 0
M  V30 22 C 7.105520 5.635789 -14.165665 0
M  V30 23 N 8.233104 5.049266 -14.635761 0
M  V30 24 C 6.882732 0.332388 -15.583953 0
M  V30 25 C 7.506003 2.777444 -15.263168 0
M  V30 26 C 9.432749 6.233939 -8.074033 0 CFG=2
M  V30 27 O 5.969967 5.288274 -14.492312 0
M  V30 28 C 7.642885 5.104897 -9.772328 0
M  V30 29 H 9.840430 4.949034 -9.830343 0
M  V30 30 H 9.930666 5.751381 -11.959740 0
M  V30 31 H 9.726003 7.310913 -12.675769 0
M  V30 32 H 6.834809 3.444154 -13.247812 0
M  V30 33 H 7.689519 0.655891 -18.065987 0
M  V30 34 H 10.635032 8.795028 -5.008745 0
M  V30 35 H 9.451252 8.569448 -6.295957 0
M  V30 36 H 11.120752 8.982791 -6.686926 0
M  V30 37 H 9.750079 3.606552 -18.691631 0
M  V30 38 H 11.834839 6.762786 -5.639628 0
M  V30 39 H 10.162817 6.337843 -5.440807 0
M  V30 40 H 10.256506 5.235478 -15.695895 0
M  V30 41 H 5.957556 -0.630703 -13.974365 0
M  V30 42 H 6.477037 4.993145 -11.543276 0
M  V30 43 H 8.106927 4.369959 -11.748355 0
M  V30 44 H 9.338456 8.428629 -10.624275 0
M  V30 45 H 11.502781 6.969790 -8.098569 0
M  V30 46 H 11.277420 5.354548 -7.490996 0
M  V30 47 H 5.890365 1.403244 -12.536492 0
M  V30 48 H 7.810874 7.628071 -13.688989 0
M  V30 49 H 6.302627 7.189253 -12.969067 0
M  V30 50 H 9.119699 5.477274 -14.424851 0
M  V30 51 H 6.875298 -0.568235 -16.181900 0
M  V30 52 H 8.634521 6.409622 -7.355648 0
M  V30 53 H 7.379167 4.114230 -9.420505 0
M  V30 54 H 6.913882 5.768977 -9.314174 0
M  V30 55 H 8.108921 7.256988 -9.345146 0
M  V30 END ATOM
M  V30 BEGIN BOND
M  V30 1 1 6 5
M  V30 2 1 8 5
M  V30 3 1 9 7
M  V30 4 2 11 6
M  V30 5 2 13 8
M  V30 6 1 13 10
M  V30 7 1 15 1
M  V30 8 1 16 2
M  V30 9 1 16 3
M  V30 10 1 16 15
M  V30 11 1 17 9
M  V30 12 2 18 4
M  V30 13 1 18 12
M  V30 14 1 20 2
M  V30 15 1 20 14
M  V30 16 1 20 19
M  V30 17 1 21 13
M  V30 18 1 22 19
M  V30 19 1 23 21
M  V30 20 1 23 22
M  V30 21 1 24 11
M  V30 22 2 24 12
M  V30 23 1 25 4
M  V30 24 1 25 11
M  V30 25 2 25 21
M  V30 26 1 26 1
M  V30 27 1 26 15
M  V30 28 1 26 17
M  V30 29 2 27 22
M  V30 30 1 28 1
M  V30 31 1 28 14
M  V30 32 1 1 29 CFG=3
M  V30 33 1 30 2
M  V30 34 1 31 2
M  V30 35 1 32 4
M  V30 36 1 33 6
M  V30 37 1 34 7
M  V30 38 1 35 7
M  V30 39 1 36 7
M  V30 40 1 37 8
M  V30 41 1 38 9
M  V30 42 1 39 9
M  V30 43 1 40 10
M  V30 44 1 41 12
M  V30 45 1 42 14
M  V30 46 1 43 14
M  V30 47 1 16 44 CFG=3
M  V30 48 1 45 17
M  V30 49 1 46 17
M  V30 50 1 47 18
M  V30 51 1 48 19
M  V30 52 1 49 19
M  V30 53 1 50 23
M  V30 54 1 51 24
M  V30 55 1 26 52 CFG=1
M  V30 56 1 53 28
M  V30 57 1 54 28
M  V30 58 1 15 55 CFG=1
M  V30 END BOND
M  V30 END CTAB
M  END
>  <i_epik_Tot_Q>  (1) 
0

>  <i_epik_Tot_abs_Q>  (1) 
2

>  <i_i_glide_confnum>  (1) 
8

>  <i_i_glide_lignum>  (1) 
9

>  <i_i_glide_posenum>  (1) 
177

>  <i_i_glide_rotatable_bonds>  (1) 
7

>  <i_lp_mmshare_version>  (1) 
72125

>  <i_m_source_file_index>  (1) 
3

>  <i_f3d_flags>  (1) 
0

>  <num_sample>  (1) 
50

>  <b_lp_Chiralities_Consistent>  (1) 
1

>  <r_epik_Charging_Adjusted_Penalty>  (1) 
1.1352312410036836

>  <r_epik_Ionization_Penalty>  (1) 
1.1482633258778028

>  <r_epik_Ionization_Penalty_Charging>  (1) 
0.01211088635150746

>  <r_epik_Ionization_Penalty_Neutral>  (1) 
1.1361524395262954

>  <r_epik_State_Penalty>  (1) 
1.1231203546521762

>  <r_glide_ring_energy>  (1) 
0

>  <r_i_docking_score>  (1) 
-4.6912829717381408

>  <r_i_glide_ecoul>  (1) 
-10.802423315272065

>  <r_i_glide_eff_state_penalty>  (1) 
1.1231203546521762

>  <r_i_glide_einternal>  (1) 
5.8062197907649775

>  <r_i_glide_emodel>  (1) 
-54.210313838596107

>  <r_i_glide_emodel_strain>  (1) 
1.8572928459134914

>  <r_i_glide_energy>  (1) 
-42.205960132592026

>  <r_i_glide_erotb>  (1) 
0.65461972943922775

>  <r_i_glide_esite>  (1) 
-0.18814750593301199

>  <r_i_glide_evdw>  (1) 
-31.403536817319964

>  <r_i_glide_gscore>  (1) 
-5.814403326390317

>  <r_i_glide_gscore_strain>  (1) 
0

>  <r_i_glide_hbond>  (1) 
-0.090596372120160751

>  <r_i_glide_ligand_efficiency>  (1) 
-0.16754582041921931

>  <r_i_glide_ligand_efficiency_ln>  (1) 
-1.0828858519304794

>  <r_i_glide_ligand_efficiency_sa>  (1) 
-0.50876779056886168

>  <r_i_glide_lipo>  (1) 
-1.6021046673010158

>  <r_i_glide_metal>  (1) 
-0

>  <r_i_glide_rewards>  (1) 
-1.3976341723185488

>  <r_lp_Energy>  (1) 
91.512348000000003

>  <s_epik_Chemistry_Notes>  (1) 
This compound contains an acetal/aminal-like group ( X-CH(R)-Y where X, Y are N, S, or O) that may be acid/base labile, releasing an aldehyde.

>  <s_epik_cmdline>  (1) 
J2VwaWtfcHl0aG9uJywgJy1waHQnLCAnMS4wJywgJy1waCcsICc3LjQnLCAnLXRuJywgJzgnLCAnLW1hJywgJzUwMCcsICctaW1hZScsICc8aW5maWxlLm1hZT4nLCAnLW9tYWUnLCAnPG91dGZpbGUubWFlPic=

>  <s_epik_input>  (1) 
W0NIM11bQ0gyXVtDSDJdW0NIXTFOKFtDQEBIXTEyKVtDQEBIXShbT0hdKVtDSDJdTihbQ0gyXVtDSDJdMilbQ0gyXUMoPU8pW05IXUMoQyhbT0hdKT1bQ0hdT1tDSF09Myk9YyhjMzQpW2NIXVtjSF1bY0hdW2NIXTQ=

>  <s_glide_docking_method>  (1) 
confgen

>  <s_i_glide_gridfile>  (1) 
gpcr_drd2_6luq_protein_autoprepared_prepared

>  <s_lp_Force_Field>  (1) 
S-OPLS

>  <s_lp_Variant>  (1) 
DiffSBDD_2_num_sample_50-4

>  <s_m_source_file>  (1) 
generated__ligand_DiffSBDD_2026-05-06_prepared.sdf

>  <GenAI_Model>  (1) 
DiffSBDD

>  <Protein>  (1) 
generic_title2

$$$$
DiffSBDD_40_num_sample_50
     RDKit          3D

  0  0  0  0  0  0  0  0  0  0999 V3000
M  V30 BEGIN CTAB
M  V30 COUNTS 79 82 0 0 1
M  V30 BEGIN ATOM
M  V30 1 C 8.538553 3.869361 -15.601329 0 CFG=1
M  V30 2 S 12.177966 7.769309 -9.058166 0
M  V30 3 C 8.269290 8.542851 -11.515607 0
M  V30 4 C 6.840400 1.919451 -17.183684 0 CFG=2
M  V30 5 C 8.583153 7.280789 -11.180218 0
M  V30 6 C 8.392549 5.556559 -20.021098 0
M  V30 7 C 7.420611 4.368756 -16.574554 0 CFG=2
M  V30 8 C 7.255888 6.204907 -19.693378 0
M  V30 9 C 7.128653 3.327025 -17.691740 0
M  V30 10 C 9.506643 4.897735 -14.921665 0
M  V30 11 C 10.249227 6.164369 -7.743329 0
M  V30 12 C 6.422251 6.858291 -20.784340 0 CFG=1
M  V30 13 C 9.700732 6.955727 -10.150468 0 CFG=1
M  V30 14 C 5.646595 6.889051 -17.992876 0
M  V30 15 C 4.937432 6.837861 -20.418232 0 CFG=2
M  V30 16 C 6.824464 6.295536 -18.283191 0
M  V30 17 C 7.821848 6.101080 -11.806688 0 CFG=1
M  V30 18 C 11.492059 7.049282 -7.513159 0 CFG=2
M  V30 19 S 6.234846 3.907037 -11.891645 0
M  V30 20 C 7.817816 0.887874 -17.560555 0
M  V30 21 F 4.234967 7.464226 -21.363657 0
M  V30 22 C 7.703659 5.769387 -17.149332 0
M  V30 23 C 4.700672 7.461289 -19.033005 0
M  V30 24 C 10.698229 8.130917 -10.024844 0
M  V30 25 F 6.821443 8.120359 -20.950543 0
M  V30 26 O 8.150225 -0.148704 -16.990445 0
M  V30 27 O 8.167040 5.832710 -13.165523 0
M  V30 28 O 7.917368 3.038916 -14.634247 0
M  V30 29 C 7.479932 4.859774 -10.967872 0
M  V30 30 C 12.215131 6.710199 -2.900076 0
M  V30 31 N 11.434826 9.113572 -4.485470 0
M  V30 32 C 9.380455 5.149256 -13.402825 0
M  V30 33 N 11.434761 9.466157 -6.691686 0
M  V30 34 O 6.760352 0.964098 -18.314068 0
M  V30 35 C 11.431681 7.858619 -5.031770 0
M  V30 36 C 9.185679 6.703406 -8.706331 0
M  V30 37 C 11.434843 8.075338 -6.408027 0
M  V30 38 C 11.434579 9.976072 -5.471472 0
M  V30 39 C 11.434717 6.597949 -4.219088 0
M  V30 40 H 9.184009 3.233026 -16.208738 0
M  V30 41 H 8.772730 9.369299 -11.081335 0
M  V30 42 H 7.490214 8.748259 -12.232601 0
M  V30 43 H 6.026388 1.719868 -16.493195 0
M  V30 44 H 8.713420 5.493134 -21.050336 0
M  V30 45 H 9.010524 5.083461 -19.279287 0
M  V30 46 H 6.517224 4.499540 -15.977651 0
M  V30 47 H 6.273363 3.641582 -18.291965 0
M  V30 48 H 7.976876 3.293274 -18.375171 0
M  V30 49 H 10.529033 4.569159 -15.092790 0
M  V30 50 H 9.503003 5.845899 -15.434472 0
M  V30 51 H 10.586246 5.211346 -8.153186 0
M  V30 52 H 9.790365 5.923676 -6.783629 0
M  V30 53 H 6.578836 6.354034 -21.738988 0
M  V30 54 H 10.230684 6.081380 -10.523709 0
M  V30 55 H 5.334109 6.977064 -16.961538 0
M  V30 56 H 4.585583 5.805527 -20.416174 0
M  V30 57 H 6.837098 6.549410 -11.948418 0
M  V30 58 H 12.234809 6.349301 -7.141440 0
M  V30 59 H 6.031283 2.994278 -10.937476 0
M  V30 60 H 7.508749 6.448336 -16.317291 0
M  V30 61 H 8.751759 5.893262 -17.411658 0
M  V30 62 H 3.678740 7.296140 -18.691491 0
M  V30 63 H 4.848868 8.541142 -19.077579 0
M  V30 64 H 11.029711 8.436373 -11.011789 0
M  V30 65 H 10.225995 8.988677 -9.545703 0
M  V30 66 H 7.467013 3.588541 -14.006095 0
M  V30 67 H 8.355915 4.250179 -10.744468 0
M  V30 68 H 7.006815 5.144216 -10.030172 0
M  V30 69 H 12.195837 5.769511 -2.352880 0
M  V30 70 H 13.258727 6.970072 -3.079735 0
M  V30 71 H 11.788143 7.469269 -2.244447 0
M  V30 72 H 9.431626 4.211461 -12.848708 0
M  V30 73 H 10.212048 5.767288 -13.061412 0
M  V30 74 H 11.438962 9.334927 -3.500786 0
M  V30 75 H 8.794820 7.626796 -8.280692 0
M  V30 76 H 8.357669 6.005239 -8.691182 0
M  V30 77 H 11.435136 11.039975 -5.297859 0
M  V30 78 H 10.406781 6.297688 -4.010740 0
M  V30 79 H 11.849971 5.784022 -4.812006 0
M  V30 END ATOM
M  V30 BEGIN BOND
M  V30 1 2 5 3
M  V30 2 1 7 1
M  V30 3 2 8 6
M  V30 4 1 9 4
M  V30 5 1 9 7
M  V30 6 1 10 1
M  V30 7 1 12 8
M  V30 8 1 13 5
M  V30 9 1 15 12
M  V30 10 1 16 8
M  V30 11 2 16 14
M  V30 12 1 17 5
M  V30 13 1 18 2
M  V30 14 1 18 11
M  V30 15 1 20 4
M  V30 16 1 21 15
M  V30 17 1 22 7
M  V30 18 1 22 16
M  V30 19 1 23 14
M  V30 20 1 23 15
M  V30 21 1 24 2
M  V30 22 1 24 13
M  V30 23 1 25 12
M  V30 24 2 26 20
M  V30 25 1 27 17
M  V30 26 1 28 1
M  V30 27 1 29 17
M  V30 28 1 29 19
M  V30 29 1 32 10
M  V30 30 1 32 27
M  V30 31 1 34 4
M  V30 32 1 34 20
M  V30 33 1 35 31
M  V30 34 1 36 11
M  V30 35 1 36 13
M  V30 36 1 37 18
M  V30 37 1 37 33
M  V30 38 2 37 35
M  V30 39 1 38 31
M  V30 40 2 38 33
M  V30 41 1 39 30
M  V30 42 1 39 35
M  V30 43 1 1 40 CFG=3
M  V30 44 1 41 3
M  V30 45 1 42 3
M  V30 46 1 4 43 CFG=1
M  V30 47 1 44 6
M  V30 48 1 45 6
M  V30 49 1 7 46 CFG=1
M  V30 50 1 47 9
M  V30 51 1 48 9
M  V30 52 1 49 10
M  V30 53 1 50 10
M  V30 54 1 51 11
M  V30 55 1 52 11
M  V30 56 1 12 53 CFG=3
M  V30 57 1 13 54 CFG=3
M  V30 58 1 55 14
M  V30 59 1 15 56 CFG=1
M  V30 60 1 17 57 CFG=3
M  V30 61 1 18 58 CFG=1
M  V30 62 1 59 19
M  V30 63 1 60 22
M  V30 64 1 61 22
M  V30 65 1 62 23
M  V30 66 1 63 23
M  V30 67 1 64 24
M  V30 68 1 65 24
M  V30 69 1 66 28
M  V30 70 1 67 29
M  V30 71 1 68 29
M  V30 72 1 69 30
M  V30 73 1 70 30
M  V30 74 1 71 30
M  V30 75 1 72 32
M  V30 76 1 73 32
M  V30 77 1 74 31
M  V30 78 1 75 36
M  V30 79 1 76 36
M  V30 80 1 77 38
M  V30 81 1 78 39
M  V30 82 1 79 39
M  V30 END BOND
M  V30 END CTAB
M  END
>  <i_epik_Tot_Q>  (1) 
0

>  <i_epik_Tot_abs_Q>  (1) 
0

>  <i_i_glide_confnum>  (1) 
581

>  <i_i_glide_lignum>  (1) 
98

>  <i_i_glide_posenum>  (1) 
302

>  <i_i_glide_rotatable_bonds>  (1) 
16

>  <i_lp_mmshare_version>  (1) 
72125

>  <i_m_source_file_index>  (1) 
41

>  <i_f3d_flags>  (1) 
0

>  <num_sample>  (1) 
50

>  <b_lp_Chiralities_Consistent>  (1) 
1

>  <r_epik_Charging_Adjusted_Penalty>  (1) 
0.92388938130089981

>  <r_epik_Ionization_Penalty>  (1) 
0.33440672530639315

>  <r_epik_Ionization_Penalty_Charging>  (1) 
0.3225466834979146

>  <r_epik_Ionization_Penalty_Neutral>  (1) 
0.011860041808478553

>  <r_epik_State_Penalty>  (1) 
0.60134269780298522

>  <r_glide_ring_energy>  (1) 
0

>  <r_i_docking_score>  (1) 
-4.6833321683859328

>  <r_i_glide_ecoul>  (1) 
-1.5657615106414726

>  <r_i_glide_eff_state_penalty>  (1) 
0.60134269780298522

>  <r_i_glide_einternal>  (1) 
25.75007554906685

>  <r_i_glide_emodel>  (1) 
-28.978669663296124

>  <r_i_glide_emodel_strain>  (1) 
6.5390973526417042

>  <r_i_glide_energy>  (1) 
-40.706625294083935

>  <r_i_glide_erotb>  (1) 
0.63692825108646745

>  <r_i_glide_esite>  (1) 
0

>  <r_i_glide_evdw>  (1) 
-39.140863783442462

>  <r_i_glide_gscore>  (1) 
-5.2846748661889178

>  <r_i_glide_gscore_strain>  (1) 
0.63477433816042605

>  <r_i_glide_hbond>  (1) 
0

>  <r_i_glide_ligand_efficiency>  (1) 
-0.12008544021502392

>  <r_i_glide_ligand_efficiency_ln>  (1) 
-1.0042393611913965

>  <r_i_glide_ligand_efficiency_sa>  (1) 
-0.40723511899658277

>  <r_i_glide_lipo>  (1) 
-2.7366037474565825

>  <r_i_glide_metal>  (1) 
-0

>  <r_i_glide_rewards>  (1) 
-1.6278662922108846

>  <r_lp_Energy>  (1) 
18.659057999999998

>  <r_lp_tautomer_probability>  (1) 
0.49999999999999867

>  <s_epik_Chemistry_Notes>  (1) 
This compound has an ester and may undergo hydrolysis at high or low pH.

>  <s_epik_cmdline>  (1) 
J2VwaWtfcHl0aG9uJywgJy1waHQnLCAnMS4wJywgJy1waCcsICc3LjQnLCAnLXRuJywgJzgnLCAnLW1hJywgJzUwMCcsICctaW1hZScsICc8aW5maWxlLm1hZT4nLCAnLW9tYWUnLCAnPG91dGZpbGUubWFlPic=

>  <s_epik_input>  (1) 
W0NIMl09QzFbQ0BIXShGKVtDQEhdKEYpW0NIMl1bQ0hdPUMxW0NIMl1bQ0BASF0oW0NIMl1bQ0BASF0yQyg9TylPMilbQ0BIXShbT0hdKVtDSDJdW0NIMl1PW0NAQEhdKFtDSDJdW1NIXSlDKD1bQ0gyXSlbQ0BIXTNbQ0gyXVNbQ0BIXShbQ0gyXVtDSDJdMylDND1OW0NIXT1OW0NAQEhdNFtDSDJdW0NIM10=

>  <s_glide_docking_method>  (1) 
confgen

>  <s_i_glide_gridfile>  (1) 
gpcr_drd2_6luq_protein_autoprepared_prepared

>  <s_lp_Force_Field>  (1) 
S-OPLS

>  <s_lp_Variant>  (1) 
DiffSBDD_40_num_sample_50-1

>  <s_m_source_file>  (1) 
generated__ligand_DiffSBDD_2026-05-06_prepared.sdf

>  <GenAI_Model>  (1) 
DiffSBDD

>  <Protein>  (1) 
generic_title2

$$$$
DiffSBDD_6_num_sample_50
     RDKit          3D

  0  0  0  0  0  0  0  0  0  0999 V3000
M  V30 BEGIN CTAB
M  V30 COUNTS 43 43 0 0 1
M  V30 BEGIN ATOM
M  V30 1 C 6.517886 6.057287 -17.532915 0
M  V30 2 C 4.951016 7.230331 -20.644791 0
M  V30 3 O 5.978333 0.569309 -14.093217 0
M  V30 4 C 8.740343 5.722937 -11.269856 0 CFG=1
M  V30 5 O 7.909465 2.045367 -15.428982 0
M  V30 6 C 6.787216 1.523744 -13.429930 0
M  V30 7 O 7.465341 5.309889 -15.486806 0
M  V30 8 C 9.330666 5.788829 -9.844621 0
M  V30 9 C 5.234598 6.933501 -19.206486 0
M  V30 10 O 8.588482 4.879861 -17.437367 0
M  V30 11 C 7.947730 3.809698 -13.747551 0 CFG=2
M  V30 12 C 7.629836 5.356381 -16.825735 0
M  V30 13 N 7.654465 4.733515 -11.425061 0
M  V30 14 C 6.619352 4.736855 -10.389651 0
M  V30 15 N 6.404974 6.255225 -18.843475 0
M  V30 16 C 7.144427 2.659348 -14.412352 0 CFG=1
M  V30 17 F 9.673638 4.574981 -9.412975 0
M  V30 18 S 5.182624 6.718638 -16.619504 0
M  V30 19 F 10.412083 6.569251 -9.837417 0
M  V30 20 O 5.703160 5.769302 -10.691664 0
M  V30 21 C 4.452178 7.253449 -18.115025 0
M  V30 22 O 8.234825 6.999736 -11.607669 0
M  V30 23 C 7.074923 4.631064 -12.769074 0
M  V30 24 N 8.546192 4.690379 -14.751615 0
M  V30 25 H 4.236698 8.047261 -20.748107 0
M  V30 26 H 5.857993 7.518792 -21.177035 0
M  V30 27 H 4.532947 6.359028 -21.148678 0
M  V30 28 H 5.808060 -0.162153 -13.513682 0
M  V30 29 H 9.529224 5.467623 -11.978416 0
M  V30 30 H 7.446755 1.252046 -15.665731 0
M  V30 31 H 7.687325 1.040850 -13.045126 0
M  V30 32 H 6.235088 1.900605 -12.569206 0
M  V30 33 H 8.640907 6.211233 -9.112507 0
M  V30 34 H 8.777148 3.359659 -13.199934 0
M  V30 35 H 7.034839 4.834941 -9.388132 0
M  V30 36 H 6.084894 3.786561 -10.415239 0
M  V30 37 H 6.234892 3.060340 -14.857845 0
M  V30 38 H 5.977223 6.540825 -10.201398 0
M  V30 39 H 3.503607 7.769283 -18.100988 0
M  V30 40 H 7.803925 7.369314 -10.837323 0
M  V30 41 H 6.108060 4.134106 -12.686630 0
M  V30 42 H 6.831878 5.622817 -13.151433 0
M  V30 43 H 9.003930 4.107468 -15.443770 0
M  V30 END ATOM
M  V30 BEGIN BOND
M  V30 1 1 6 3
M  V30 2 1 8 4
M  V30 3 1 9 2
M  V30 4 1 12 1
M  V30 5 1 12 7
M  V30 6 2 12 10
M  V30 7 1 13 4
M  V30 8 1 14 13
M  V30 9 2 15 1
M  V30 10 1 15 9
M  V30 11 1 16 5
M  V30 12 1 16 6
M  V30 13 1 16 11
M  V30 14 1 17 8
M  V30 15 1 18 1
M  V30 16 1 19 8
M  V30 17 1 20 14
M  V30 18 2 21 9
M  V30 19 1 21 18
M  V30 20 1 22 4
M  V30 21 1 23 11
M  V30 22 1 23 13
M  V30 23 1 24 7
M  V30 24 1 24 11
M  V30 25 1 25 2
M  V30 26 1 26 2
M  V30 27 1 27 2
M  V30 28 1 28 3
M  V30 29 1 4 29 CFG=3
M  V30 30 1 30 5
M  V30 31 1 31 6
M  V30 32 1 32 6
M  V30 33 1 33 8
M  V30 34 1 11 34 CFG=1
M  V30 35 1 35 14
M  V30 36 1 36 14
M  V30 37 1 16 37 CFG=3
M  V30 38 1 38 20
M  V30 39 1 39 21
M  V30 40 1 40 22
M  V30 41 1 41 23
M  V30 42 1 42 23
M  V30 43 1 43 24
M  V30 END BOND
M  V30 END CTAB
M  END
>  <i_epik_Tot_Q>  (1) 
0

>  <i_epik_Tot_abs_Q>  (1) 
0

>  <i_i_glide_confnum>  (1) 
1442

>  <i_i_glide_lignum>  (1) 
15

>  <i_i_glide_posenum>  (1) 
186

>  <i_i_glide_rotatable_bonds>  (1) 
15

>  <i_lp_mmshare_version>  (1) 
72125

>  <i_m_source_file_index>  (1) 
7

>  <i_f3d_flags>  (1) 
0

>  <num_sample>  (1) 
50

>  <b_lp_Chiralities_Consistent>  (1) 
1

>  <r_epik_Charging_Adjusted_Penalty>  (1) 
0

>  <r_epik_Ionization_Penalty>  (1) 
3.5581637296787179e-06

>  <r_epik_Ionization_Penalty_Charging>  (1) 
0

>  <r_epik_Ionization_Penalty_Neutral>  (1) 
3.5581637296787179e-06

>  <r_epik_State_Penalty>  (1) 
-0

>  <r_glide_ring_energy>  (1) 
0

>  <r_i_docking_score>  (1) 
-4.680804404174661

>  <r_i_glide_ecoul>  (1) 
-9.0911775834669495

>  <r_i_glide_eff_state_penalty>  (1) 
-0

>  <r_i_glide_einternal>  (1) 
17.59943063147476

>  <r_i_glide_emodel>  (1) 
-42.099205098185855

>  <r_i_glide_emodel_strain>  (1) 
0.3788735324078516

>  <r_i_glide_energy>  (1) 
-37.521096673420807

>  <r_i_glide_erotb>  (1) 
1.3996290448132942

>  <r_i_glide_esite>  (1) 
-0.13804702111402828

>  <r_i_glide_evdw>  (1) 
-28.429919089953856

>  <r_i_glide_gscore>  (1) 
-4.680804404174661

>  <r_i_glide_gscore_strain>  (1) 
0

>  <r_i_glide_hbond>  (1) 
-0.30399999999999999

>  <r_i_glide_ligand_efficiency>  (1) 
-0.19503351684061088

>  <r_i_glide_ligand_efficiency_ln>  (1) 
-1.1203312820373228

>  <r_i_glide_ligand_efficiency_sa>  (1) 
-0.5625740117178275

>  <r_i_glide_lipo>  (1) 
-1.6047628746750429

>  <r_i_glide_metal>  (1) 
-0

>  <r_i_glide_rewards>  (1) 
-1.248450961181149

>  <r_lp_Energy>  (1) 
11.251940999999999

>  <r_lp_tautomer_probability>  (1) 
1

>  <s_epik_Chemistry_Notes>  (1) 
This compound contains an acetal/aminal-like group ( X-CH(R)-Y where X, Y are N, S, or O) that may be acid/base labile, releasing an aldehyde. This compound has a N-S or N-O group and may undergo hydrolysis at high or low pH.

>  <s_epik_cmdline>  (1) 
J2VwaWtfcHl0aG9uJywgJy1waHQnLCAnMS4wJywgJy1waCcsICc3LjQnLCAnLXRuJywgJzgnLCAnLW1hJywgJzUwMCcsICctaW1hZScsICc8aW5maWxlLm1hZT4nLCAnLW9tYWUnLCAnPG91dGZpbGUubWFlPic=

>  <s_epik_input>  (1) 
czFbY0hdYyhbQ0gzXSluYzFDKD1PKU9bTkhdW0NASF0oW0NAQEhdKFtPSF0pW0NIMl1bT0hdKVtDSDJdTihbQ0BIXShbQ0hdKEYpRilbT0hdKVtDSDJdW09IXQ==

>  <s_glide_docking_method>  (1) 
confgen

>  <s_i_glide_gridfile>  (1) 
gpcr_drd2_6luq_protein_autoprepared_prepared

>  <s_lp_Force_Field>  (1) 
S-OPLS

>  <s_lp_Variant>  (1) 
DiffSBDD_6_num_sample_50-1

>  <s_m_source_file>  (1) 
generated__ligand_DiffSBDD_2026-05-06_prepared.sdf

>  <GenAI_Model>  (1) 
DiffSBDD

>  <Protein>  (1) 
generic_title2

$$$$
DiffSBDD_42_num_sample_50
     RDKit          3D

  0  0  0  0  0  0  0  0  0  0999 V3000
M  V30 BEGIN CTAB
M  V30 COUNTS 62 65 0 0 1
M  V30 BEGIN ATOM
M  V30 1 C 8.634818 1.388353 -21.736516 0 CFG=2
M  V30 2 S 5.768056 8.486891 -21.766222 0
M  V30 3 C 8.846729 4.860614 -13.414926 0
M  V30 4 O 4.723374 7.683380 -18.798519 0
M  V30 5 C 7.392373 0.645434 -21.212153 0
M  V30 6 O 4.202323 8.866870 -21.207396 0
M  V30 7 O 6.761398 9.433804 -21.091667 0
M  V30 8 C 6.764125 5.659489 -12.400520 0
M  V30 9 C 7.444145 5.445498 -19.895683 0 CFG=2
M  V30 10 N 7.020940 5.718965 -14.873533 0
M  V30 11 O 5.930254 6.897556 -21.117490 0
M  V30 12 C 5.346334 1.225633 -19.823425 0
M  V30 13 C 7.238255 2.866913 -20.348860 0 CFG=1
M  V30 14 F 9.072612 4.569306 -9.762877 0
M  V30 15 C 5.834800 6.402164 -15.103606 0
M  V30 16 C 5.570493 2.116337 -22.171158 0
M  V30 17 C 8.198311 5.379519 -18.561811 0
M  V30 18 C 8.478640 2.844052 -21.257243 0
M  V30 19 N 6.096838 6.421458 -17.486411 0
M  V30 20 C 5.401222 6.758784 -16.316606 0
M  V30 21 C 8.575158 4.835791 -10.992277 0
M  V30 22 C 7.916595 5.368168 -15.984215 0
M  V30 23 C 6.655776 6.756722 -19.895925 0 CFG=1
M  V30 24 C 7.541011 5.410754 -13.568797 0
M  V30 25 C 7.284859 5.369287 -11.125369 0
M  V30 26 C 7.227223 5.457007 -17.376420 0 CFG=2
M  V30 27 C 6.537680 4.237364 -20.229400 0
M  V30 28 F 8.604835 1.384091 -23.070310 0
M  V30 29 C 9.955660 0.738301 -21.299492 0
M  V30 30 C 5.728184 6.978782 -18.677484 0
M  V30 31 C 6.343875 1.723276 -20.886430 0
M  V30 32 C 9.351659 4.579509 -12.132331 0
M  V30 33 H 9.467959 4.662830 -14.271526 0
M  V30 34 H 7.653887 0.111534 -20.297119 0
M  V30 35 H 7.024993 -0.104138 -21.914720 0
M  V30 36 H 4.146376 8.569510 -20.305094 0
M  V30 37 H 5.774961 6.069351 -12.472209 0
M  V30 38 H 8.190621 5.522335 -20.686969 0
M  V30 39 H 5.850084 0.914972 -18.907506 0
M  V30 40 H 4.634988 2.005081 -19.555265 0
M  V30 41 H 4.774078 0.371702 -20.187793 0
M  V30 42 H 7.574476 2.579712 -19.350853 0
M  V30 43 H 5.294173 6.671859 -14.220477 0
M  V30 44 H 6.227933 2.515085 -22.943237 0
M  V30 45 H 5.049124 1.266516 -22.606783 0
M  V30 46 H 4.809620 2.869742 -21.975696 0
M  V30 47 H 8.905280 6.208407 -18.502395 0
M  V30 48 H 8.798301 4.471175 -18.502536 0
M  V30 49 H 8.328515 3.502435 -22.114261 0
M  V30 50 H 9.363162 3.206975 -20.732692 0
M  V30 51 H 4.498805 7.332080 -16.478241 0
M  V30 52 H 8.784638 6.026741 -15.955196 0
M  V30 53 H 8.269148 4.340973 -15.885354 0
M  V30 54 H 7.407578 7.543621 -19.845340 0
M  V30 55 H 6.690311 5.565222 -10.244117 0
M  V30 56 H 6.679838 4.514723 -17.423631 0
M  V30 57 H 5.718426 4.162448 -19.514441 0
M  V30 58 H 6.068317 4.466064 -21.183390 0
M  V30 59 H 10.052429 0.727409 -20.213423 0
M  V30 60 H 10.020602 -0.291916 -21.650495 0
M  V30 61 H 10.810535 1.280522 -21.704337 0
M  V30 62 H 10.342281 4.169315 -12.024739 0
M  V30 END ATOM
M  V30 BEGIN BOND
M  V30 1 1 5 1
M  V30 2 1 2 6 CFG=1
M  V30 3 2 7 2
M  V30 4 1 11 2
M  V30 5 1 15 10
M  V30 6 1 17 9
M  V30 7 1 18 1
M  V30 8 1 18 13
M  V30 9 2 20 15
M  V30 10 1 20 19
M  V30 11 1 21 14
M  V30 12 1 22 10
M  V30 13 1 23 9
M  V30 14 1 23 11
M  V30 15 2 24 3
M  V30 16 1 24 8
M  V30 17 1 24 10
M  V30 18 2 25 8
M  V30 19 1 25 21
M  V30 20 1 26 17
M  V30 21 1 26 19
M  V30 22 1 26 22
M  V30 23 1 27 9
M  V30 24 1 27 13
M  V30 25 1 1 28 CFG=3
M  V30 26 1 29 1
M  V30 27 2 30 4
M  V30 28 1 30 19
M  V30 29 1 30 23
M  V30 30 1 31 5
M  V30 31 1 31 12
M  V30 32 1 31 13
M  V30 33 1 31 16
M  V30 34 1 32 3
M  V30 35 2 32 21
M  V30 36 1 33 3
M  V30 37 1 34 5
M  V30 38 1 35 5
M  V30 39 1 36 6
M  V30 40 1 37 8
M  V30 41 1 9 38 CFG=3
M  V30 42 1 39 12
M  V30 43 1 40 12
M  V30 44 1 41 12
M  V30 45 1 13 42 CFG=1
M  V30 46 1 43 15
M  V30 47 1 44 16
M  V30 48 1 45 16
M  V30 49 1 46 16
M  V30 50 1 47 17
M  V30 51 1 48 17
M  V30 52 1 49 18
M  V30 53 1 50 18
M  V30 54 1 51 20
M  V30 55 1 52 22
M  V30 56 1 53 22
M  V30 57 1 23 54 CFG=3
M  V30 58 1 55 25
M  V30 59 1 26 56 CFG=3
M  V30 60 1 57 27
M  V30 61 1 58 27
M  V30 62 1 59 29
M  V30 63 1 60 29
M  V30 64 1 61 29
M  V30 65 1 62 32
M  V30 END BOND
M  V30 END CTAB
M  END
>  <i_epik_Tot_Q>  (1) 
0

>  <i_epik_Tot_abs_Q>  (1) 
0

>  <i_i_glide_confnum>  (1) 
302

>  <i_i_glide_lignum>  (1) 
105

>  <i_i_glide_posenum>  (1) 
229

>  <i_i_glide_rotatable_bonds>  (1) 
6

>  <i_lp_mmshare_version>  (1) 
72125

>  <i_m_source_file_index>  (1) 
43

>  <i_f3d_flags>  (1) 
0

>  <num_sample>  (1) 
50

>  <b_lp_Chiralities_Consistent>  (1) 
1

>  <r_epik_Charging_Adjusted_Penalty>  (1) 
7.4277235651080948e-06

>  <r_epik_Ionization_Penalty>  (1) 
7.4296713957726515e-06

>  <r_epik_Ionization_Penalty_Charging>  (1) 
7.4277235651080948e-06

>  <r_epik_Ionization_Penalty_Neutral>  (1) 
1.9478306645570326e-09

>  <r_epik_State_Penalty>  (1) 
-0

>  <r_glide_ring_energy>  (1) 
0

>  <r_i_docking_score>  (1) 
-4.6703693653042126

>  <r_i_glide_ecoul>  (1) 
-2.1999846184917189

>  <r_i_glide_eff_state_penalty>  (1) 
-0

>  <r_i_glide_einternal>  (1) 
1.0035265663214581

>  <r_i_glide_emodel>  (1) 
-39.105789275205247

>  <r_i_glide_emodel_strain>  (1) 
1.3724141185379182

>  <r_i_glide_energy>  (1) 
-34.121643813799693

>  <r_i_glide_erotb>  (1) 
0.45981395595686525

>  <r_i_glide_esite>  (1) 
0

>  <r_i_glide_evdw>  (1) 
-31.921659195307978

>  <r_i_glide_gscore>  (1) 
-4.6703693653042126

>  <r_i_glide_gscore_strain>  (1) 
0

>  <r_i_glide_hbond>  (1) 
0

>  <r_i_glide_ligand_efficiency>  (1) 
-0.14594904266575665

>  <r_i_glide_ligand_efficiency_ln>  (1) 
-1.0458230103522677

>  <r_i_glide_ligand_efficiency_sa>  (1) 
-0.46335932772274752

>  <r_i_glide_lipo>  (1) 
-1.5211610157077478

>  <r_i_glide_metal>  (1) 
-0

>  <r_i_glide_rewards>  (1) 
-1.6829416530141734

>  <r_lp_Energy>  (1) 
34.324670999999995

>  <r_lp_tautomer_probability>  (1) 
1

>  <s_epik_Chemistry_Notes>  (1) 
This compound has an imine and may undergo hydrolysis.

>  <s_epik_cmdline>  (1) 
J2VwaWtfcHl0aG9uJywgJy1waHQnLCAnMS4wJywgJy1waCcsICc3LjQnLCAnLXRuJywgJzgnLCAnLW1hJywgJzUwMCcsICctaW1hZScsICc8aW5maWxlLm1hZT4nLCAnLW9tYWUnLCAnPG91dGZpbGUubWFlPic=

>  <s_epik_input>  (1) 
RltDQF0xKFtDSDNdKVtDSDJdQyhbQ0gzXSkoW0NIM10pW0NAQEhdKFtDSDJdMSlbQ0gyXVtDQEBIXShbQ0BIXShDMj1PKU9TKD1PKVtPSF0pW0NIMl1bQ0BIXShOMjMpW0NIMl1OKFtDSF09W0NIXTMpYyhbY0hdW2NIXTQpW2NIXVtjSF1jNEY=

>  <s_glide_docking_method>  (1) 
confgen

>  <s_i_glide_gridfile>  (1) 
gpcr_drd2_6luq_protein_autoprepared_prepared

>  <s_lp_Force_Field>  (1) 
S-OPLS

>  <s_lp_Variant>  (1) 
DiffSBDD_42_num_sample_50-1

>  <s_m_source_file>  (1) 
generated__ligand_DiffSBDD_2026-05-06_prepared.sdf

>  <GenAI_Model>  (1) 
DiffSBDD

>  <Protein>  (1) 
generic_title2

$$$$
DiffSBDD_38_num_sample_50
     RDKit          3D

  0  0  0  0  0  0  0  0  0  0999 V3000
M  V30 BEGIN CTAB
M  V30 COUNTS 60 62 0 0 1
M  V30 BEGIN ATOM
M  V30 1 C 11.901359 6.257667 -18.256666 0
M  V30 2 O 10.642796 7.128266 -20.111121 0
M  V30 3 S 6.637038 5.178068 -18.251005 0
M  V30 4 F 11.027462 5.900686 -7.641583 0
M  V30 5 C 9.225150 5.298015 -9.592730 0 CFG=1
M  V30 6 C 12.349464 3.917765 -19.259128 0
M  V30 7 C 9.957412 7.382980 -10.733348 0
M  V30 8 C 8.240437 5.769475 -14.523258 0
M  V30 9 C 12.265721 4.771160 -17.976914 0 CFG=2
M  V30 10 C 7.701715 5.366384 -16.947131 0
M  V30 11 N 9.521734 5.817029 -18.661304 0
M  V30 12 C 8.589861 5.772098 -11.926109 0
M  V30 13 C 5.873001 5.895574 -15.331623 0
M  V30 14 C 10.624137 6.445117 -19.091123 0
M  V30 15 F 12.034639 7.369962 -8.822781 0
M  V30 16 O 9.331014 2.926291 -17.092043 0
M  V30 17 C 7.797028 5.196772 -13.128672 0 CFG=2
M  V30 18 O 8.636388 4.919906 -10.831032 0
M  V30 19 C 8.009560 3.666153 -13.164569 0
M  V30 20 O 11.061391 8.969323 -7.066128 0
M  V30 21 C 9.218308 6.966698 -11.891959 0
M  V30 22 N 9.034932 8.003998 -7.091473 0
M  V30 23 C 6.308674 5.519363 -12.876303 0
M  V30 24 C 9.905828 4.014307 -17.091500 0
M  V30 25 C 10.310243 8.077979 -7.459137 0
M  V30 26 C 11.423847 4.090447 -16.864185 0
M  V30 27 C 9.989651 6.619756 -9.638767 0
M  V30 28 C 9.227634 5.373288 -17.287074 0 CFG=2
M  V30 29 N 7.280225 5.584905 -15.636782 0
M  V30 30 C 5.434836 5.149778 -14.073238 0
M  V30 31 N 8.234831 5.369205 -8.571386 0
M  V30 32 C 10.828558 6.980256 -8.401486 0
M  V30 33 H 11.834142 6.817757 -17.323384 0
M  V30 34 H 12.720856 6.720337 -18.808290 0
M  V30 35 H 9.924920 4.502802 -9.339826 0
M  V30 36 H 11.373403 3.767002 -19.721939 0
M  V30 37 H 12.995491 4.390396 -19.999909 0
M  V30 38 H 12.762711 2.931687 -19.046362 0
M  V30 39 H 10.511031 8.309676 -10.756566 0
M  V30 40 H 8.234754 6.852949 -14.436257 0
M  V30 41 H 9.254800 5.435070 -14.729012 0
M  V30 42 H 13.283277 4.798590 -17.584287 0
M  V30 43 H 8.716145 5.861045 -19.270841 0
M  V30 44 H 5.800083 6.970308 -15.160963 0
M  V30 45 H 5.148834 5.682801 -16.112830 0
M  V30 46 H 7.605361 3.210211 -14.068025 0
M  V30 47 H 9.071806 3.424107 -13.131457 0
M  V30 48 H 7.540495 3.172690 -12.312754 0
M  V30 49 H 9.181982 7.614885 -12.747215 0
M  V30 50 H 8.648899 8.697318 -6.472936 0
M  V30 51 H 8.447890 7.252114 -7.442962 0
M  V30 52 H 5.952975 5.003021 -11.983808 0
M  V30 53 H 6.190207 6.584106 -12.670872 0
M  V30 54 H 11.579762 4.620373 -15.922535 0
M  V30 55 H 9.708494 6.104223 -16.640125 0
M  V30 56 H 4.388907 5.369480 -13.891875 0
M  V30 57 H 5.475573 4.076389 -14.244490 0
M  V30 58 H 7.562793 6.101696 -8.801612 0
M  V30 59 H 7.687992 4.520156 -8.545095 0
M  V30 60 H 11.801924 3.081800 -16.696483 0
M  V30 END ATOM
M  V30 BEGIN BOND
M  V30 1 1 9 1
M  V30 2 1 9 6
M  V30 3 2 10 3
M  V30 4 1 14 1
M  V30 5 2 14 2
M  V30 6 1 14 11
M  V30 7 1 17 8
M  V30 8 1 17 12
M  V30 9 1 18 5
M  V30 10 1 18 12
M  V30 11 1 17 19 CFG=3
M  V30 12 1 21 7
M  V30 13 2 21 12
M  V30 14 1 23 17
M  V30 15 2 24 16
M  V30 16 2 25 20
M  V30 17 1 25 22
M  V30 18 1 26 9
M  V30 19 1 26 24
M  V30 20 1 27 5
M  V30 21 2 27 7
M  V30 22 1 28 10
M  V30 23 1 28 11
M  V30 24 1 28 24
M  V30 25 1 29 8
M  V30 26 1 29 10
M  V30 27 1 29 13
M  V30 28 1 30 13
M  V30 29 1 30 23
M  V30 30 1 31 5
M  V30 31 1 32 4
M  V30 32 1 32 15
M  V30 33 1 32 25
M  V30 34 1 32 27
M  V30 35 1 33 1
M  V30 36 1 34 1
M  V30 37 1 5 35 CFG=1
M  V30 38 1 36 6
M  V30 39 1 37 6
M  V30 40 1 38 6
M  V30 41 1 39 7
M  V30 42 1 40 8
M  V30 43 1 41 8
M  V30 44 1 9 42 CFG=1
M  V30 45 1 43 11
M  V30 46 1 44 13
M  V30 47 1 45 13
M  V30 48 1 46 19
M  V30 49 1 47 19
M  V30 50 1 48 19
M  V30 51 1 49 21
M  V30 52 1 50 22
M  V30 53 1 51 22
M  V30 54 1 52 23
M  V30 55 1 53 23
M  V30 56 1 54 26
M  V30 57 1 28 55 CFG=1
M  V30 58 1 56 30
M  V30 59 1 57 30
M  V30 60 1 58 31
M  V30 61 1 59 31
M  V30 62 1 60 26
M  V30 END BOND
M  V30 END CTAB
M  END
>  <i_epik_Tot_Q>  (1) 
0

>  <i_epik_Tot_abs_Q>  (1) 
0

>  <i_i_glide_confnum>  (1) 
34

>  <i_i_glide_lignum>  (1) 
95

>  <i_i_glide_posenum>  (1) 
340

>  <i_i_glide_rotatable_bonds>  (1) 
5

>  <i_lp_mmshare_version>  (1) 
72125

>  <i_m_source_file_index>  (1) 
39

>  <i_f3d_flags>  (1) 
0

>  <num_sample>  (1) 
50

>  <b_lp_Chiralities_Consistent>  (1) 
1

>  <r_epik_Charging_Adjusted_Penalty>  (1) 
0.0043173356697657605

>  <r_epik_Ionization_Penalty>  (1) 
2.5101429145755949

>  <r_epik_Ionization_Penalty_Charging>  (1) 
0

>  <r_epik_Ionization_Penalty_Neutral>  (1) 
2.5101429145755949

>  <r_epik_State_Penalty>  (1) 
0.0043173356697657605

>  <r_glide_ring_energy>  (1) 
0.02445303134611947

>  <r_i_docking_score>  (1) 
-4.6565211198637622

>  <r_i_glide_ecoul>  (1) 
-4.5822051273359978

>  <r_i_glide_eff_state_penalty>  (1) 
0.0043173356697657605

>  <r_i_glide_einternal>  (1) 
2.2281415062270469

>  <r_i_glide_emodel>  (1) 
-48.482053870380014

>  <r_i_glide_emodel_strain>  (1) 
0.90437560224751223

>  <r_i_glide_energy>  (1) 
-38.131544625357449

>  <r_i_glide_erotb>  (1) 
0.36503894659470715

>  <r_i_glide_esite>  (1) 
-0.10045099973055167

>  <r_i_glide_evdw>  (1) 
-33.549339498021453

>  <r_i_glide_gscore>  (1) 
-4.6608384555335283

>  <r_i_glide_gscore_strain>  (1) 
0

>  <r_i_glide_hbond>  (1) 
-0.23625984364753883

>  <r_i_glide_ligand_efficiency>  (1) 
-0.14551628499574257

>  <r_i_glide_ligand_efficiency_ln>  (1) 
-1.0427220107092372

>  <r_i_glide_ligand_efficiency_sa>  (1) 
-0.46198540776149222

>  <r_i_glide_lipo>  (1) 
-0.6907120039607535

>  <r_i_glide_metal>  (1) 
-0

>  <r_i_glide_rewards>  (1) 
-1.6336568107879192

>  <r_lp_Energy>  (1) 
66.989650999999995

>  <r_lp_tautomer_probability>  (1) 
0.99999998000000001

>  <s_epik_Chemistry_Notes>  (1) 
This compound contains an acetal/aminal-like group ( X-CH(R)-Y where X, Y are N, S, or O) that may be acid/base labile, releasing an aldehyde.

>  <s_epik_cmdline>  (1) 
J2VwaWtfcHl0aG9uJywgJy1waHQnLCAnMS4wJywgJy1waCcsICc3LjQnLCAnLXRuJywgJzgnLCAnLW1hJywgJzUwMCcsICctaW1hZScsICc8aW5maWxlLm1hZT4nLCAnLW9tYWUnLCAnPG91dGZpbGUubWFlPic=

>  <s_epik_input>  (1) 
W0NIM11bQ0BASF0xW0NIMl1DKD1PKVtOSF1bQ0BIXShDKD1PKVtDSDJdMSlDKD1TKU4oW0NIMl1bQ0gyXVtDSDJdMilbQ0gyXVtDQEBdMihbQ0gzXSlDKE9bQ0BASF0zW05IMl0pPVtDSF1bQ0hdPUMzQyhGKShGKUMoPU8pW05IMl0=

>  <s_glide_docking_method>  (1) 
confgen

>  <s_i_glide_gridfile>  (1) 
gpcr_drd2_6luq_protein_autoprepared_prepared

>  <s_lp_Force_Field>  (1) 
S-OPLS

>  <s_lp_Variant>  (1) 
DiffSBDD_38_num_sample_50-3

>  <s_m_source_file>  (1) 
generated__ligand_DiffSBDD_2026-05-06_prepared.sdf

>  <GenAI_Model>  (1) 
DiffSBDD

>  <Protein>  (1) 
generic_title2

$$$$
DiffSBDD_5_num_sample_50
     RDKit          3D

  0  0  0  0  0  0  0  0  0  0999 V3000
M  V30 BEGIN CTAB
M  V30 COUNTS 55 58 0 0 1
M  V30 BEGIN ATOM
M  V30 1 C 8.095685 4.873215 -12.267525 0 CFG=1
M  V30 2 C 6.483458 5.681071 -19.869647 0
M  V30 3 C 9.191060 4.058802 -12.914510 0
M  V30 4 O 7.835087 7.129932 -13.076727 0
M  V30 5 C 5.155349 6.580168 -16.544125 0 CFG=1
M  V30 6 O 6.804095 5.369288 -10.291801 0
M  V30 7 C 8.109326 5.104386 -10.753711 0 CFG=2
M  V30 8 C 9.020189 5.466135 -19.957648 0
M  V30 9 C 6.269548 6.725603 -15.532617 0 CFG=1
M  V30 10 O 11.434814 8.969289 -9.070723 0
M  V30 11 C 10.370363 7.186415 -8.484956 0
M  V30 12 C 4.397788 7.769290 -17.045623 0
M  V30 13 N 10.485622 8.262240 -9.342209 0
M  V30 14 C 7.491715 5.949980 -13.145637 0
M  V30 15 N 9.036508 6.156386 -10.350118 0
M  V30 16 C 6.448257 4.578581 -18.822899 0
M  V30 17 C 6.537155 7.736798 -21.800996 0
M  V30 18 O 7.891510 3.512349 -12.693404 0
M  V30 19 C 7.717440 6.108752 -20.412633 0
M  V30 20 C 5.308771 7.309691 -21.261017 0
M  V30 21 C 9.291715 6.176622 -8.901216 0
M  V30 22 C 5.281076 6.282988 -20.297654 0
M  V30 23 C 9.344417 5.761297 -18.484775 0
M  V30 24 C 7.739954 7.137961 -21.378547 0
M  V30 25 C 7.059611 4.985439 -17.462222 0 CFG=1
M  V30 26 C 8.598593 4.874263 -17.464194 0
M  V30 27 S 6.229264 5.373825 -14.310680 0
M  V30 28 O 11.035348 6.993402 -7.464525 0
M  V30 29 C 6.582222 6.354314 -16.977848 0 CFG=1
M  V30 30 H 9.433186 4.215343 -13.963361 0
M  V30 31 H 9.971876 3.630322 -12.291657 0
M  V30 32 H 4.518755 5.718617 -16.440399 0
M  V30 33 H 6.781652 6.260643 -9.925887 0
M  V30 34 H 8.421148 4.169273 -10.292616 0
M  V30 35 H 8.992364 4.391345 -20.139860 0
M  V30 36 H 9.829141 5.847739 -20.581255 0
M  V30 37 H 6.474286 7.722641 -15.147182 0
M  V30 38 H 5.099150 8.569299 -17.270705 0
M  V30 39 H 3.847199 7.520099 -17.951966 0
M  V30 40 H 3.693498 8.120648 -16.291697 0
M  V30 41 H 8.649416 7.056872 -10.628171 0
M  V30 42 H 6.930637 3.680680 -19.211222 0
M  V30 43 H 5.407582 4.292584 -18.679151 0
M  V30 44 H 6.557331 8.523736 -22.541092 0
M  V30 45 H 4.387099 7.769804 -21.586297 0
M  V30 46 H 8.378889 6.396804 -8.346962 0
M  V30 47 H 9.621697 5.190980 -8.570225 0
M  V30 48 H 4.337767 5.957769 -19.884778 0
M  V30 49 H 10.411771 5.597224 -18.334561 0
M  V30 50 H 9.180553 6.819043 -18.291664 0
M  V30 51 H 8.680565 7.468244 -21.795483 0
M  V30 52 H 6.716255 4.236727 -16.752297 0
M  V30 53 H 8.964029 5.116213 -16.465222 0
M  V30 54 H 8.875243 3.833719 -17.635530 0
M  V30 55 H 6.999022 7.164523 -17.569777 0
M  V30 END ATOM
M  V30 BEGIN BOND
M  V30 1 1 3 1
M  V30 2 1 7 1
M  V30 3 1 7 6
M  V30 4 1 9 5
M  V30 5 1 12 5
M  V30 6 2 13 10
M  V30 7 1 13 11
M  V30 8 1 1 14 CFG=3
M  V30 9 2 14 4
M  V30 10 1 15 7
M  V30 11 1 16 2
M  V30 12 1 18 1
M  V30 13 1 18 3
M  V30 14 1 19 2
M  V30 15 1 19 8
M  V30 16 2 20 17
M  V30 17 1 21 11
M  V30 18 1 21 15
M  V30 19 2 22 2
M  V30 20 1 22 20
M  V30 21 1 23 8
M  V30 22 1 24 17
M  V30 23 2 24 19
M  V30 24 1 25 16
M  V30 25 1 26 23
M  V30 26 1 26 25
M  V30 27 1 27 9
M  V30 28 1 27 14
M  V30 29 2 28 11
M  V30 30 1 29 5
M  V30 31 1 29 9
M  V30 32 1 29 25
M  V30 33 1 30 3
M  V30 34 1 31 3
M  V30 35 1 5 32 CFG=1
M  V30 36 1 33 6
M  V30 37 1 7 34 CFG=1
M  V30 38 1 35 8
M  V30 39 1 36 8
M  V30 40 1 9 37 CFG=1
M  V30 41 1 38 12
M  V30 42 1 39 12
M  V30 43 1 40 12
M  V30 44 1 41 15
M  V30 45 1 42 16
M  V30 46 1 43 16
M  V30 47 1 44 17
M  V30 48 1 45 20
M  V30 49 1 46 21
M  V30 50 1 47 21
M  V30 51 1 48 22
M  V30 52 1 49 23
M  V30 53 1 50 23
M  V30 54 1 51 24
M  V30 55 1 25 52 CFG=1
M  V30 56 1 53 26
M  V30 57 1 54 26
M  V30 58 1 29 55 CFG=3
M  V30 END BOND
M  V30 END CTAB
M  END
>  <i_epik_Tot_Q>  (1) 
0

>  <i_epik_Tot_abs_Q>  (1) 
0

>  <i_i_glide_confnum>  (1) 
64

>  <i_i_glide_lignum>  (1) 
14

>  <i_i_glide_posenum>  (1) 
341

>  <i_i_glide_rotatable_bonds>  (1) 
10

>  <i_lp_mmshare_version>  (1) 
72125

>  <i_m_source_file_index>  (1) 
6

>  <i_f3d_flags>  (1) 
0

>  <num_sample>  (1) 
50

>  <b_lp_Chiralities_Consistent>  (1) 
1

>  <r_epik_Charging_Adjusted_Penalty>  (1) 
0

>  <r_epik_Ionization_Penalty>  (1) 
0.00033857845250697777

>  <r_epik_Ionization_Penalty_Charging>  (1) 
0

>  <r_epik_Ionization_Penalty_Neutral>  (1) 
0.00033857845250697777

>  <r_epik_State_Penalty>  (1) 
-0

>  <r_glide_ring_energy>  (1) 
0

>  <r_i_docking_score>  (1) 
-4.6499718437575064

>  <r_i_glide_ecoul>  (1) 
-6.0811197347178183

>  <r_i_glide_eff_state_penalty>  (1) 
-0

>  <r_i_glide_einternal>  (1) 
7.3867258519131607

>  <r_i_glide_emodel>  (1) 
-42.014982362757237

>  <r_i_glide_emodel_strain>  (1) 
1.8631859926614958

>  <r_i_glide_energy>  (1) 
-37.465501014593976

>  <r_i_glide_erotb>  (1) 
0.90319655978703284

>  <r_i_glide_esite>  (1) 
-0.11487164349752384

>  <r_i_glide_evdw>  (1) 
-31.384381279876155

>  <r_i_glide_gscore>  (1) 
-4.6499718437575064

>  <r_i_glide_gscore_strain>  (1) 
0

>  <r_i_glide_hbond>  (1) 
-0.18533062476962583

>  <r_i_glide_ligand_efficiency>  (1) 
-0.16034385668129333

>  <r_i_glide_ligand_efficiency_ln>  (1) 
-1.0647256391083328

>  <r_i_glide_ligand_efficiency_sa>  (1) 
-0.49262712877729764

>  <r_i_glide_lipo>  (1) 
-1.8516149682861756

>  <r_i_glide_metal>  (1) 
-0

>  <r_i_glide_rewards>  (1) 
-0.91996414278973249

>  <r_lp_Energy>  (1) 
19.075084

>  <r_lp_tautomer_probability>  (1) 
1

>  <s_epik_Chemistry_Notes>  (1) 
This compound contains an acetal/aminal-like group ( X-CH(R)-Y where X, Y are N, S, or O) that may be acid/base labile, releasing an aldehyde.

>  <s_epik_cmdline>  (1) 
J2VwaWtfcHl0aG9uJywgJy1waHQnLCAnMS4wJywgJy1waCcsICc3LjQnLCAnLXRuJywgJzgnLCAnLW1hJywgJzUwMCcsICctaW1hZScsICc8aW5maWxlLm1hZT4nLCAnLW9tYWUnLCAnPG91dGZpbGUubWFlPic=

>  <s_epik_input>  (1) 
Tz1OQyg9TylbQ0gyXVtOSF1bQ0BASF0oW09IXSlbQ0BdMShbQ0gyXU8xKUMoPU8pU1tDSF0oW0NASF0yW0NIM10pW0NIXTJbQ0BASF0oW0NIMl0zKVtDSDJdW0NIMl1bQ0gyXWMoYzM0KVtjSF1bY0hdW2NIXVtjSF00

>  <s_glide_docking_method>  (1) 
confgen

>  <s_i_glide_gridfile>  (1) 
gpcr_drd2_6luq_protein_autoprepared_prepared

>  <s_lp_Force_Field>  (1) 
S-OPLS

>  <s_lp_Variant>  (1) 
DiffSBDD_5_num_sample_50-1

>  <s_m_source_file>  (1) 
generated__ligand_DiffSBDD_2026-05-06_prepared.sdf

>  <GenAI_Model>  (1) 
DiffSBDD

>  <Protein>  (1) 
generic_title2

$$$$
DiffSBDD_20_num_sample_50
     RDKit          3D

  0  0  0  0  0  0  0  0  0  0999 V3000
M  V30 BEGIN CTAB
M  V30 COUNTS 65 70 0 0 1
M  V30 BEGIN ATOM
M  V30 1 F 12.756056 9.769446 -4.674196 0
M  V30 2 F 13.534822 9.369290 -6.657946 0
M  V30 3 F 10.234836 9.027233 -5.542401 0
M  V30 4 C 7.646035 4.814178 -13.275774 0 CFG=1
M  V30 5 C 9.193239 5.938404 -18.952971 0
M  V30 6 C 9.093159 5.572332 -10.858760 0
M  V30 7 C 6.550548 4.150128 -20.036694 0
M  V30 8 C 7.904161 4.229590 -14.611753 0 CFG=1
M  V30 9 N 10.302034 7.108952 -7.768130 0
M  V30 10 C 9.011012 5.374942 -8.137068 0
M  V30 11 C 6.136354 6.580608 -19.389417 0
M  V30 12 C 8.754497 4.961751 -15.632927 0
M  V30 13 C 5.462826 3.435535 -20.365029 0
M  V30 14 N 8.251753 6.573935 -11.491743 0
M  V30 15 C 9.429223 5.965825 -9.451968 0
M  V30 16 C 6.394780 5.151804 -12.564290 0
M  V30 17 F 11.728545 7.477162 -5.370947 0
M  V30 18 C 11.446871 8.703938 -8.616303 0
M  V30 19 C 7.815122 3.738756 -19.343228 0 CFG=2
M  V30 20 C 8.561861 3.652640 -13.309174 0
M  V30 21 C 6.890095 5.596304 -20.289834 0 CFG=1
M  V30 22 C 10.186093 6.974321 -8.952895 0
M  V30 23 C 7.667228 3.613505 -17.836337 0
M  V30 24 C 11.346872 8.537796 -6.084677 0
M  V30 25 C 10.864397 7.925000 -9.788764 0
M  V30 26 C 7.557090 6.193267 -12.716233 0 CFG=2
M  V30 27 N 11.030426 8.097554 -7.444498 0
M  V30 28 C 8.314981 5.102893 -19.888806 0 CFG=1
M  V30 29 C 9.611566 6.169301 -7.090727 0
M  V30 30 S 9.265819 3.879594 -17.003619 0 CHG=1
M  V30 31 C 10.131603 5.057914 -18.108138 0
M  V30 32 C 12.429732 9.629053 -5.959125 0
M  V30 33 C 4.649250 6.705434 -19.723007 0
M  V30 34 H 9.788911 6.639739 -19.538407 0
M  V30 35 H 8.588966 6.556531 -18.292047 0
M  V30 36 H 8.569558 4.618767 -10.793248 0
M  V30 37 H 10.000973 5.423274 -11.442664 0
M  V30 38 H 7.073642 3.666488 -15.032810 0
M  V30 39 H 8.370952 4.519470 -7.981699 0
M  V30 40 H 6.237941 6.315633 -18.337869 0
M  V30 41 H 6.587555 7.567571 -19.491683 0
M  V30 42 H 9.641815 5.368582 -15.145832 0
M  V30 43 H 8.184860 5.802978 -16.023708 0
M  V30 44 H 5.389280 2.386841 -20.116366 0
M  V30 45 H 4.634795 3.890874 -20.887139 0
M  V30 46 H 7.650606 7.049203 -10.807876 0
M  V30 47 H 5.498410 5.308883 -13.160722 0
M  V30 48 H 6.232991 4.704503 -11.585036 0
M  V30 49 H 12.074504 9.580580 -8.581258 0
M  V30 50 H 8.366975 2.909528 -19.788411 0
M  V30 51 H 8.187347 2.704747 -12.927579 0
M  V30 52 H 9.616742 3.846498 -13.126400 0
M  V30 53 H 6.874369 5.904035 -21.336387 0
M  V30 54 H 7.261881 2.643112 -17.549311 0
M  V30 55 H 6.962933 4.357026 -17.467084 0
M  V30 56 H 10.930252 8.047689 -10.862163 0
M  V30 57 H 7.351663 6.981288 -13.438101 0
M  V30 58 H 8.870170 4.895134 -20.807358 0
M  V30 59 H 9.593788 6.137543 -6.011359 0
M  V30 60 H 10.757842 4.474016 -18.783617 0
M  V30 61 H 10.810238 5.670167 -17.513699 0
M  V30 62 H 12.054439 10.595986 -6.293330 0
M  V30 63 H 4.185895 7.485830 -19.118524 0
M  V30 64 H 4.497493 6.957094 -20.773121 0
M  V30 65 H 4.130470 5.770160 -19.514501 0
M  V30 END ATOM
M  V30 BEGIN BOND
M  V30 1 1 8 4
M  V30 2 1 12 8
M  V30 3 2 13 7
M  V30 4 1 14 6
M  V30 5 1 15 6
M  V30 6 1 15 10
M  V30 7 1 4 16 CFG=1
M  V30 8 1 19 7
M  V30 9 1 20 4
M  V30 10 1 20 8
M  V30 11 1 21 7
M  V30 12 1 21 11
M  V30 13 1 22 9
M  V30 14 2 22 15
M  V30 15 1 23 19
M  V30 16 1 24 3
M  V30 17 1 24 17
M  V30 18 2 25 18
M  V30 19 1 25 22
M  V30 20 1 26 4
M  V30 21 1 26 14
M  V30 22 1 26 16
M  V30 23 1 27 9
M  V30 24 1 27 18
M  V30 25 1 27 24
M  V30 26 1 28 5
M  V30 27 1 28 19
M  V30 28 1 28 21
M  V30 29 1 29 9
M  V30 30 2 29 10
M  V30 31 1 30 12 CFG=1
M  V30 32 1 30 23
M  V30 33 1 31 5
M  V30 34 1 31 30
M  V30 35 1 32 1
M  V30 36 1 32 2
M  V30 37 1 32 24
M  V30 38 1 33 11
M  V30 39 1 34 5
M  V30 40 1 35 5
M  V30 41 1 36 6
M  V30 42 1 37 6
M  V30 43 1 8 38 CFG=3
M  V30 44 1 39 10
M  V30 45 1 40 11
M  V30 46 1 41 11
M  V30 47 1 42 12
M  V30 48 1 43 12
M  V30 49 1 44 13
M  V30 50 1 45 13
M  V30 51 1 46 14
M  V30 52 1 47 16
M  V30 53 1 48 16
M  V30 54 1 49 18
M  V30 55 1 19 50 CFG=3
M  V30 56 1 51 20
M  V30 57 1 52 20
M  V30 58 1 21 53 CFG=3
M  V30 59 1 54 23
M  V30 60 1 55 23
M  V30 61 1 56 25
M  V30 62 1 26 57 CFG=3
M  V30 63 1 28 58 CFG=3
M  V30 64 1 59 29
M  V30 65 1 60 31
M  V30 66 1 61 31
M  V30 67 1 62 32
M  V30 68 1 63 33
M  V30 69 1 64 33
M  V30 70 1 65 33
M  V30 END BOND
M  V30 END CTAB
M  END
>  <i_epik_Tot_Q>  (1) 
1

>  <i_epik_Tot_abs_Q>  (1) 
1

>  <i_i_glide_confnum>  (1) 
171

>  <i_i_glide_lignum>  (1) 
58

>  <i_i_glide_posenum>  (1) 
142

>  <i_i_glide_rotatable_bonds>  (1) 
8

>  <i_lp_mmshare_version>  (1) 
72125

>  <i_m_source_file_index>  (1) 
21

>  <i_f3d_flags>  (1) 
0

>  <num_sample>  (1) 
50

>  <b_lp_Chiralities_Consistent>  (1) 
1

>  <r_epik_Charging_Adjusted_Penalty>  (1) 
0.77841525475286655

>  <r_epik_Ionization_Penalty>  (1) 
0.77841525475286644

>  <r_epik_Ionization_Penalty_Charging>  (1) 
0

>  <r_epik_Ionization_Penalty_Neutral>  (1) 
0.77841525475286644

>  <r_epik_State_Penalty>  (1) 
0.77841525475286655

>  <r_glide_ring_energy>  (1) 
0

>  <r_i_docking_score>  (1) 
-4.6476261324662786

>  <r_i_glide_ecoul>  (1) 
-3.6224083045539475

>  <r_i_glide_eff_state_penalty>  (1) 
0.77841525475286655

>  <r_i_glide_einternal>  (1) 
5.8157163134394301

>  <r_i_glide_emodel>  (1) 
-47.355831141007052

>  <r_i_glide_emodel_strain>  (1) 
0

>  <r_i_glide_energy>  (1) 
-38.030223054351666

>  <r_i_glide_erotb>  (1) 
0.52280608296046926

>  <r_i_glide_esite>  (1) 
-0.0097672071321172893

>  <r_i_glide_evdw>  (1) 
-34.407814749797716

>  <r_i_glide_gscore>  (1) 
-5.4260413872191453

>  <r_i_glide_gscore_strain>  (1) 
0

>  <r_i_glide_hbond>  (1) 
-0.16

>  <r_i_glide_ligand_efficiency>  (1) 
-0.14083715552928117

>  <r_i_glide_ligand_efficiency_ln>  (1) 
-1.0336079877402704

>  <r_i_glide_ligand_efficiency_sa>  (1) 
-0.45174001129913094

>  <r_i_glide_lipo>  (1) 
-1.9631218366017695

>  <r_i_glide_metal>  (1) 
-0

>  <r_i_glide_rewards>  (1) 
-1.5522064432727491

>  <r_lp_Energy>  (1) 
9.9394679999999997

>  <s_epik_cmdline>  (1) 
J2VwaWtfcHl0aG9uJywgJy1waHQnLCAnMS4wJywgJy1waCcsICc3LjQnLCAnLXRuJywgJzgnLCAnLW1hJywgJzUwMCcsICctaW1hZScsICc8aW5maWxlLm1hZT4nLCAnLW9tYWUnLCAnPG91dGZpbGUubWFlPic=

>  <s_epik_input>  (1) 
RltDSF0oRilDKEYpKEYpbjFbY0hdW2NIXWMobjEyKWMoW2NIXVtjSF0yKVtDSDJdW05IXVtDQEBIXTNbQ0gyXVtDQF0zNFtDQEhdKFtDSDJdNClbQ0gyXVtTK10oW0NIMl01KVtDSDJdW0NIMl1bQ0BASF0oW0NAQEhdNTYpW0NAQEhdKEM2PVtDSDJdKVtDSDJdW0NIM10=

>  <s_glide_docking_method>  (1) 
confgen

>  <s_i_glide_gridfile>  (1) 
gpcr_drd2_6luq_protein_autoprepared_prepared

>  <s_lp_Force_Field>  (1) 
S-OPLS

>  <s_lp_Variant>  (1) 
DiffSBDD_20_num_sample_50-2

>  <s_m_source_file>  (1) 
generated__ligand_DiffSBDD_2026-05-06_prepared.sdf

>  <GenAI_Model>  (1) 
DiffSBDD

>  <Protein>  (1) 
generic_title2

$$$$
DiffSBDD_29_num_sample_50
     RDKit          3D

  0  0  0  0  0  0  0  0  0  0999 V3000
M  V30 BEGIN CTAB
M  V30 COUNTS 64 67 0 0 1
M  V30 BEGIN ATOM
M  V30 1 C 7.265787 4.977988 -15.540309 0
M  V30 2 O 10.197535 7.879962 -9.131047 0
M  V30 3 C 10.990279 8.272677 -5.313851 0
M  V30 4 C 8.031630 4.164783 -14.535166 0
M  V30 5 O 9.751942 5.369317 -7.492342 0
M  V30 6 N 8.038282 6.998949 -11.850020 0 CFG=2 CHG=1
M  V30 7 C 10.020746 7.225362 -5.872337 0
M  V30 8 C 12.138477 9.369232 -7.319407 0
M  V30 9 C 13.158658 8.290182 -9.339195 0
M  V30 10 C 6.678846 5.794161 -17.714475 0
M  V30 11 C 8.557829 5.857739 -12.658432 0
M  V30 12 C 6.988873 7.760261 -12.549476 0
M  V30 13 C 8.400427 5.671467 -7.761454 0
M  V30 14 C 11.122681 7.178930 -8.306808 0 CFG=1
M  V30 15 C 6.332401 5.783516 -15.012093 0
M  V30 16 C 5.807912 6.857892 -12.910451 0
M  V30 17 C 7.455773 4.914748 -13.207609 0 CFG=1
M  V30 18 C 12.367570 8.039673 -8.057674 0 CFG=2
M  V30 19 C 7.477846 4.950856 -16.923234 0
M  V30 20 C 10.045930 7.210685 -10.381775 0
M  V30 21 N 5.535573 6.630973 -15.709877 0
M  V30 22 C 10.583501 6.434510 -7.063108 0 CFG=2
M  V30 23 C 11.073190 9.469757 -6.236338 0
M  V30 24 N 6.253742 5.681089 -13.649178 0
M  V30 25 C 5.721076 6.616218 -17.063506 0
M  V30 26 N 9.289164 3.401491 -17.994054 0
M  V30 27 C 9.082407 7.918674 -11.328052 0
M  V30 28 C 8.486116 4.087695 -17.521975 0
M  V30 29 C 7.834812 4.569755 -8.645096 0
M  V30 30 H 11.964575 7.850213 -5.091390 0
M  V30 31 H 10.634863 8.654395 -4.366926 0
M  V30 32 H 7.726773 3.118660 -14.583789 0
M  V30 33 H 9.113264 4.245290 -14.651257 0
M  V30 34 H 9.814327 6.507047 -5.078739 0
M  V30 35 H 9.067628 7.691381 -6.123031 0
M  V30 36 H 13.089683 9.673308 -6.876854 0
M  V30 37 H 11.834831 10.106109 -8.060740 0
M  V30 38 H 12.692730 9.036614 -9.982367 0
M  V30 39 H 14.182523 8.591650 -9.118390 0
M  V30 40 H 13.220871 7.369374 -9.891662 0
M  V30 41 H 6.791443 5.819332 -18.788971 0
M  V30 42 H 9.276427 5.258050 -12.100548 0
M  V30 43 H 9.111714 6.280131 -13.491581 0
M  V30 44 H 7.434772 8.196586 -13.445323 0
M  V30 45 H 6.637083 8.561290 -11.891739 0
M  V30 46 H 7.835173 5.769298 -6.834744 0
M  V30 47 H 8.320345 6.606026 -8.291528 0
M  V30 48 H 11.461681 6.320061 -8.871422 0
M  V30 49 H 5.036038 7.420641 -13.434461 0
M  V30 50 H 5.336964 6.503860 -11.992012 0
M  V30 51 H 7.167640 4.190938 -12.443999 0
M  V30 52 H 13.034807 7.409603 -7.491674 0
M  V30 53 H 9.698345 6.198890 -10.175304 0
M  V30 54 H 11.009031 7.114228 -10.885815 0
M  V30 55 H 11.448203 5.906419 -6.657176 0
M  V30 56 H 11.262992 10.370712 -5.651564 0
M  V30 57 H 10.099747 9.622117 -6.691663 0
M  V30 58 H 5.091582 7.278980 -17.638949 0
M  V30 59 H 9.622547 8.384638 -12.152635 0
M  V30 60 H 8.614856 8.736949 -10.778983 0
M  V30 61 H 7.034873 4.956470 -9.267461 0
M  V30 62 H 8.586861 4.177308 -9.328982 0
M  V30 63 H 7.437641 3.769024 -8.024805 0
M  V30 64 H 7.584875 6.632047 -11.019421 0
M  V30 END ATOM
M  V30 BEGIN BOND
M  V30 1 1 4 1
M  V30 2 1 7 3
M  V30 3 1 11 6
M  V30 4 1 12 6
M  V30 5 1 13 5
M  V30 6 1 14 2
M  V30 7 1 15 1
M  V30 8 1 16 12
M  V30 9 1 17 4
M  V30 10 1 17 11
M  V30 11 1 18 8
M  V30 12 1 18 9
M  V30 13 1 18 14
M  V30 14 2 19 1
M  V30 15 1 19 10
M  V30 16 1 20 2
M  V30 17 2 21 15
M  V30 18 1 22 5
M  V30 19 1 22 7
M  V30 20 1 22 14
M  V30 21 1 23 3
M  V30 22 1 23 8
M  V30 23 1 24 15
M  V30 24 1 24 16
M  V30 25 1 24 17
M  V30 26 2 25 10
M  V30 27 1 25 21
M  V30 28 1 27 6
M  V30 29 1 27 20
M  V30 30 1 28 19
M  V30 31 3 28 26
M  V30 32 1 29 13
M  V30 33 1 30 3
M  V30 34 1 31 3
M  V30 35 1 32 4
M  V30 36 1 33 4
M  V30 37 1 34 7
M  V30 38 1 35 7
M  V30 39 1 36 8
M  V30 40 1 37 8
M  V30 41 1 38 9
M  V30 42 1 39 9
M  V30 43 1 40 9
M  V30 44 1 41 10
M  V30 45 1 42 11
M  V30 46 1 43 11
M  V30 47 1 44 12
M  V30 48 1 45 12
M  V30 49 1 46 13
M  V30 50 1 47 13
M  V30 51 1 14 48 CFG=3
M  V30 52 1 49 16
M  V30 53 1 50 16
M  V30 54 1 17 51 CFG=1
M  V30 55 1 18 52 CFG=1
M  V30 56 1 53 20
M  V30 57 1 54 20
M  V30 58 1 22 55 CFG=1
M  V30 59 1 56 23
M  V30 60 1 57 23
M  V30 61 1 58 25
M  V30 62 1 59 27
M  V30 63 1 60 27
M  V30 64 1 61 29
M  V30 65 1 62 29
M  V30 66 1 63 29
M  V30 67 1 6 64 CFG=1
M  V30 END BOND
M  V30 END CTAB
M  END
>  <i_epik_Tot_Q>  (1) 
1

>  <i_epik_Tot_abs_Q>  (1) 
1

>  <i_i_glide_confnum>  (1) 
43

>  <i_i_glide_lignum>  (1) 
75

>  <i_i_glide_posenum>  (1) 
55

>  <i_i_glide_rotatable_bonds>  (1) 
6

>  <i_lp_mmshare_version>  (1) 
72125

>  <i_m_source_file_index>  (1) 
30

>  <i_f3d_flags>  (1) 
0

>  <num_sample>  (1) 
50

>  <b_lp_Chiralities_Consistent>  (1) 
1

>  <r_epik_Charging_Adjusted_Penalty>  (1) 
1.0026227849201053

>  <r_epik_Ionization_Penalty>  (1) 
0.50131159217577048

>  <r_epik_Ionization_Penalty_Charging>  (1) 
0.50131139246005263

>  <r_epik_Ionization_Penalty_Neutral>  (1) 
1.9971571790720627e-07

>  <r_epik_State_Penalty>  (1) 
0.50131139246005263

>  <r_glide_ring_energy>  (1) 
0.31448414249904627

>  <r_i_docking_score>  (1) 
-4.6264591430866133

>  <r_i_glide_ecoul>  (1) 
-3.774969483560751

>  <r_i_glide_eff_state_penalty>  (1) 
0.50131139246005263

>  <r_i_glide_einternal>  (1) 
17.199786075744285

>  <r_i_glide_emodel>  (1) 
-28.364513921035439

>  <r_i_glide_emodel_strain>  (1) 
2.1286112659328325

>  <r_i_glide_energy>  (1) 
-29.931053220295347

>  <r_i_glide_erotb>  (1) 
0.6137117962777916

>  <r_i_glide_esite>  (1) 
-0.098574756434374994

>  <r_i_glide_evdw>  (1) 
-26.156083736734594

>  <r_i_glide_gscore>  (1) 
-5.1277705355466656

>  <r_i_glide_gscore_strain>  (1) 
0

>  <r_i_glide_hbond>  (1) 
-0.074962577745651945

>  <r_i_glide_ligand_efficiency>  (1) 
-0.15953307389953839

>  <r_i_glide_ligand_efficiency_ln>  (1) 
-1.0593418268853432

>  <r_i_glide_ligand_efficiency_sa>  (1) 
-0.49013614719493553

>  <r_i_glide_lipo>  (1) 
-2.2489078578062363

>  <r_i_glide_metal>  (1) 
-0

>  <r_i_glide_rewards>  (1) 
-1.4449875304673516

>  <r_lp_Energy>  (1) 
45.537855

>  <s_epik_cmdline>  (1) 
J2VwaWtfcHl0aG9uJywgJy1waHQnLCAnMS4wJywgJy1waCcsICc3LjQnLCAnLXRuJywgJzgnLCAnLW1hJywgJzUwMCcsICctaW1hZScsICc8aW5maWxlLm1hZT4nLCAnLW9tYWUnLCAnPG91dGZpbGUubWFlPic=

>  <s_epik_input>  (1) 
TiNDYzFbY0hdW2NIXW5jKGMxMilOM1tDQEhdKFtDSDJdMilbQ0gyXU4oW0NIMl1bQ0gyXTMpW0NIMl1bQ0gyXU9bQ0BIXTRbQ0BASF0oW0NIM10pW0NIMl1bQ0gyXVtDSDJdW0NIMl1bQ0BIXTRPW0NIMl1bQ0gzXQ==

>  <s_glide_docking_method>  (1) 
confgen

>  <s_i_glide_gridfile>  (1) 
gpcr_drd2_6luq_protein_autoprepared_prepared

>  <s_lp_Force_Field>  (1) 
S-OPLS

>  <s_lp_Variant>  (1) 
DiffSBDD_29_num_sample_50-5

>  <s_m_source_file>  (1) 
generated__ligand_DiffSBDD_2026-05-06_prepared.sdf

>  <GenAI_Model>  (1) 
DiffSBDD

>  <Protein>  (1) 
generic_title2

$$$$
DiffSBDD_43_num_sample_50
     RDKit          3D

  0  0  0  0  0  0  0  0  0  0999 V3000
M  V30 BEGIN CTAB
M  V30 COUNTS 58 58 0 0 1
M  V30 BEGIN ATOM
M  V30 1 C 9.130825 4.857298 -10.614472 0
M  V30 2 C 7.213885 3.653967 -14.483935 0
M  V30 3 N 11.269691 9.582414 -4.735070 0
M  V30 4 O 11.437165 9.181333 -8.741822 0
M  V30 5 C 7.433615 6.398843 -11.749282 0
M  V30 6 C 6.480139 6.212336 -14.120152 0 CFG=2
M  V30 7 C 10.744392 7.447247 -10.265375 0 CFG=1
M  V30 8 O 5.384111 4.288651 -13.115319 0
M  V30 9 O 8.064745 2.351161 -17.664083 0
M  V30 10 N 9.739555 7.202628 -11.284609 0
M  V30 11 C 8.072776 3.081396 -16.741608 0
M  V30 12 F 11.877632 7.769281 -10.880146 0
M  V30 13 O 9.434765 4.569328 -9.435043 0
M  V30 14 C 11.909419 7.362452 -3.706594 0
M  V30 15 C 11.951566 9.413026 -6.009823 0 CFG=2
M  V30 16 C 10.297946 8.581367 -9.332575 0
M  V30 17 C 8.671430 6.291067 -10.842406 0 CFG=2
M  V30 18 C 7.733061 6.451610 -13.256767 0
M  V30 19 O 12.207155 8.110185 -8.037573 0
M  V30 20 C 6.107202 4.708109 -14.254103 0 CFG=2
M  V30 21 F 13.034832 9.369292 -3.300829 0
M  V30 22 C 11.834831 8.062142 -6.728452 0
M  V30 23 C 8.076185 3.890285 -15.708423 0
M  V30 24 O 9.224356 4.101897 -11.604598 0 CHG=-1
M  V30 25 C 11.424313 6.898807 -6.187299 0
M  V30 26 C 10.992123 6.714373 -4.753362 0
M  V30 27 C 6.573504 6.944417 -15.482185 0
M  V30 28 C 5.224369 7.239324 -16.148767 0
M  V30 29 F 13.229221 9.769321 -5.891617 0
M  V30 30 C 11.834901 8.887206 -3.586661 0 CFG=1
M  V30 31 H 7.868208 3.584698 -13.618746 0
M  V30 32 H 6.744177 2.670418 -14.565638 0
M  V30 33 H 11.260179 10.568183 -4.521812 0
M  V30 34 H 6.871990 7.295414 -11.491711 0
M  V30 35 H 6.766147 5.577528 -11.502010 0
M  V30 36 H 5.653277 6.706706 -13.604911 0
M  V30 37 H 10.988233 6.569311 -9.674586 0
M  V30 38 H 5.979825 4.285294 -12.378911 0
M  V30 39 H 9.356184 8.082150 -11.593513 0
M  V30 40 H 11.673475 6.937847 -2.730990 0
M  V30 41 H 12.939874 7.069930 -3.891663 0
M  V30 42 H 11.519321 10.177095 -6.653595 0
M  V30 43 H 9.734443 9.353365 -9.855847 0
M  V30 44 H 9.630068 8.191207 -8.562765 0
M  V30 45 H 8.363631 6.569300 -9.842011 0
M  V30 46 H 8.536547 5.767392 -13.524090 0
M  V30 47 H 8.130455 7.444134 -13.464809 0
M  V30 48 H 5.434833 4.639672 -15.091658 0
M  V30 49 H 8.706563 4.766686 -15.692319 0
M  V30 50 H 11.386011 6.016013 -6.810309 0
M  V30 51 H 9.948870 7.009016 -4.691660 0
M  V30 52 H 11.005788 5.646121 -4.563928 0
M  V30 53 H 7.034985 7.918664 -15.330423 0
M  V30 54 H 7.210985 6.401190 -16.175802 0
M  V30 55 H 5.369324 7.751551 -17.100069 0
M  V30 56 H 4.643808 6.338792 -16.345529 0
M  V30 57 H 4.634891 7.902310 -15.517317 0
M  V30 58 H 11.229457 9.157237 -2.721268 0
M  V30 END ATOM
M  V30 BEGIN BOND
M  V30 1 1 10 7
M  V30 2 2 11 9
M  V30 3 1 12 7
M  V30 4 2 13 1
M  V30 5 1 15 3
M  V30 6 1 16 4
M  V30 7 1 16 7
M  V30 8 1 17 1
M  V30 9 1 17 5
M  V30 10 1 17 10
M  V30 11 1 18 5
M  V30 12 1 18 6
M  V30 13 1 19 4
M  V30 14 1 20 2
M  V30 15 1 20 6
M  V30 16 1 20 8
M  V30 17 1 22 15
M  V30 18 1 22 19
M  V30 19 1 23 2
M  V30 20 2 23 11
M  V30 21 1 24 1
M  V30 22 2 25 22
M  V30 23 1 26 14
M  V30 24 1 26 25
M  V30 25 1 27 6
M  V30 26 1 28 27
M  V30 27 1 29 15
M  V30 28 1 30 3
M  V30 29 1 30 14
M  V30 30 1 30 21
M  V30 31 1 31 2
M  V30 32 1 32 2
M  V30 33 1 33 3
M  V30 34 1 34 5
M  V30 35 1 35 5
M  V30 36 1 6 36 CFG=1
M  V30 37 1 7 37 CFG=1
M  V30 38 1 38 8
M  V30 39 1 39 10
M  V30 40 1 40 14
M  V30 41 1 41 14
M  V30 42 1 15 42 CFG=3
M  V30 43 1 43 16
M  V30 44 1 44 16
M  V30 45 1 17 45 CFG=1
M  V30 46 1 46 18
M  V30 47 1 47 18
M  V30 48 1 20 48 CFG=3
M  V30 49 1 49 23
M  V30 50 1 50 25
M  V30 51 1 51 26
M  V30 52 1 52 26
M  V30 53 1 53 27
M  V30 54 1 54 27
M  V30 55 1 55 28
M  V30 56 1 56 28
M  V30 57 1 57 28
M  V30 58 1 30 58 CFG=1
M  V30 END BOND
M  V30 END CTAB
M  END
>  <i_epik_Tot_Q>  (1) 
-1

>  <i_epik_Tot_abs_Q>  (1) 
1

>  <i_i_glide_confnum>  (1) 
1930

>  <i_i_glide_lignum>  (1) 
106

>  <i_i_glide_posenum>  (1) 
349

>  <i_i_glide_rotatable_bonds>  (1) 
15

>  <i_lp_mmshare_version>  (1) 
72125

>  <i_m_source_file_index>  (1) 
44

>  <i_f3d_flags>  (1) 
0

>  <num_sample>  (1) 
50

>  <b_lp_Chiralities_Consistent>  (1) 
1

>  <r_epik_Charging_Adjusted_Penalty>  (1) 
0.10859487374936995

>  <r_epik_Ionization_Penalty>  (1) 
0.10861046635066096

>  <r_epik_Ionization_Penalty_Charging>  (1) 
0.0014700329650535538

>  <r_epik_Ionization_Penalty_Neutral>  (1) 
0.10714043338560741

>  <r_epik_State_Penalty>  (1) 
0.1071248407843164

>  <r_glide_ring_energy>  (1) 
0

>  <r_i_docking_score>  (1) 
-4.6247351617265053

>  <r_i_glide_ecoul>  (1) 
0.13698514866104361

>  <r_i_glide_eff_state_penalty>  (1) 
0.1071248407843164

>  <r_i_glide_einternal>  (1) 
9.9285516221858376

>  <r_i_glide_emodel>  (1) 
-31.026508529377814

>  <r_i_glide_emodel_strain>  (1) 
3.1901664418447382

>  <r_i_glide_energy>  (1) 
-29.655011316405599

>  <r_i_glide_erotb>  (1) 
1.1463316203487632

>  <r_i_glide_esite>  (1) 
0

>  <r_i_glide_evdw>  (1) 
-29.791996465066642

>  <r_i_glide_gscore>  (1) 
-4.7318600025108219

>  <r_i_glide_gscore_strain>  (1) 
0

>  <r_i_glide_hbond>  (1) 
0

>  <r_i_glide_ligand_efficiency>  (1) 
-0.15415783872421684

>  <r_i_glide_ligand_efficiency_ln>  (1) 
-1.0507902192698133

>  <r_i_glide_ligand_efficiency_sa>  (1) 
-0.47900424753147919

>  <r_i_glide_lipo>  (1) 
-2.6899238052393009

>  <r_i_glide_metal>  (1) 
-0

>  <r_i_glide_rewards>  (1) 
-1.7192157666661088

>  <r_lp_Energy>  (1) 
14.872098999999999

>  <s_epik_cmdline>  (1) 
J2VwaWtfcHl0aG9uJywgJy1waHQnLCAnMS4wJywgJy1waCcsICc3LjQnLCAnLXRuJywgJzgnLCAnLW1hJywgJzUwMCcsICctaW1hZScsICc8aW5maWxlLm1hZT4nLCAnLW9tYWUnLCAnPG91dGZpbGUubWFlPic=

>  <s_epik_input>  (1) 
Tz1DPVtDSF1bQ0gyXVtDQEBIXShbT0hdKVtDQEhdKFtDSDJdW0NIM10pW0NIMl1bQ0gyXVtDQEBIXShDKD1PKVtPSF0pW05IXVtDQEBIXShGKVtDSDJdT09DMT1bQ0hdW0NIMl1bQ0gyXVtDQEBIXShGKVtOSF1bQ0BIXTFG

>  <s_glide_docking_method>  (1) 
confgen

>  <s_i_glide_gridfile>  (1) 
gpcr_drd2_6luq_protein_autoprepared_prepared

>  <s_lp_Force_Field>  (1) 
S-OPLS

>  <s_lp_Variant>  (1) 
DiffSBDD_43_num_sample_50-1

>  <s_m_source_file>  (1) 
generated__ligand_DiffSBDD_2026-05-06_prepared.sdf

>  <GenAI_Model>  (1) 
DiffSBDD

>  <Protein>  (1) 
generic_title2

$$$$
DiffSBDD_1_num_sample_50
     RDKit          3D

  0  0  0  0  0  0  0  0  0  0999 V3000
M  V30 BEGIN CTAB
M  V30 COUNTS 72 77 0 0 1
M  V30 BEGIN ATOM
M  V30 1 N 7.553914 4.874139 -14.852567 0
M  V30 2 C 11.835706 7.482150 -10.528021 0
M  V30 3 C 7.502242 1.165323 -18.248396 0
M  V30 4 O 8.269818 -1.106645 -17.952027 0
M  V30 5 C 7.281771 6.139281 -12.840322 0
M  V30 6 O 5.834224 6.366374 -15.658453 0
M  V30 7 C 6.685902 3.564299 -18.543919 0
M  V30 8 C 7.733216 3.497130 -15.343794 0
M  V30 9 C 7.994339 -2.495731 -17.831287 0
M  V30 10 C 7.383211 -0.214779 -18.541268 0
M  V30 11 C 7.761790 6.563593 -11.465314 0
M  V30 12 C 9.733346 5.458900 -8.617983 0
M  V30 13 C 9.238027 4.740687 -13.065724 0
M  V30 14 C 5.626184 1.652435 -19.728754 0
M  V30 15 O 6.575603 -2.183006 -21.138186 0
M  V30 16 C 6.617402 2.109902 -18.840921 0
M  V30 17 C 5.913275 6.704307 -13.257629 0 CFG=2
M  V30 18 C 5.798047 7.360834 -14.643515 0
M  V30 19 N 9.035337 6.007513 -11.050185 0
M  V30 20 C 8.398616 3.390537 -16.711134 0 CFG=2
M  V30 21 O 6.218713 -1.976277 -19.744372 0
M  V30 22 C 7.994415 5.261563 -13.598087 0
M  V30 23 C 7.471152 4.144716 -17.610248 0
M  V30 24 C 5.501203 0.286581 -20.017738 0
M  V30 25 C 9.802851 6.206659 -7.280316 0
M  V30 26 C 7.119103 5.889817 -15.822313 0 CFG=2
M  V30 27 O 5.434609 7.624992 -12.290285 0
M  V30 28 C 10.701990 8.303704 -8.377208 0 CFG=1
M  V30 29 S 8.764010 1.697949 -17.158291 0
M  V30 30 C 9.699132 5.115215 -11.874220 0
M  V30 31 C 6.366963 -0.651929 -19.436642 0
M  V30 32 C 10.501656 7.704863 -9.799404 0 CFG=2
M  V30 33 C 7.413799 5.618438 -17.326558 0
M  V30 34 C 9.533556 6.487119 -9.750849 0 CFG=2
M  V30 35 C 10.936948 7.231761 -7.297795 0
M  V30 36 C 11.804371 9.369306 -8.322074 0
M  V30 37 H 12.549204 6.969263 -9.892297 0
M  V30 38 H 11.718149 6.962079 -11.476514 0
M  V30 39 H 12.304279 8.437000 -10.759047 0
M  V30 40 H 6.019237 4.192788 -19.114992 0
M  V30 41 H 6.743383 3.042311 -15.385115 0
M  V30 42 H 8.269594 2.888287 -14.620949 0
M  V30 43 H 6.973358 -2.689785 -17.497848 0
M  V30 44 H 8.187525 -3.023430 -18.764743 0
M  V30 45 H 8.669352 -2.922003 -17.091818 0
M  V30 46 H 7.822370 7.651457 -11.436372 0
M  V30 47 H 7.024558 6.175936 -10.754667 0
M  V30 48 H 8.896186 4.760811 -8.599665 0
M  V30 49 H 10.633100 4.863293 -8.696947 0
M  V30 50 H 9.816654 4.058703 -13.649502 0
M  V30 51 H 4.947210 2.358408 -20.183893 0
M  V30 52 H 5.739957 -2.037768 -21.557087 0
M  V30 53 H 5.217485 5.865989 -13.220332 0
M  V30 54 H 6.537061 8.153733 -14.782693 0
M  V30 55 H 4.842083 7.870127 -14.743920 0
M  V30 56 H 9.356054 3.911035 -16.684349 0
M  V30 57 H 4.734949 -0.044623 -20.690359 0
M  V30 58 H 8.855112 6.704229 -7.070290 0
M  V30 59 H 9.963099 5.512199 -6.466664 0
M  V30 60 H 7.787452 6.699407 -15.522064 0
M  V30 61 H 5.726247 7.372205 -11.422752 0
M  V30 62 H 9.763657 8.796945 -8.117767 0
M  V30 63 H 10.627369 4.745439 -11.491678 0
M  V30 64 H 9.985800 8.464554 -10.388098 0
M  V30 65 H 8.400302 6.025835 -17.547378 0
M  V30 66 H 6.697061 6.150577 -17.953452 0
M  V30 67 H 8.635058 6.959992 -9.356930 0
M  V30 68 H 11.010330 7.698109 -6.314849 0
M  V30 69 H 11.881201 6.718717 -7.468675 0
M  V30 70 H 12.795942 8.947985 -8.487690 0
M  V30 71 H 11.626728 10.135875 -9.079705 0
M  V30 72 H 11.823810 9.853070 -7.345432 0
M  V30 END ATOM
M  V30 BEGIN BOND
M  V30 1 1 8 1
M  V30 2 1 9 4
M  V30 3 1 10 3
M  V30 4 1 10 4
M  V30 5 1 11 5
M  V30 6 2 16 3
M  V30 7 1 16 7
M  V30 8 1 16 14
M  V30 9 1 17 5
M  V30 10 1 18 6
M  V30 11 1 18 17
M  V30 12 1 19 11
M  V30 13 1 20 8
M  V30 14 1 21 15
M  V30 15 1 22 1
M  V30 16 2 22 5
M  V30 17 1 22 13
M  V30 18 2 23 7
M  V30 19 1 23 20
M  V30 20 2 24 14
M  V30 21 1 25 12
M  V30 22 1 26 1
M  V30 23 1 26 6
M  V30 24 1 27 17
M  V30 25 1 29 3
M  V30 26 1 29 20
M  V30 27 2 30 13
M  V30 28 1 30 19
M  V30 29 2 31 10
M  V30 30 1 31 21
M  V30 31 1 31 24
M  V30 32 1 32 2
M  V30 33 1 32 28
M  V30 34 1 33 23
M  V30 35 1 33 26
M  V30 36 1 34 12
M  V30 37 1 34 19
M  V30 38 1 34 32
M  V30 39 1 35 25
M  V30 40 1 35 28
M  V30 41 1 36 28
M  V30 42 1 37 2
M  V30 43 1 38 2
M  V30 44 1 39 2
M  V30 45 1 40 7
M  V30 46 1 41 8
M  V30 47 1 42 8
M  V30 48 1 43 9
M  V30 49 1 44 9
M  V30 50 1 45 9
M  V30 51 1 46 11
M  V30 52 1 47 11
M  V30 53 1 48 12
M  V30 54 1 49 12
M  V30 55 1 50 13
M  V30 56 1 51 14
M  V30 57 1 52 15
M  V30 58 1 17 53 CFG=3
M  V30 59 1 54 18
M  V30 60 1 55 18
M  V30 61 1 20 56 CFG=1
M  V30 62 1 57 24
M  V30 63 1 58 25
M  V30 64 1 59 25
M  V30 65 1 26 60 CFG=1
M  V30 66 1 61 27
M  V30 67 1 28 62 CFG=1
M  V30 68 1 63 30
M  V30 69 1 32 64 CFG=3
M  V30 70 1 65 33
M  V30 71 1 66 33
M  V30 72 1 34 67 CFG=1
M  V30 73 1 68 35
M  V30 74 1 69 35
M  V30 75 1 70 36
M  V30 76 1 71 36
M  V30 77 1 72 36
M  V30 END BOND
M  V30 END CTAB
M  END
>  <i_epik_Tot_Q>  (1) 
0

>  <i_epik_Tot_abs_Q>  (1) 
0

>  <i_i_glide_confnum>  (1) 
5

>  <i_i_glide_lignum>  (1) 
4

>  <i_i_glide_posenum>  (1) 
258

>  <i_i_glide_rotatable_bonds>  (1) 
5

>  <i_lp_mmshare_version>  (1) 
72125

>  <i_m_source_file_index>  (1) 
2

>  <i_f3d_flags>  (1) 
0

>  <num_sample>  (1) 
50

>  <b_lp_Chiralities_Consistent>  (1) 
1

>  <r_epik_Charging_Adjusted_Penalty>  (1) 
1.7947178929853217e-12

>  <r_epik_Ionization_Penalty>  (1) 
2.2136665369831182e-05

>  <r_epik_Ionization_Penalty_Charging>  (1) 
1.7947178929853217e-12

>  <r_epik_Ionization_Penalty_Neutral>  (1) 
2.2136663575113287e-05

>  <r_epik_State_Penalty>  (1) 
-0

>  <r_glide_ring_energy>  (1) 
0

>  <r_i_docking_score>  (1) 
-4.6246291704642681

>  <r_i_glide_ecoul>  (1) 
-4.1596419036426715

>  <r_i_glide_eff_state_penalty>  (1) 
-0

>  <r_i_glide_einternal>  (1) 
2.6993163326855178

>  <r_i_glide_emodel>  (1) 
-38.972426177919978

>  <r_i_glide_emodel_strain>  (1) 
3.1706150916302391

>  <r_i_glide_energy>  (1) 
-32.451680409859343

>  <r_i_glide_erotb>  (1) 
0.15600053340392078

>  <r_i_glide_esite>  (1) 
-0.053545737658644448

>  <r_i_glide_evdw>  (1) 
-28.292038506216674

>  <r_i_glide_gscore>  (1) 
-4.6246291704642681

>  <r_i_glide_gscore_strain>  (1) 
0

>  <r_i_glide_hbond>  (1) 
-0.039819509781468601

>  <r_i_glide_ligand_efficiency>  (1) 
-0.12846192140178522

>  <r_i_glide_ligand_efficiency_ln>  (1) 
-1.008969141954065

>  <r_i_glide_ligand_efficiency_sa>  (1) 
-0.42417191872191456

>  <r_i_glide_lipo>  (1) 
-1.6862615389023934

>  <r_i_glide_metal>  (1) 
-0

>  <r_i_glide_rewards>  (1) 
-0.96245470666844846

>  <r_lp_Energy>  (1) 
70.104143999999991

>  <r_lp_tautomer_probability>  (1) 
1

>  <s_epik_Chemistry_Notes>  (1) 
This compound has an imine and may undergo hydrolysis. This compound contains an acetal/aminal-like group ( X-CH(R)-Y where X, Y are N, S, or O) that may be acid/base labile, releasing an aldehyde.

>  <s_epik_cmdline>  (1) 
J2VwaWtfcHl0aG9uJywgJy1waHQnLCAnMS4wJywgJy1waCcsICc3LjQnLCAnLXRuJywgJzgnLCAnLW1hJywgJzUwMCcsICctaW1hZScsICc8aW5maWxlLm1hZT4nLCAnLW9tYWUnLCAnPG91dGZpbGUubWFlPic=

>  <s_epik_input>  (1) 
W0NIMl0xW0NIMl1bQ0gyXVtDQEBIXShbQ0BIXShbQ0gzXSlbQ0BASF0xW0NIM10pTihbQ0hdPVtDSF0yKVtDSDJdQyg9QzJOMzQpW0NAQEhdKFtPSF0pW0NIMl1PW0NAQEhdNFtDSDJdQzVbQ0BASF0oW0NIMl0zKVNjNmMoW0NIXT01KVtjSF1bY0hdYyhPW09IXSljNk9bQ0gzXQ==

>  <s_glide_docking_method>  (1) 
confgen

>  <s_i_glide_gridfile>  (1) 
gpcr_drd2_6luq_protein_autoprepared_prepared

>  <s_lp_Force_Field>  (1) 
S-OPLS

>  <s_lp_Variant>  (1) 
DiffSBDD_1_num_sample_50-1

>  <s_m_source_file>  (1) 
generated__ligand_DiffSBDD_2026-05-06_prepared.sdf

>  <GenAI_Model>  (1) 
DiffSBDD

>  <Protein>  (1) 
generic_title2

$$$$
DiffSBDD_10_num_sample_50
     RDKit          3D

  0  0  0  0  0  0  0  0  0  0999 V3000
M  V30 BEGIN CTAB
M  V30 COUNTS 72 73 0 0 1
M  V30 BEGIN ATOM
M  V30 1 C 13.351783 1.451246 -19.080408 0 CFG=2
M  V30 2 C 8.415446 4.594518 -10.478623 0
M  V30 3 C 7.325492 4.509662 -14.896339 0
M  V30 4 C 8.705276 4.966471 -18.064504 0 CFG=1
M  V30 5 C 12.780782 2.727336 -18.428474 0 CFG=2
M  V30 6 N 6.003884 4.546878 -10.691666 0
M  V30 7 N 10.049147 4.366189 -19.929347 0
M  V30 8 C 10.753501 4.027191 -18.725710 0 CFG=1
M  V30 9 S 14.653385 0.525762 -18.084243 0
M  V30 10 C 8.448410 4.986007 -9.008977 0
M  V30 11 S 16.234841 0.569301 -19.491676 0 CHG=-1
M  V30 12 C 13.287381 -0.285274 -21.001028 0
M  V30 13 O 10.959351 7.797001 -6.908216 0
M  V30 14 O 15.123784 1.287032 -16.918850 0
M  V30 15 C 13.815298 2.825134 -19.528825 0 CFG=2
M  V30 16 C 7.486223 6.445460 -13.164950 0
M  V30 17 C 8.687360 4.754207 -19.588218 0 CFG=1
M  V30 18 N 9.034847 6.800976 -7.428897 0 CHG=1
M  V30 19 N 7.320253 4.066134 -12.536469 0
M  V30 20 C 9.284827 6.250299 -8.777827 0
M  V30 21 C 9.231479 2.508562 -17.363644 0
M  V30 22 C 12.501446 0.516261 -19.951638 0
M  V30 23 C 13.062046 3.218228 -17.012832 0
M  V30 24 C 7.319843 4.930658 -17.388515 0
M  V30 25 C 7.372919 4.937630 -13.469912 0
M  V30 26 O 13.217669 3.366879 -20.688524 0
M  V30 27 C 7.283593 4.414461 -11.192349 0
M  V30 28 O 14.234836 -0.874158 -17.918114 0
M  V30 29 F 7.869952 3.761456 -19.938671 0
M  V30 30 N 6.235095 6.969306 -12.650659 0
M  V30 31 C 9.612232 8.129983 -7.170467 0
M  V30 32 C 9.747332 3.955787 -17.563939 0 CFG=2
M  V30 33 O 11.414199 2.808699 -18.849415 0
M  V30 34 C 7.366332 5.367991 -15.937259 0
M  V30 35 H 9.373827 4.460003 -10.961006 0
M  V30 36 H 7.253283 3.445203 -15.058669 0
M  V30 37 H 9.121343 5.962104 -17.897266 0
M  V30 38 H 5.831876 4.703241 -9.702190 0
M  V30 39 H 9.987469 3.575020 -20.553688 0
M  V30 40 H 11.474826 4.828160 -18.554647 0
M  V30 41 H 8.859915 4.169304 -8.415821 0
M  V30 42 H 7.434832 5.151051 -8.647270 0
M  V30 43 H 12.612095 -0.851763 -21.641888 0
M  V30 44 H 13.875385 0.375952 -21.638122 0
M  V30 45 H 13.970048 -1.000989 -20.543431 0
M  V30 46 H 11.519230 8.393510 -7.384138 0
M  V30 47 H 14.820461 3.177045 -19.308042 0
M  V30 48 H 8.245361 6.587194 -12.395817 0
M  V30 49 H 7.834826 7.053085 -13.991649 0
M  V30 50 H 8.372859 5.645544 -20.132516 0
M  V30 51 H 9.336678 6.155520 -6.714758 0
M  V30 52 H 9.034847 7.003612 -9.525495 0
M  V30 53 H 10.345203 6.028196 -8.898836 0
M  V30 54 H 8.800356 2.098674 -18.276384 0
M  V30 55 H 10.035889 1.841090 -17.055219 0
M  V30 56 H 8.473973 2.447964 -16.587048 0
M  V30 57 H 11.962885 -0.164525 -19.293189 0
M  V30 58 H 11.740202 1.088567 -20.479134 0
M  V30 59 H 14.114093 3.472315 -16.894458 0
M  V30 60 H 12.511316 4.121809 -16.767048 0
M  V30 61 H 12.800877 2.446252 -16.291734 0
M  V30 62 H 6.883097 3.935273 -17.466571 0
M  V30 63 H 6.636321 5.599507 -17.912880 0
M  V30 64 H 12.281526 3.332053 -20.548107 0
M  V30 65 H 5.993785 6.398340 -11.846994 0
M  V30 66 H 6.394965 7.889619 -12.265739 0
M  V30 67 H 9.150806 8.580982 -6.291903 0
M  V30 68 H 9.500973 8.799651 -8.024369 0
M  V30 69 H 10.218268 4.301116 -16.643513 0
M  V30 70 H 7.435102 6.426212 -15.769925 0
M  V30 71 H 5.196663 4.307737 -11.248189 0
M  V30 72 H 8.023892 6.923699 -7.364162 0
M  V30 END ATOM
M  V30 BEGIN BOND
M  V30 1 1 5 1
M  V30 2 1 8 7
M  V30 3 1 9 1
M  V30 4 1 10 2
M  V30 5 1 11 9
M  V30 6 2 14 9
M  V30 7 1 15 1
M  V30 8 1 15 5
M  V30 9 1 17 4
M  V30 10 1 17 7
M  V30 11 1 20 10
M  V30 12 1 20 18
M  V30 13 1 1 22 CFG=3
M  V30 14 1 22 12
M  V30 15 1 23 5
M  V30 16 1 24 4
M  V30 17 1 25 3
M  V30 18 1 25 16
M  V30 19 2 25 19
M  V30 20 1 26 15
M  V30 21 2 27 2
M  V30 22 1 27 6
M  V30 23 1 27 19
M  V30 24 2 28 9
M  V30 25 1 29 17
M  V30 26 1 30 16
M  V30 27 1 31 13
M  V30 28 1 31 18
M  V30 29 1 32 4
M  V30 30 1 32 8
M  V30 31 1 32 21
M  V30 32 1 5 33 CFG=3
M  V30 33 1 33 8
M  V30 34 2 34 3
M  V30 35 1 34 24
M  V30 36 1 35 2
M  V30 37 1 36 3
M  V30 38 1 4 37 CFG=3
M  V30 39 1 38 6
M  V30 40 1 39 7
M  V30 41 1 8 40 CFG=1
M  V30 42 1 41 10
M  V30 43 1 42 10
M  V30 44 1 43 12
M  V30 45 1 44 12
M  V30 46 1 45 12
M  V30 47 1 46 13
M  V30 48 1 15 47 CFG=1
M  V30 49 1 48 16
M  V30 50 1 49 16
M  V30 51 1 17 50 CFG=3
M  V30 52 1 51 18
M  V30 53 1 52 20
M  V30 54 1 53 20
M  V30 55 1 54 21
M  V30 56 1 55 21
M  V30 57 1 56 21
M  V30 58 1 57 22
M  V30 59 1 58 22
M  V30 60 1 59 23
M  V30 61 1 60 23
M  V30 62 1 61 23
M  V30 63 1 62 24
M  V30 64 1 63 24
M  V30 65 1 64 26
M  V30 66 1 65 30
M  V30 67 1 66 30
M  V30 68 1 67 31
M  V30 69 1 68 31
M  V30 70 1 32 69 CFG=1
M  V30 71 1 70 34
M  V30 72 1 71 6
M  V30 73 1 72 18
M  V30 END BOND
M  V30 END CTAB
M  END
>  <i_epik_Tot_Q>  (1) 
0

>  <i_epik_Tot_abs_Q>  (1) 
2

>  <i_i_glide_confnum>  (1) 
372

>  <i_i_glide_lignum>  (1) 
24

>  <i_i_glide_posenum>  (1) 
353

>  <i_i_glide_rotatable_bonds>  (1) 
15

>  <i_lp_mmshare_version>  (1) 
72125

>  <i_m_source_file_index>  (1) 
11

>  <i_f3d_flags>  (1) 
0

>  <num_sample>  (1) 
50

>  <b_lp_Chiralities_Consistent>  (1) 
1

>  <r_epik_Charging_Adjusted_Penalty>  (1) 
0.33639934582642134

>  <r_epik_Ionization_Penalty>  (1) 
0.23315943830934333

>  <r_epik_Ionization_Penalty_Charging>  (1) 
0.10316865490585193

>  <r_epik_Ionization_Penalty_Neutral>  (1) 
0.12999078340349141

>  <r_epik_State_Penalty>  (1) 
0.23323069092056939

>  <r_glide_ring_energy>  (1) 
0

>  <r_i_docking_score>  (1) 
-4.6233685858149309

>  <r_i_glide_ecoul>  (1) 
-7.1418554854009857

>  <r_i_glide_eff_state_penalty>  (1) 
0.23323069092056939

>  <r_i_glide_einternal>  (1) 
9.7728646155308851

>  <r_i_glide_emodel>  (1) 
-49.891104823860601

>  <r_i_glide_emodel_strain>  (1) 
1.403815917001765

>  <r_i_glide_energy>  (1) 
-41.333785680553483

>  <r_i_glide_erotb>  (1) 
0.57757419641111274

>  <r_i_glide_esite>  (1) 
-0.20353816942210676

>  <r_i_glide_evdw>  (1) 
-34.191930195152494

>  <r_i_glide_gscore>  (1) 
-4.8565992767355004

>  <r_i_glide_gscore_strain>  (1) 
0

>  <r_i_glide_hbond>  (1) 
-0.52367735096043855

>  <r_i_glide_ligand_efficiency>  (1) 
-0.13598142899455679

>  <r_i_glide_ligand_efficiency_ln>  (1) 
-1.0214318017027588

>  <r_i_glide_ligand_efficiency_sa>  (1) 
-0.44052704212534238

>  <r_i_glide_lipo>  (1) 
-0.77815245007298728

>  <r_i_glide_metal>  (1) 
-0

>  <r_i_glide_rewards>  (1) 
-1.1479306701233074

>  <r_lp_Energy>  (1) 
19.575572999999999

>  <s_epik_Chemistry_Notes>  (1) 
This compound has an imine and may undergo hydrolysis. This compound contains an acetal/aminal-like group ( X-CH(R)-Y where X, Y are N, S, or O) that may be acid/base labile, releasing an aldehyde.

>  <s_epik_cmdline>  (1) 
J2VwaWtfcHl0aG9uJywgJy1waHQnLCAnMS4wJywgJy1waCcsICc3LjQnLCAnLXRuJywgJzgnLCAnLW1hJywgJzUwMCcsICctaW1hZScsICc8aW5maWxlLm1hZT4nLCAnLW9tYWUnLCAnPG91dGZpbGUubWFlPic=

>  <s_epik_input>  (1) 
W1NIXVMoPU8pKD1PKVtDQEBdMShbQ0gyXVtDSDNdKVtDQEBdKFtDSDNdKShbQ0BASF0xW09IXSlPW0NASF0oW0NAQEhdMltDSDNdKVtOSF1bQ0BASF0oRilbQ0BIXTJbQ0gyXVxbQ0hdPVtDSF1cQyhbQ0gyXVtOSDJdKT1OXEMoPU5cW0hdKVxbQ0gyXVtDSDJdW0NIMl1bTkhdW0NIMl1bT0hd

>  <s_glide_docking_method>  (1) 
confgen

>  <s_i_glide_gridfile>  (1) 
gpcr_drd2_6luq_protein_autoprepared_prepared

>  <s_lp_Force_Field>  (1) 
S-OPLS

>  <s_lp_Variant>  (1) 
DiffSBDD_10_num_sample_50-4

>  <s_m_source_file>  (1) 
generated__ligand_DiffSBDD_2026-05-06_prepared.sdf

>  <GenAI_Model>  (1) 
DiffSBDD

>  <Protein>  (1) 
generic_title2

$$$$
DiffSBDD_10_num_sample_50
     RDKit          3D

  0  0  0  0  0  0  0  0  0  0999 V3000
M  V30 BEGIN CTAB
M  V30 COUNTS 72 73 0 0 1
M  V30 BEGIN ATOM
M  V30 1 C 4.845296 6.368228 -21.072978 0 CFG=2
M  V30 2 C 7.593436 4.281859 -11.587211 0
M  V30 3 C 7.242485 3.143690 -14.871362 0
M  V30 4 C 8.048926 5.097267 -17.090779 0 CFG=1
M  V30 5 C 6.052939 7.189447 -20.597854 0 CFG=2
M  V30 6 N 5.434351 4.828581 -12.480112 0
M  V30 7 N 6.634653 6.923892 -17.612779 0
M  V30 8 C 7.511654 6.794239 -18.726723 0 CFG=1
M  V30 9 S 4.246536 6.683817 -22.814041 0
M  V30 10 C 7.870655 5.658351 -11.023529 0
M  V30 11 S 5.929409 5.996488 -23.896907 0 CHG=-1
M  V30 12 C 5.210587 3.820286 -21.295875 0
M  V30 13 O 9.833819 8.085135 -7.853094 0
M  V30 14 O 3.130214 5.769437 -23.095795 0
M  V30 15 C 4.637388 7.593248 -20.200999 0 CFG=2
M  V30 16 C 6.505927 0.773036 -14.198169 0
M  V30 17 C 6.604649 5.629931 -16.970058 0 CFG=2
M  V30 18 N 9.463031 7.079360 -9.782766 0 CHG=1
M  V30 19 N 6.237184 2.673779 -12.709000 0
M  V30 20 C 9.333400 5.882211 -10.639872 0
M  V30 21 C 9.192752 5.038147 -19.509455 0
M  V30 22 C 4.506973 4.966048 -20.559048 0
M  V30 23 C 6.922461 8.103663 -21.450694 0
M  V30 24 C 8.179994 3.563351 -17.197600 0
M  V30 25 C 6.635477 2.243037 -13.841537 0
M  V30 26 O 4.273519 7.370209 -18.846772 0
M  V30 27 C 6.462547 3.957586 -12.234732 0
M  V30 28 O 4.090814 8.126730 -23.056171 0
M  V30 29 F 6.174092 5.780643 -15.719154 0
M  V30 30 N 7.822537 0.164315 -14.268085 0
M  V30 31 C 9.527811 6.797313 -8.338655 0
M  V30 32 C 8.639456 5.842777 -18.313472 0 CFG=2
M  V30 33 O 6.820159 6.272031 -19.812671 0
M  V30 34 C 7.568997 2.704869 -16.106404 0
M  V30 35 H 8.360323 3.532917 -11.440986 0
M  V30 36 H 7.403809 4.167380 -14.576288 0
M  V30 37 H 8.601705 5.430858 -16.210786 0
M  V30 38 H 5.464760 5.791174 -12.174249 0
M  V30 39 H 5.691600 7.170849 -17.927023 0
M  V30 40 H 7.930575 7.748518 -19.031223 0
M  V30 41 H 7.241627 5.762222 -10.139375 0
M  V30 42 H 7.535195 6.425711 -11.723525 0
M  V30 43 H 5.005345 2.862414 -20.817517 0
M  V30 44 H 4.872933 3.746735 -22.328994 0
M  V30 45 H 6.292068 3.958705 -21.303724 0
M  V30 46 H 9.147630 8.340784 -7.252286 0
M  V30 47 H 4.238065 8.521477 -20.605467 0
M  V30 48 H 5.923219 0.260579 -13.431400 0
M  V30 49 H 5.964591 0.650110 -15.135719 0
M  V30 50 H 5.908500 4.971316 -17.491132 0
M  V30 51 H 8.645386 7.670382 -9.914457 0
M  V30 52 H 9.924291 6.023244 -11.546023 0
M  V30 53 H 9.740270 5.007467 -10.130221 0
M  V30 54 H 8.445284 4.381588 -19.953986 0
M  V30 55 H 9.536252 5.707626 -20.297187 0
M  V30 56 H 10.042832 4.423866 -19.216491 0
M  V30 57 H 4.761009 4.898877 -19.503913 0
M  V30 58 H 3.434212 4.825216 -20.615333 0
M  V30 59 H 6.327762 8.679565 -22.154930 0
M  V30 60 H 7.446241 8.824883 -20.826209 0
M  V30 61 H 7.659598 7.523485 -22.007349 0
M  V30 62 H 9.231103 3.283584 -17.283812 0
M  V30 63 H 7.693544 3.246376 -18.120695 0
M  V30 64 H 3.347870 7.545660 -18.753660 0
M  V30 65 H 7.734430 -0.821212 -14.487192 0
M  V30 66 H 8.345216 0.578862 -15.025372 0
M  V30 67 H 10.324196 6.093804 -8.090259 0
M  V30 68 H 8.576779 6.430346 -7.950579 0
M  V30 69 H 9.456464 6.463588 -17.946459 0
M  V30 70 H 7.395483 1.675204 -16.371510 0
M  V30 71 H 4.606330 4.542726 -12.979364 0
M  V30 72 H 10.295071 7.590732 -10.036278 0
M  V30 END ATOM
M  V30 BEGIN BOND
M  V30 1 1 5 1
M  V30 2 1 8 7
M  V30 3 1 9 1
M  V30 4 1 10 2
M  V30 5 1 11 9
M  V30 6 2 14 9
M  V30 7 1 15 1
M  V30 8 1 15 5
M  V30 9 1 17 4
M  V30 10 1 17 7
M  V30 11 1 20 10
M  V30 12 1 20 18
M  V30 13 1 1 22 CFG=1
M  V30 14 1 22 12
M  V30 15 1 23 5
M  V30 16 1 24 4
M  V30 17 1 25 3
M  V30 18 1 25 16
M  V30 19 2 25 19
M  V30 20 1 26 15
M  V30 21 2 27 2
M  V30 22 1 27 6
M  V30 23 1 27 19
M  V30 24 2 28 9
M  V30 25 1 29 17
M  V30 26 1 30 16
M  V30 27 1 31 13
M  V30 28 1 31 18
M  V30 29 1 32 4
M  V30 30 1 32 8
M  V30 31 1 32 21
M  V30 32 1 5 33 CFG=1
M  V30 33 1 33 8
M  V30 34 2 34 3
M  V30 35 1 34 24
M  V30 36 1 35 2
M  V30 37 1 36 3
M  V30 38 1 4 37 CFG=1
M  V30 39 1 38 6
M  V30 40 1 39 7
M  V30 41 1 8 40 CFG=3
M  V30 42 1 41 10
M  V30 43 1 42 10
M  V30 44 1 43 12
M  V30 45 1 44 12
M  V30 46 1 45 12
M  V30 47 1 46 13
M  V30 48 1 15 47 CFG=3
M  V30 49 1 48 16
M  V30 50 1 49 16
M  V30 51 1 17 50 CFG=3
M  V30 52 1 51 18
M  V30 53 1 52 20
M  V30 54 1 53 20
M  V30 55 1 54 21
M  V30 56 1 55 21
M  V30 57 1 56 21
M  V30 58 1 57 22
M  V30 59 1 58 22
M  V30 60 1 59 23
M  V30 61 1 60 23
M  V30 62 1 61 23
M  V30 63 1 62 24
M  V30 64 1 63 24
M  V30 65 1 64 26
M  V30 66 1 65 30
M  V30 67 1 66 30
M  V30 68 1 67 31
M  V30 69 1 68 31
M  V30 70 1 32 69 CFG=1
M  V30 71 1 70 34
M  V30 72 1 71 6
M  V30 73 1 72 18
M  V30 END BOND
M  V30 END CTAB
M  END
>  <i_epik_Tot_Q>  (1) 
0

>  <i_epik_Tot_abs_Q>  (1) 
2

>  <i_i_glide_confnum>  (1) 
699

>  <i_i_glide_lignum>  (1) 
26

>  <i_i_glide_posenum>  (1) 
263

>  <i_i_glide_rotatable_bonds>  (1) 
15

>  <i_lp_mmshare_version>  (1) 
72125

>  <i_m_source_file_index>  (1) 
11

>  <i_f3d_flags>  (1) 
0

>  <num_sample>  (1) 
50

>  <b_lp_Chiralities_Consistent>  (1) 
1

>  <r_epik_Charging_Adjusted_Penalty>  (1) 
0.33639934582642134

>  <r_epik_Ionization_Penalty>  (1) 
0.23315943830934333

>  <r_epik_Ionization_Penalty_Charging>  (1) 
0.10316865490585193

>  <r_epik_Ionization_Penalty_Neutral>  (1) 
0.12999078340349141

>  <r_epik_State_Penalty>  (1) 
0.23323069092056939

>  <r_glide_ring_energy>  (1) 
0

>  <r_i_docking_score>  (1) 
-4.6198925724902598

>  <r_i_glide_ecoul>  (1) 
-7.6652408601201625

>  <r_i_glide_eff_state_penalty>  (1) 
0.23323069092056939

>  <r_i_glide_einternal>  (1) 
6.6565630470981283

>  <r_i_glide_emodel>  (1) 
-46.854439494906977

>  <r_i_glide_emodel_strain>  (1) 
1.663110073011083

>  <r_i_glide_energy>  (1) 
-35.846803072259554

>  <r_i_glide_erotb>  (1) 
0.82510599487301828

>  <r_i_glide_esite>  (1) 
-0.25552090328272353

>  <r_i_glide_evdw>  (1) 
-28.18156221213939

>  <r_i_glide_gscore>  (1) 
-4.8531232634108292

>  <r_i_glide_gscore_strain>  (1) 
0

>  <r_i_glide_hbond>  (1) 
-0.34792283621276265

>  <r_i_glide_ligand_efficiency>  (1) 
-0.13587919330853704

>  <r_i_glide_ligand_efficiency_ln>  (1) 
-1.0206638528604679

>  <r_i_glide_ligand_efficiency_sa>  (1) 
-0.44019583819040115

>  <r_i_glide_lipo>  (1) 
-1.6495381008744043

>  <r_i_glide_metal>  (1) 
-0

>  <r_i_glide_rewards>  (1) 
-0.8663831782889625

>  <r_lp_Energy>  (1) 
25.865628999999998

>  <s_epik_Chemistry_Notes>  (1) 
This compound has an imine and may undergo hydrolysis. This compound contains an acetal/aminal-like group ( X-CH(R)-Y where X, Y are N, S, or O) that may be acid/base labile, releasing an aldehyde.

>  <s_epik_cmdline>  (1) 
J2VwaWtfcHl0aG9uJywgJy1waHQnLCAnMS4wJywgJy1waCcsICc3LjQnLCAnLXRuJywgJzgnLCAnLW1hJywgJzUwMCcsICctaW1hZScsICc8aW5maWxlLm1hZT4nLCAnLW9tYWUnLCAnPG91dGZpbGUubWFlPic=

>  <s_epik_input>  (1) 
W1NIXVMoPU8pKD1PKVtDQEBdMShbQ0gyXVtDSDNdKVtDQEBdKFtDSDNdKShbQ0BASF0xW09IXSlPW0NASF0oW0NAQEhdMltDSDNdKVtOSF1bQ0BASF0oRilbQ0BIXTJbQ0gyXVxbQ0hdPVtDSF1cQyhbQ0gyXVtOSDJdKT1OL0MoPU4vW0hdKS9bQ0gyXVtDSDJdW0NIMl1bTkhdW0NIMl1bT0hd

>  <s_glide_docking_method>  (1) 
confgen

>  <s_i_glide_gridfile>  (1) 
gpcr_drd2_6luq_protein_autoprepared_prepared

>  <s_lp_Force_Field>  (1) 
S-OPLS

>  <s_lp_Variant>  (1) 
DiffSBDD_10_num_sample_50-6

>  <s_m_source_file>  (1) 
generated__ligand_DiffSBDD_2026-05-06_prepared.sdf

>  <GenAI_Model>  (1) 
DiffSBDD

>  <Protein>  (1) 
generic_title2

$$$$
DiffSBDD_35_num_sample_50
     RDKit          3D

  0  0  0  0  0  0  0  0  0  0999 V3000
M  V30 BEGIN CTAB
M  V30 COUNTS 55 58 0 0 1
M  V30 BEGIN ATOM
M  V30 1 C 9.379936 6.242489 -10.691728 0
M  V30 2 C 5.306251 4.284795 -13.492069 0
M  V30 3 C 7.761686 4.753018 -14.084270 0 CFG=1
M  V30 4 O 8.243897 4.569299 -9.477866 0
M  V30 5 C 7.062119 2.777321 -12.569660 0
M  V30 6 O 10.665810 10.560612 -4.691633 0
M  V30 7 O 9.834934 4.344408 -12.120496 0
M  V30 8 C 10.889690 6.438942 -6.842568 0 CFG=1
M  V30 9 C 11.924493 8.196105 -8.332957 0 CFG=1
M  V30 10 C 10.701126 8.968924 -8.752928 0
M  V30 11 C 8.042864 5.733058 -12.919116 0
M  V30 12 C 6.687288 3.648776 -13.763113 0
M  V30 13 C 12.712088 8.721755 -7.214074 0 CFG=1
M  V30 14 C 11.435196 7.233692 -5.722607 0 CFG=2
M  V30 15 C 7.817384 1.601770 -14.564454 0
M  V30 16 C 11.156065 9.621492 -5.316483 0
M  V30 17 C 9.322074 5.453837 -9.344406 0 CFG=2
M  V30 18 C 12.375225 9.807486 -6.198119 0
M  V30 19 C 9.164461 5.349090 -11.931448 0
M  V30 20 O 7.398093 6.771373 -12.772114 0
M  V30 21 C 8.816986 6.297628 -8.217348 0
M  V30 22 C 9.490105 6.714399 -7.150490 0
M  V30 23 Cl 7.320332 5.642702 -15.570522 0
M  V30 24 O 10.686562 8.365985 -5.299181 0
M  V30 25 C 12.145126 7.290896 -7.093249 0 CFG=2
M  V30 26 C 8.070845 1.726803 -13.063369 0
M  V30 27 O 11.834786 6.341139 -4.710861 0
M  V30 28 C 6.656420 2.532544 -14.833477 0
M  V30 29 H 8.635318 7.038178 -10.688864 0
M  V30 30 H 10.346676 6.729433 -10.791244 0
M  V30 31 H 4.525463 3.532677 -13.403957 0
M  V30 32 H 5.304302 4.866857 -12.571058 0
M  V30 33 H 5.014940 4.967870 -14.291657 0
M  V30 34 H 8.703879 4.260046 -14.321654 0
M  V30 35 H 7.444883 5.079856 -9.516896 0
M  V30 36 H 7.398881 3.369320 -11.726565 0
M  V30 37 H 6.180049 2.241759 -12.217150 0
M  V30 38 H 11.085233 5.369428 -6.865119 0
M  V30 39 H 12.499591 7.875169 -9.198929 0
M  V30 40 H 10.068783 9.207513 -7.901370 0
M  V30 41 H 11.034839 9.868068 -9.266966 0
M  V30 42 H 10.100459 8.405373 -9.453780 0
M  V30 43 H 13.760423 8.812117 -7.482761 0
M  V30 44 H 7.595609 0.574943 -14.862332 0
M  V30 45 H 8.634819 1.949055 -15.171278 0
M  V30 46 H 10.234837 4.915066 -9.102918 0
M  V30 47 H 12.235596 10.765320 -6.691577 0
M  V30 48 H 13.231779 9.915427 -5.534531 0
M  V30 49 H 7.834845 6.569263 -8.291581 0
M  V30 50 H 8.954488 7.315879 -6.431242 0
M  V30 51 H 7.926819 0.773212 -12.549223 0
M  V30 52 H 9.096373 2.034617 -12.868748 0
M  V30 53 H 11.119893 5.743218 -4.541162 0
M  V30 54 H 5.834841 1.850659 -14.655869 0
M  V30 55 H 6.634836 2.887704 -15.862466 0
M  V30 END ATOM
M  V30 BEGIN BOND
M  V30 1 1 10 9
M  V30 2 1 11 3
M  V30 3 1 12 2
M  V30 4 1 12 3
M  V30 5 1 12 5
M  V30 6 1 13 9
M  V30 7 1 14 8
M  V30 8 2 16 6
M  V30 9 1 17 1
M  V30 10 1 17 4
M  V30 11 1 18 13
M  V30 12 1 18 16
M  V30 13 1 19 1
M  V30 14 2 19 7
M  V30 15 1 19 11
M  V30 16 2 20 11
M  V30 17 1 21 17
M  V30 18 1 22 8
M  V30 19 2 22 21
M  V30 20 1 23 3
M  V30 21 1 24 14
M  V30 22 1 24 16
M  V30 23 1 25 8
M  V30 24 1 25 9
M  V30 25 1 25 13
M  V30 26 1 25 14 CFG=3
M  V30 27 1 26 5
M  V30 28 1 26 15
M  V30 29 1 14 27 CFG=1
M  V30 30 1 28 12
M  V30 31 1 28 15
M  V30 32 1 29 1
M  V30 33 1 30 1
M  V30 34 1 31 2
M  V30 35 1 32 2
M  V30 36 1 33 2
M  V30 37 1 3 34 CFG=3
M  V30 38 1 35 4
M  V30 39 1 36 5
M  V30 40 1 37 5
M  V30 41 1 8 38 CFG=1
M  V30 42 1 9 39 CFG=3
M  V30 43 1 40 10
M  V30 44 1 41 10
M  V30 45 1 42 10
M  V30 46 1 13 43 CFG=3
M  V30 47 1 44 15
M  V30 48 1 45 15
M  V30 49 1 17 46 CFG=1
M  V30 50 1 47 18
M  V30 51 1 48 18
M  V30 52 1 49 21
M  V30 53 1 50 22
M  V30 54 1 51 26
M  V30 55 1 52 26
M  V30 56 1 53 27
M  V30 57 1 54 28
M  V30 58 1 55 28
M  V30 END BOND
M  V30 END CTAB
M  END
>  <i_epik_Tot_Q>  (1) 
0

>  <i_epik_Tot_abs_Q>  (1) 
0

>  <i_i_glide_confnum>  (1) 
714

>  <i_i_glide_lignum>  (1) 
89

>  <i_i_glide_posenum>  (1) 
294

>  <i_i_glide_rotatable_bonds>  (1) 
9

>  <i_lp_mmshare_version>  (1) 
72125

>  <i_m_source_file_index>  (1) 
36

>  <i_f3d_flags>  (1) 
0

>  <num_sample>  (1) 
50

>  <b_lp_Chiralities_Consistent>  (1) 
1

>  <r_epik_Charging_Adjusted_Penalty>  (1) 
0

>  <r_epik_Ionization_Penalty>  (1) 
1.4539570635880344e-05

>  <r_epik_Ionization_Penalty_Charging>  (1) 
0

>  <r_epik_Ionization_Penalty_Neutral>  (1) 
1.4539570635880344e-05

>  <r_epik_State_Penalty>  (1) 
-0

>  <r_glide_ring_energy>  (1) 
0.0026967274923194477

>  <r_i_docking_score>  (1) 
-4.6195421067414806

>  <r_i_glide_ecoul>  (1) 
-2.9370279879938725

>  <r_i_glide_eff_state_penalty>  (1) 
-0

>  <r_i_glide_einternal>  (1) 
7.3837288563779797

>  <r_i_glide_emodel>  (1) 
-17.473691262987362

>  <r_i_glide_emodel_strain>  (1) 
3.1045578593598577

>  <r_i_glide_energy>  (1) 
-18.626904899907174

>  <r_i_glide_erotb>  (1) 
0.81694813045343473

>  <r_i_glide_esite>  (1) 
0

>  <r_i_glide_evdw>  (1) 
-15.6898769119133

>  <r_i_glide_gscore>  (1) 
-4.6195421067414806

>  <r_i_glide_gscore_strain>  (1) 
0

>  <r_i_glide_hbond>  (1) 
0

>  <r_i_glide_ligand_efficiency>  (1) 
-0.1649836466693386

>  <r_i_glide_ligand_efficiency_ln>  (1) 
-1.0663259538859249

>  <r_i_glide_ligand_efficiency_sa>  (1) 
-0.50098752201594454

>  <r_i_glide_lipo>  (1) 
-1.9400408098484476

>  <r_i_glide_metal>  (1) 
-0

>  <r_i_glide_rewards>  (1) 
-2.2714013835517219

>  <r_lp_Energy>  (1) 
34.744050999999999

>  <r_lp_tautomer_probability>  (1) 
1

>  <s_epik_Chemistry_Notes>  (1) 
This compound has an ester and may undergo hydrolysis at high or low pH.

>  <s_epik_cmdline>  (1) 
J2VwaWtfcHl0aG9uJywgJy1waHQnLCAnMS4wJywgJy1waCcsICc3LjQnLCAnLXRuJywgJzgnLCAnLW1hJywgJzUwMCcsICctaW1hZScsICc8aW5maWxlLm1hZT4nLCAnLW9tYWUnLCAnPG91dGZpbGUubWFlPic=

>  <s_epik_input>  (1) 
W0NIMl0xW0NIMl1bQ0gyXVtDSDJdQzEoW0NIM10pW0NAQEhdKENsKUMoPU8pQyg9TylbQ0gyXVtDQEhdKFtPSF0pL1tDSF09W0NIXVxbQ0BASF0yW0NAXTMoW09IXSlPQyg9TylbQ0gyXVtDQEBIXShDMjM0KVtDQEBIXTRbQ0gzXQ==

>  <s_glide_docking_method>  (1) 
confgen

>  <s_i_glide_gridfile>  (1) 
gpcr_drd2_6luq_protein_autoprepared_prepared

>  <s_lp_Force_Field>  (1) 
S-OPLS

>  <s_lp_Variant>  (1) 
DiffSBDD_35_num_sample_50-1

>  <s_m_source_file>  (1) 
generated__ligand_DiffSBDD_2026-05-06_prepared.sdf

>  <GenAI_Model>  (1) 
DiffSBDD

>  <Protein>  (1) 
generic_title2

$$$$
DiffSBDD_10_num_sample_50
     RDKit          3D

  0  0  0  0  0  0  0  0  0  0999 V3000
M  V30 BEGIN CTAB
M  V30 COUNTS 73 74 0 0 1
M  V30 BEGIN ATOM
M  V30 1 C 6.193703 7.520625 -21.635103 0 CFG=2
M  V30 2 C 9.531259 8.393017 -10.143106 0
M  V30 3 C 6.952091 6.757891 -13.588818 0
M  V30 4 C 5.746344 6.386657 -16.376237 0 CFG=1
M  V30 5 C 6.029205 6.191654 -20.893885 0 CFG=2
M  V30 6 N 10.819507 6.969301 -11.602181 0
M  V30 7 N 6.487958 4.989933 -18.151009 0
M  V30 8 C 5.309436 5.640317 -18.629732 0 CFG=1
M  V30 9 S 5.880440 7.474263 -23.464920 0
M  V30 10 C 10.520179 8.408166 -8.991046 0
M  V30 11 S 3.826245 6.943007 -23.490636 0 CHG=-1
M  V30 12 C 4.457640 9.329553 -21.092919 0
M  V30 13 O 11.834721 8.946131 -4.846090 0
M  V30 14 O 5.991218 8.844301 -23.986403 0
M  V30 15 C 7.409525 6.678887 -21.267510 0 CFG=2
M  V30 16 C 7.769943 5.598340 -11.479824 0
M  V30 17 C 6.995761 5.799603 -17.063515 0 CFG=2
M  V30 18 N 10.628611 8.079980 -6.480417 0 CHG=1
M  V30 19 N 8.741365 7.721330 -12.291663 0
M  V30 20 C 9.755555 8.177252 -7.670338 0
M  V30 21 C 4.033598 7.726628 -17.856056 0
M  V30 22 C 5.931205 8.902495 -21.025170 0
M  V30 23 C 5.436453 4.899020 -21.447279 0
M  V30 24 C 5.970456 7.754693 -15.687639 0
M  V30 25 C 7.888492 6.773553 -12.448593 0
M  V30 26 O 8.100095 6.982344 -20.076417 0
M  V30 27 C 9.706266 7.715814 -11.292753 0
M  V30 28 O 6.647647 6.376366 -24.069899 0
M  V30 29 F 7.735078 5.057820 -16.240305 0
M  V30 30 N 6.539061 5.769298 -10.691666 0 CHG=1
M  V30 31 C 11.320332 9.325492 -6.100840 0
M  V30 32 C 4.643823 6.375628 -17.451393 0 CFG=2
M  V30 33 O 5.610471 6.588465 -19.591367 0
M  V30 34 C 6.921238 7.734549 -14.511917 0
M  V30 35 H 8.634829 8.969316 -10.002486 0
M  V30 36 H 6.284149 5.911759 -13.640677 0
M  V30 37 H 5.422403 5.667713 -15.624574 0
M  V30 38 H 11.629537 6.959136 -11.002653 0
M  V30 39 H 7.186892 4.863364 -18.870031 0
M  V30 40 H 4.634850 4.917322 -19.080349 0
M  V30 41 H 11.032150 9.369317 -8.990055 0
M  V30 42 H 11.285352 7.642440 -9.121417 0
M  V30 43 H 4.257633 10.169308 -20.431461 0
M  V30 44 H 4.171371 9.623702 -22.102269 0
M  V30 45 H 3.800724 8.515001 -20.790600 0
M  V30 46 H 12.190525 9.709208 -4.412399 0
M  V30 47 H 7.990900 6.129966 -22.004989 0
M  V30 48 H 7.715866 4.665636 -12.043386 0
M  V30 49 H 8.618031 5.502640 -10.802991 0
M  V30 50 H 7.630336 6.569316 -17.491693 0
M  V30 51 H 11.312268 7.350135 -6.619491 0
M  V30 52 H 9.189792 7.246603 -7.741241 0
M  V30 53 H 9.019191 8.967402 -7.513922 0
M  V30 54 H 4.813602 8.420207 -18.169327 0
M  V30 55 H 3.341508 7.617286 -18.686973 0
M  V30 56 H 3.472534 8.169306 -17.032366 0
M  V30 57 H 6.236090 8.906986 -19.981904 0
M  V30 58 H 6.561233 9.641796 -21.521123 0
M  V30 59 H 5.747540 4.719031 -22.472947 0
M  V30 60 H 5.766505 4.043333 -20.858936 0
M  V30 61 H 4.347256 4.940964 -21.421176 0
M  V30 62 H 5.027449 8.159468 -15.319811 0
M  V30 63 H 6.350239 8.477696 -16.407079 0
M  V30 64 H 7.428465 7.210423 -19.447066 0
M  V30 65 H 6.421030 5.020315 -10.024540 0
M  V30 66 H 6.634843 6.665252 -10.168837 0
M  V30 67 H 10.634823 10.164944 -5.988799 0
M  V30 68 H 12.116682 9.587698 -6.798237 0
M  V30 69 H 3.822243 5.769307 -17.085825 0
M  V30 70 H 7.597927 8.569284 -14.432822 0
M  V30 71 H 10.932856 6.540209 -12.512136 0
M  V30 72 H 10.047326 7.812154 -5.699094 0
M  V30 73 H 5.733663 5.832380 -11.294006 0
M  V30 END ATOM
M  V30 BEGIN BOND
M  V30 1 1 5 1
M  V30 2 1 8 7
M  V30 3 1 9 1
M  V30 4 1 10 2
M  V30 5 1 11 9
M  V30 6 2 14 9
M  V30 7 1 15 1
M  V30 8 1 15 5
M  V30 9 1 17 4
M  V30 10 1 17 7
M  V30 11 1 20 10
M  V30 12 1 20 18
M  V30 13 1 1 22 CFG=1
M  V30 14 1 22 12
M  V30 15 1 23 5
M  V30 16 1 24 4
M  V30 17 1 25 3
M  V30 18 1 25 16
M  V30 19 2 25 19
M  V30 20 1 26 15
M  V30 21 2 27 2
M  V30 22 1 27 6
M  V30 23 1 27 19
M  V30 24 2 28 9
M  V30 25 1 29 17
M  V30 26 1 30 16
M  V30 27 1 31 13
M  V30 28 1 31 18
M  V30 29 1 32 4
M  V30 30 1 32 8
M  V30 31 1 32 21
M  V30 32 1 5 33 CFG=1
M  V30 33 1 33 8
M  V30 34 2 34 3
M  V30 35 1 34 24
M  V30 36 1 35 2
M  V30 37 1 36 3
M  V30 38 1 4 37 CFG=1
M  V30 39 1 38 6
M  V30 40 1 39 7
M  V30 41 1 8 40 CFG=3
M  V30 42 1 41 10
M  V30 43 1 42 10
M  V30 44 1 43 12
M  V30 45 1 44 12
M  V30 46 1 45 12
M  V30 47 1 46 13
M  V30 48 1 15 47 CFG=3
M  V30 49 1 48 16
M  V30 50 1 49 16
M  V30 51 1 17 50 CFG=3
M  V30 52 1 51 18
M  V30 53 1 52 20
M  V30 54 1 53 20
M  V30 55 1 54 21
M  V30 56 1 55 21
M  V30 57 1 56 21
M  V30 58 1 57 22
M  V30 59 1 58 22
M  V30 60 1 59 23
M  V30 61 1 60 23
M  V30 62 1 61 23
M  V30 63 1 62 24
M  V30 64 1 63 24
M  V30 65 1 64 26
M  V30 66 1 65 30
M  V30 67 1 66 30
M  V30 68 1 67 31
M  V30 69 1 68 31
M  V30 70 1 32 69 CFG=1
M  V30 71 1 70 34
M  V30 72 1 71 6
M  V30 73 1 72 18
M  V30 74 1 73 30
M  V30 END BOND
M  V30 END CTAB
M  END
>  <i_epik_Tot_Q>  (1) 
1

>  <i_epik_Tot_abs_Q>  (1) 
3

>  <i_i_glide_confnum>  (1) 
3554

>  <i_i_glide_lignum>  (1) 
36

>  <i_i_glide_posenum>  (1) 
26

>  <i_i_glide_rotatable_bonds>  (1) 
15

>  <i_lp_mmshare_version>  (1) 
72125

>  <i_m_source_file_index>  (1) 
11

>  <i_f3d_flags>  (1) 
0

>  <num_sample>  (1) 
50

>  <b_lp_Chiralities_Consistent>  (1) 
1

>  <r_epik_Charging_Adjusted_Penalty>  (1) 
2.168687317063887

>  <r_epik_Ionization_Penalty>  (1) 
1.1047352072338965

>  <r_epik_Ionization_Penalty_Charging>  (1) 
1.0999234457570315

>  <r_epik_Ionization_Penalty_Neutral>  (1) 
0.0048117614768649203

>  <r_epik_State_Penalty>  (1) 
1.0687638713068555

>  <r_glide_ring_energy>  (1) 
0

>  <r_i_docking_score>  (1) 
-4.5844325887575428

>  <r_i_glide_ecoul>  (1) 
-9.2339128307078262

>  <r_i_glide_eff_state_penalty>  (1) 
1.0687638713068555

>  <r_i_glide_einternal>  (1) 
13.412083068717143

>  <r_i_glide_emodel>  (1) 
-53.597990626539762

>  <r_i_glide_emodel_strain>  (1) 
1.3251443048184086

>  <r_i_glide_energy>  (1) 
-40.279387708346533

>  <r_i_glide_erotb>  (1) 
0.82219216958862984

>  <r_i_glide_esite>  (1) 
-0.14739822788585483

>  <r_i_glide_evdw>  (1) 
-31.045474877638707

>  <r_i_glide_gscore>  (1) 
-5.6531964600643985

>  <r_i_glide_gscore_strain>  (1) 
0

>  <r_i_glide_hbond>  (1) 
-0.13693873498672654

>  <r_i_glide_ligand_efficiency>  (1) 
-0.13483625261051596

>  <r_i_glide_ligand_efficiency_ln>  (1) 
-1.012829747835057

>  <r_i_glide_ligand_efficiency_sa>  (1) 
-0.43681711519705946

>  <r_i_glide_lipo>  (1) 
-1.7897263861136599

>  <r_i_glide_metal>  (1) 
-0

>  <r_i_glide_rewards>  (1) 
-1.4639646121786778

>  <r_lp_Energy>  (1) 
20.091348

>  <s_epik_Chemistry_Notes>  (1) 
This compound has an imine and may undergo hydrolysis. This compound contains an acetal/aminal-like group ( X-CH(R)-Y where X, Y are N, S, or O) that may be acid/base labile, releasing an aldehyde.

>  <s_epik_cmdline>  (1) 
J2VwaWtfcHl0aG9uJywgJy1waHQnLCAnMS4wJywgJy1waCcsICc3LjQnLCAnLXRuJywgJzgnLCAnLW1hJywgJzUwMCcsICctaW1hZScsICc8aW5maWxlLm1hZT4nLCAnLW9tYWUnLCAnPG91dGZpbGUubWFlPic=

>  <s_epik_input>  (1) 
W1NIXVMoPU8pKD1PKVtDQEBdMShbQ0gyXVtDSDNdKVtDQEBdKFtDSDNdKShbQ0BASF0xW09IXSlPW0NASF0oW0NAQEhdMltDSDNdKVtOSF1bQ0BASF0oRilbQ0BIXTJbQ0gyXVxbQ0hdPVtDSF1cQyhbQ0gyXVtOSDJdKT1OXEMoPU5cW0hdKVxbQ0gyXVtDSDJdW0NIMl1bTkhdW0NIMl1bT0hd

>  <s_glide_docking_method>  (1) 
confgen

>  <s_i_glide_gridfile>  (1) 
gpcr_drd2_6luq_protein_autoprepared_prepared

>  <s_lp_Force_Field>  (1) 
S-OPLS

>  <s_lp_Variant>  (1) 
DiffSBDD_10_num_sample_50-16

>  <s_m_source_file>  (1) 
generated__ligand_DiffSBDD_2026-05-06_prepared.sdf

>  <GenAI_Model>  (1) 
DiffSBDD

>  <Protein>  (1) 
generic_title2

$$$$
DiffSBDD_33_num_sample_50
     RDKit          3D

  0  0  0  0  0  0  0  0  0  0999 V3000
M  V30 BEGIN CTAB
M  V30 COUNTS 69 72 0 0 1
M  V30 BEGIN ATOM
M  V30 1 O 5.191647 -1.780254 -16.687956 0
M  V30 2 C 6.820547 0.386104 -14.386472 0
M  V30 3 O 6.716008 -0.591314 -18.659247 0
M  V30 4 C 7.468234 1.228417 -17.230901 0
M  V30 5 C 9.435204 6.484324 -11.097876 0
M  V30 6 C 9.734232 3.438385 -16.691591 0
M  V30 7 C 5.642123 5.365666 -14.242838 0
M  V30 8 C 5.461684 -2.618587 -18.894336 0
M  V30 9 N 7.027200 1.705323 -14.872569 0
M  V30 10 C 6.859307 5.803856 -15.063663 0
M  V30 11 C 7.056698 5.187028 -12.177137 0
M  V30 12 C 8.341797 3.314925 -16.083272 0
M  V30 13 N 5.775427 -0.230476 -15.118570 0
M  V30 14 C 5.789088 5.779862 -12.774925 0 CFG=1
M  V30 15 N 9.224592 6.933195 -8.076661 0 CHG=1
M  V30 16 C 8.310689 5.526231 -12.990908 0
M  V30 17 C 5.528412 -1.133997 -19.216984 0 CFG=2
M  V30 18 C 6.684392 -0.032259 -17.395068 0
M  V30 19 C 8.813642 6.645992 -6.692108 0
M  V30 20 C 9.845505 8.268605 -8.194888 0
M  V30 21 N 9.372175 6.004283 -12.469382 0
M  V30 22 C 8.195496 5.252769 -14.499662 0 CFG=1
M  V30 23 F 5.520596 -0.999878 -20.538582 0
M  V30 24 C 5.733838 7.300917 -12.552047 0
M  V30 25 C 5.910186 -0.635941 -16.418828 0
M  V30 26 O 8.353006 3.860112 -14.747159 0
M  V30 27 C 5.830698 -2.806103 -17.435836 0
M  V30 28 C 10.030021 5.846215 -8.683790 0
M  V30 29 C 9.432199 5.374186 -10.016096 0
M  V30 30 C 8.608722 4.237913 -17.280419 0
M  V30 31 C 7.576813 2.006464 -16.100760 0
M  V30 32 F 8.094182 1.669024 -18.332698 0
M  V30 33 H 6.544325 0.424673 -13.333774 0
M  V30 34 H 7.736450 -0.202781 -14.463926 0
M  V30 35 H 10.360490 7.051920 -11.012862 0
M  V30 36 H 8.641871 7.210287 -10.902865 0
M  V30 37 H 10.494586 4.029624 -16.184535 0
M  V30 38 H 10.119446 2.606072 -17.277284 0
M  V30 39 H 5.549038 4.280767 -14.291583 0
M  V30 40 H 4.728249 5.769198 -14.672113 0
M  V30 41 H 4.455342 -2.988545 -19.091286 0
M  V30 42 H 6.145933 -3.190646 -19.520724 0
M  V30 43 H 7.169905 2.395863 -14.145291 0
M  V30 44 H 6.908459 6.892550 -15.085570 0
M  V30 45 H 6.696955 5.509868 -16.097478 0
M  V30 46 H 6.977264 4.101949 -12.103796 0
M  V30 47 H 4.980354 5.333218 -12.209707 0
M  V30 48 H 4.642968 -0.598819 -18.866678 0
M  V30 49 H 5.158295 -0.798242 -14.545743 0
M  V30 50 H 9.668345 6.472885 -6.037054 0
M  V30 51 H 8.235993 7.478944 -6.291501 0
M  V30 52 H 8.171246 5.769617 -6.669747 0
M  V30 53 H 10.756412 8.332542 -7.598025 0
M  V30 54 H 10.096640 8.503503 -9.228518 0
M  V30 55 H 9.144231 9.028874 -7.848985 0
M  V30 56 H 9.019525 5.768118 -14.991246 0
M  V30 57 H 6.648762 7.769311 -12.904343 0
M  V30 58 H 4.905548 7.768839 -13.075026 0
M  V30 59 H 5.633142 7.547790 -11.494130 0
M  V30 60 H 5.481435 -3.775171 -17.080007 0
M  V30 61 H 6.913731 -2.794817 -17.296471 0
M  V30 62 H 10.066784 4.993440 -8.007860 0
M  V30 63 H 11.061129 6.168970 -8.809546 0
M  V30 64 H 8.436673 5.003261 -9.789787 0
M  V30 65 H 9.957993 4.497819 -10.387307 0
M  V30 66 H 8.241559 3.956654 -18.263664 0
M  V30 67 H 8.684214 5.313002 -17.142895 0
M  V30 68 H 8.352810 6.998271 -8.604571 0
M  V30 69 H 7.077072 5.569720 -11.165724 0
M  V30 END ATOM
M  V30 BEGIN BOND
M  V30 1 1 9 2
M  V30 2 1 10 7
M  V30 3 1 12 6
M  V30 4 1 13 2
M  V30 5 1 14 7
M  V30 6 1 14 11
M  V30 7 1 16 11
M  V30 8 1 17 3
M  V30 9 1 17 8
M  V30 10 1 18 3
M  V30 11 1 18 4
M  V30 12 1 19 15
M  V30 13 1 20 15
M  V30 14 1 21 5
M  V30 15 2 21 16
M  V30 16 1 22 10
M  V30 17 1 22 16
M  V30 18 1 23 17
M  V30 19 1 24 14
M  V30 20 1 25 1
M  V30 21 1 25 13
M  V30 22 2 25 18
M  V30 23 1 26 12
M  V30 24 1 26 22
M  V30 25 1 27 1
M  V30 26 1 27 8
M  V30 27 1 28 15
M  V30 28 1 29 5
M  V30 29 1 29 28
M  V30 30 1 30 6
M  V30 31 1 30 12
M  V30 32 2 31 4
M  V30 33 1 31 9
M  V30 34 1 31 12
M  V30 35 1 32 4
M  V30 36 1 33 2
M  V30 37 1 34 2
M  V30 38 1 35 5
M  V30 39 1 36 5
M  V30 40 1 37 6
M  V30 41 1 38 6
M  V30 42 1 39 7
M  V30 43 1 40 7
M  V30 44 1 41 8
M  V30 45 1 42 8
M  V30 46 1 43 9
M  V30 47 1 44 10
M  V30 48 1 45 10
M  V30 49 1 46 11
M  V30 50 1 14 47 CFG=1
M  V30 51 1 17 48 CFG=1
M  V30 52 1 49 13
M  V30 53 1 50 19
M  V30 54 1 51 19
M  V30 55 1 52 19
M  V30 56 1 53 20
M  V30 57 1 54 20
M  V30 58 1 55 20
M  V30 59 1 22 56 CFG=3
M  V30 60 1 57 24
M  V30 61 1 58 24
M  V30 62 1 59 24
M  V30 63 1 60 27
M  V30 64 1 61 27
M  V30 65 1 62 28
M  V30 66 1 63 28
M  V30 67 1 64 29
M  V30 68 1 65 29
M  V30 69 1 66 30
M  V30 70 1 67 30
M  V30 71 1 68 15
M  V30 72 1 69 11
M  V30 END BOND
M  V30 END CTAB
M  END
>  <i_epik_Tot_Q>  (1) 
1

>  <i_epik_Tot_abs_Q>  (1) 
1

>  <i_i_glide_confnum>  (1) 
82

>  <i_i_glide_lignum>  (1) 
84

>  <i_i_glide_posenum>  (1) 
332

>  <i_i_glide_rotatable_bonds>  (1) 
7

>  <i_lp_mmshare_version>  (1) 
72125

>  <i_m_source_file_index>  (1) 
34

>  <i_f3d_flags>  (1) 
0

>  <num_sample>  (1) 
50

>  <b_lp_Chiralities_Consistent>  (1) 
1

>  <r_epik_Charging_Adjusted_Penalty>  (1) 
0.41789118993368612

>  <r_epik_Ionization_Penalty>  (1) 
0.0076682513750627552

>  <r_epik_Ionization_Penalty_Charging>  (1) 
0.0072113509810821487

>  <r_epik_Ionization_Penalty_Neutral>  (1) 
0.0004569003939806066

>  <r_epik_State_Penalty>  (1) 
0.41067983895260396

>  <r_glide_ring_energy>  (1) 
1.3422813252046473

>  <r_i_docking_score>  (1) 
-4.5753672855712582

>  <r_i_glide_ecoul>  (1) 
-5.2566839460945562

>  <r_i_glide_eff_state_penalty>  (1) 
0.41067983895260396

>  <r_i_glide_einternal>  (1) 
11.885032378167134

>  <r_i_glide_emodel>  (1) 
-45.611622590042479

>  <r_i_glide_emodel_strain>  (1) 
1.0255723063118296

>  <r_i_glide_energy>  (1) 
-37.74244145454589

>  <r_i_glide_erotb>  (1) 
0.40655192622224545

>  <r_i_glide_esite>  (1) 
-0.1306288341434334

>  <r_i_glide_evdw>  (1) 
-32.485757508451336

>  <r_i_glide_gscore>  (1) 
-4.9860471245238625

>  <r_i_glide_gscore_strain>  (1) 
0

>  <r_i_glide_hbond>  (1) 
-0.33805977648361873

>  <r_i_glide_ligand_efficiency>  (1) 
-0.14298022767410182

>  <r_i_glide_ligand_efficiency_ln>  (1) 
-1.0245494550411725

>  <r_i_glide_ligand_efficiency_sa>  (1) 
-0.45393392764104384

>  <r_i_glide_lipo>  (1) 
-1.016522708798218

>  <r_i_glide_metal>  (1) 
-0

>  <r_i_glide_rewards>  (1) 
-1.4945972639840868

>  <r_lp_Energy>  (1) 
52.499913999999997

>  <r_lp_tautomer_probability>  (1) 
0.49999519497573586

>  <s_epik_Chemistry_Notes>  (1) 
This compound has an imine and may undergo hydrolysis. This compound contains an acetal/aminal-like group ( X-CH(R)-Y where X, Y are N, S, or O) that may be acid/base labile, releasing an aldehyde.

>  <s_epik_cmdline>  (1) 
J2VwaWtfcHl0aG9uJywgJy1waHQnLCAnMS4wJywgJy1waCcsICc3LjQnLCAnLXRuJywgJzgnLCAnLW1hJywgJzUwMCcsICctaW1hZScsICc8aW5maWxlLm1hZT4nLCAnLW9tYWUnLCAnPG91dGZpbGUubWFlPic=

>  <s_epik_input>  (1) 
TzFbQ0BASF0oRilbQ0gyXVtDSDJdT0MoW0NAQEhdMTIpPU5bQ0gyXVtOSF1DKD1DMkYpQzMoW0NIMl1bQ0gyXTMpT1tDQEBIXShbQ0gyXVtDSDJdW0NAQEhdNFtDSDNdKUMoPVtDSF00KVtOSF1bQ0gyXVtDSDJdW0NIMl1OKFtDSDNdKVtDSDNd

>  <s_glide_docking_method>  (1) 
confgen

>  <s_i_glide_gridfile>  (1) 
gpcr_drd2_6luq_protein_autoprepared_prepared

>  <s_lp_Force_Field>  (1) 
S-OPLS

>  <s_lp_Variant>  (1) 
DiffSBDD_33_num_sample_50-2

>  <s_m_source_file>  (1) 
generated__ligand_DiffSBDD_2026-05-06_prepared.sdf

>  <GenAI_Model>  (1) 
DiffSBDD

>  <Protein>  (1) 
generic_title2

$$$$
DiffSBDD_31_num_sample_50
     RDKit          3D

  0  0  0  0  0  0  0  0  0  0999 V3000
M  V30 BEGIN CTAB
M  V30 COUNTS 71 76 0 0 1
M  V30 BEGIN ATOM
M  V30 1 C 10.602293 5.348232 -22.314606 0
M  V30 2 C 8.197458 6.054719 -21.005927 0
M  V30 3 C 7.866315 4.699735 -9.131386 0
M  V30 4 C 5.896566 6.685536 -13.462074 0
M  V30 5 C 7.472820 5.520266 -11.885353 0
M  V30 6 C 7.494121 4.535070 -16.989545 0
M  V30 7 C 9.394556 7.128360 -11.532502 0 CFG=2
M  V30 8 C 5.787018 6.822729 -21.249387 0
M  V30 9 F 11.753696 5.009434 -22.941219 0
M  V30 10 C 10.544817 6.514433 -21.531241 0
M  V30 11 C 6.915512 6.429151 -20.307759 0
M  V30 12 C 7.283933 4.819984 -14.386301 0
M  V30 13 C 5.702189 6.904274 -17.238106 0
M  V30 14 C 5.426586 5.884461 -18.356690 0
M  V30 15 C 7.788403 5.278823 -18.310711 0
M  V30 16 C 9.347887 6.868072 -20.878636 0
M  V30 17 F 8.769242 8.173838 -12.080613 0
M  V30 18 C 9.463695 4.533746 -22.446695 0
M  V30 19 C 8.265259 4.884362 -21.795286 0
M  V30 20 C 8.615315 5.650900 -9.729144 0
M  V30 21 N 6.611051 5.542110 -19.151634 0
M  V30 22 C 5.834852 7.314471 -14.853570 0
M  V30 23 C 10.576794 6.665234 -12.434305 0
M  V30 24 C 7.221582 5.939488 -13.333288 0 CFG=1
M  V30 25 O 10.234838 5.769299 -13.454553 0
M  V30 26 C 6.412679 7.867138 -20.359537 0
M  V30 27 C 6.622131 3.477436 -14.138447 0
M  V30 28 C 8.443040 6.045826 -11.081074 0
M  V30 29 C 9.892972 7.549397 -10.066572 0 CFG=2
M  V30 30 O 11.213602 8.057261 -10.007184 0
M  V30 31 C 8.121333 3.580742 -14.103242 0
M  V30 32 C 7.227599 5.483477 -15.786485 0 CFG=2
M  V30 33 N 5.957273 6.280140 -15.915459 0 CFG=2 CHG=1
M  V30 34 C 9.672950 6.393331 -8.997674 0
M  V30 35 H 8.028506 4.446615 -8.094434 0
M  V30 36 H 7.090358 4.169283 -9.653941 0
M  V30 37 H 5.055021 6.010483 -13.303160 0
M  V30 38 H 5.825055 7.463405 -12.700306 0
M  V30 39 H 6.811143 4.764633 -11.503505 0
M  V30 40 H 6.726004 3.775622 -17.118063 0
M  V30 41 H 8.407318 3.979961 -16.790336 0
M  V30 42 H 6.014786 6.890816 -22.311749 0
M  V30 43 H 4.765540 6.522939 -21.033045 0
M  V30 44 H 11.419857 7.139647 -21.429820 0
M  V30 45 H 4.810733 7.529624 -17.158976 0
M  V30 46 H 6.517855 7.577361 -17.485148 0
M  V30 47 H 5.034837 4.969293 -17.924598 0
M  V30 48 H 4.615309 6.242174 -18.984820 0
M  V30 49 H 8.472937 4.655861 -18.887417 0
M  V30 50 H 8.328219 6.204211 -18.108938 0
M  V30 51 H 9.309929 7.765106 -20.278040 0
M  V30 52 H 9.508672 3.638332 -23.047940 0
M  V30 53 H 7.393582 4.254877 -21.898708 0
M  V30 54 H 4.907381 7.875414 -14.957114 0
M  V30 55 H 6.637026 8.046248 -14.970629 0
M  V30 56 H 11.367537 6.169295 -11.891627 0
M  V30 57 H 11.045164 7.522962 -12.902810 0
M  V30 58 H 7.979225 6.658529 -13.618876 0
M  V30 59 H 10.937412 5.127092 -13.540444 0
M  V30 60 H 5.762060 8.265563 -19.586398 0
M  V30 61 H 7.046802 8.609317 -20.840252 0
M  V30 62 H 6.102636 3.320092 -13.195549 0
M  V30 63 H 6.234846 2.910247 -14.977727 0
M  V30 64 H 9.249262 8.373050 -9.751173 0
M  V30 65 H 11.367792 8.375083 -9.130370 0
M  V30 66 H 8.634835 3.077572 -14.912140 0
M  V30 67 H 8.601683 3.474003 -13.133358 0
M  V30 68 H 8.069292 6.169307 -15.806214 0
M  V30 69 H 9.327764 6.769340 -8.033251 0
M  V30 70 H 10.553867 5.768188 -8.861597 0
M  V30 71 H 5.204444 5.625730 -15.760817 0
M  V30 END ATOM
M  V30 BEGIN BOND
M  V30 1 1 9 1
M  V30 2 1 10 1
M  V30 3 1 11 2
M  V30 4 1 11 8
M  V30 5 1 14 13
M  V30 6 1 15 6
M  V30 7 1 16 2
M  V30 8 2 16 10
M  V30 9 1 7 17 CFG=3
M  V30 10 2 18 1
M  V30 11 2 19 2
M  V30 12 1 19 18
M  V30 13 2 20 3
M  V30 14 1 21 11
M  V30 15 1 21 14
M  V30 16 1 21 15
M  V30 17 1 22 4
M  V30 18 1 23 7
M  V30 19 1 24 4
M  V30 20 1 24 5
M  V30 21 1 24 12
M  V30 22 1 25 23
M  V30 23 1 26 8
M  V30 24 1 26 11
M  V30 25 1 27 12
M  V30 26 2 28 5
M  V30 27 1 28 7
M  V30 28 1 28 20
M  V30 29 1 29 7
M  V30 30 1 30 29
M  V30 31 1 31 12
M  V30 32 1 31 27
M  V30 33 1 32 6
M  V30 34 1 32 12
M  V30 35 1 33 13
M  V30 36 1 33 22
M  V30 37 1 33 32
M  V30 38 1 34 20
M  V30 39 1 34 29
M  V30 40 1 35 3
M  V30 41 1 36 3
M  V30 42 1 37 4
M  V30 43 1 38 4
M  V30 44 1 39 5
M  V30 45 1 40 6
M  V30 46 1 41 6
M  V30 47 1 42 8
M  V30 48 1 43 8
M  V30 49 1 44 10
M  V30 50 1 45 13
M  V30 51 1 46 13
M  V30 52 1 47 14
M  V30 53 1 48 14
M  V30 54 1 49 15
M  V30 55 1 50 15
M  V30 56 1 51 16
M  V30 57 1 52 18
M  V30 58 1 53 19
M  V30 59 1 54 22
M  V30 60 1 55 22
M  V30 61 1 56 23
M  V30 62 1 57 23
M  V30 63 1 24 58 CFG=3
M  V30 64 1 59 25
M  V30 65 1 60 26
M  V30 66 1 61 26
M  V30 67 1 62 27
M  V30 68 1 63 27
M  V30 69 1 29 64 CFG=1
M  V30 70 1 65 30
M  V30 71 1 66 31
M  V30 72 1 67 31
M  V30 73 1 32 68 CFG=1
M  V30 74 1 69 34
M  V30 75 1 70 34
M  V30 76 1 33 71 CFG=1
M  V30 END BOND
M  V30 END CTAB
M  END
>  <i_epik_Tot_Q>  (1) 
1

>  <i_epik_Tot_abs_Q>  (1) 
1

>  <i_i_glide_confnum>  (1) 
114

>  <i_i_glide_lignum>  (1) 
79

>  <i_i_glide_posenum>  (1) 
235

>  <i_i_glide_rotatable_bonds>  (1) 
6

>  <i_lp_mmshare_version>  (1) 
72125

>  <i_m_source_file_index>  (1) 
32

>  <i_f3d_flags>  (1) 
0

>  <num_sample>  (1) 
50

>  <b_lp_Chiralities_Consistent>  (1) 
1

>  <r_epik_Charging_Adjusted_Penalty>  (1) 
0.0036996964664751512

>  <r_epik_Ionization_Penalty>  (1) 
0.0040620325304727405

>  <r_epik_Ionization_Penalty_Charging>  (1) 
0.0036996964664751512

>  <r_epik_Ionization_Penalty_Neutral>  (1) 
0.00036233606399758918

>  <r_epik_State_Penalty>  (1) 
-0

>  <r_glide_ring_energy>  (1) 
0

>  <r_i_docking_score>  (1) 
-4.5707105157988206

>  <r_i_glide_ecoul>  (1) 
-5.36905379364147

>  <r_i_glide_eff_state_penalty>  (1) 
-0

>  <r_i_glide_einternal>  (1) 
5.2695288418101711

>  <r_i_glide_emodel>  (1) 
-28.241224374450141

>  <r_i_glide_emodel_strain>  (1) 
0.76945177892079641

>  <r_i_glide_energy>  (1) 
-27.333510409527982

>  <r_i_glide_erotb>  (1) 
0.36352394052346937

>  <r_i_glide_esite>  (1) 
-0.062107774926090244

>  <r_i_glide_evdw>  (1) 
-21.964456615886512

>  <r_i_glide_gscore>  (1) 
-4.5707105157988206

>  <r_i_glide_gscore_strain>  (1) 
0

>  <r_i_glide_hbond>  (1) 
-0.32000000000000001

>  <r_i_glide_ligand_efficiency>  (1) 
-0.13443266222937708

>  <r_i_glide_ligand_efficiency_ln>  (1) 
-1.0097981570273658

>  <r_i_glide_ligand_efficiency_sa>  (1) 
-0.43550963903543982

>  <r_i_glide_lipo>  (1) 
-1.8578850900519255

>  <r_i_glide_metal>  (1) 
-0

>  <r_i_glide_rewards>  (1) 
-0.79066069150372864

>  <r_lp_Energy>  (1) 
28.935495999999997

>  <r_lp_tautomer_probability>  (1) 
1

>  <s_epik_cmdline>  (1) 
J2VwaWtfcHl0aG9uJywgJy1waHQnLCAnMS4wJywgJy1waCcsICc3LjQnLCAnLXRuJywgJzgnLCAnLW1hJywgJzUwMCcsICctaW1hZScsICc8aW5maWxlLm1hZT4nLCAnLW9tYWUnLCAnPG91dGZpbGUubWFlPic=

>  <s_epik_input>  (1) 
RmMxW2NIXVtjSF1jKFtjSF1bY0hdMSlDMihbQ0gyXVtDSDJdMilOKFtDSDJdW0NIMl0zKVtDSDJdW0NIMl1OKFtDQEhdM0M0NVtDSDJdW0NIMl01KVtDSDJdW0NIMl1bQ0BIXTQvW0NIXT1DKFxbQ0BdNihGKVtDSDJdW09IXSlDKD1bQ0gyXSlbQ0gyXVtDQEhdNltPSF0=

>  <s_glide_docking_method>  (1) 
confgen

>  <s_i_glide_gridfile>  (1) 
gpcr_drd2_6luq_protein_autoprepared_prepared

>  <s_lp_Force_Field>  (1) 
S-OPLS

>  <s_lp_Variant>  (1) 
DiffSBDD_31_num_sample_50-2

>  <s_m_source_file>  (1) 
generated__ligand_DiffSBDD_2026-05-06_prepared.sdf

>  <GenAI_Model>  (1) 
DiffSBDD

>  <Protein>  (1) 
generic_title2

$$$$
DiffSBDD_1_num_sample_50
     RDKit          3D

  0  0  0  0  0  0  0  0  0  0999 V3000
M  V30 BEGIN CTAB
M  V30 COUNTS 72 77 0 0 1
M  V30 BEGIN ATOM
M  V30 1 N 7.861934 3.584513 -13.847399 0
M  V30 2 C 9.113944 3.541786 -20.356962 0
M  V30 3 C 9.834829 6.538223 -10.029362 0
M  V30 4 O 11.748483 7.991296 -10.091948 0
M  V30 5 C 7.197575 2.205413 -15.732054 0
M  V30 6 O 5.857833 2.380373 -13.295146 0
M  V30 7 C 7.832836 4.969300 -9.958258 0
M  V30 8 C 8.905743 4.501676 -13.347284 0
M  V30 9 C 12.235863 9.225657 -9.619203 0
M  V30 10 C 10.825131 7.283399 -9.351734 0
M  V30 11 C 6.933816 2.010293 -17.235614 0
M  V30 12 C 6.042597 4.385157 -20.024146 0
M  V30 13 C 7.852413 4.506406 -16.154406 0
M  V30 14 C 8.951369 5.769186 -7.892309 0
M  V30 15 O 11.201041 8.988357 -6.434001 0
M  V30 16 C 8.891265 5.769375 -9.300435 0
M  V30 17 C 7.002091 0.952984 -14.873580 0 CFG=2
M  V30 18 C 5.954187 1.059987 -13.768729 0
M  V30 19 N 7.103707 3.223601 -18.036722 0
M  V30 20 C 8.422699 5.562751 -12.345138 0 CFG=1
M  V30 21 O 11.833677 7.960256 -7.248069 0
M  V30 22 C 7.629000 3.404442 -15.224510 0
M  V30 23 C 7.609077 4.863656 -11.285880 0
M  V30 24 C 9.929897 6.510252 -7.212579 0
M  V30 25 C 5.500519 4.110309 -21.433583 0
M  V30 26 C 7.032352 2.937493 -12.810067 0 CFG=2
M  V30 27 O 8.234824 0.536126 -14.320995 0
M  V30 28 C 7.317646 2.355847 -21.793289 0 CFG=1
M  V30 29 S 9.798143 6.568574 -11.787062 0
M  V30 30 C 7.590670 4.383348 -17.460663 0
M  V30 31 C 10.870689 7.265717 -7.928589 0
M  V30 32 C 7.877448 2.615395 -20.366699 0 CFG=2
M  V30 33 C 6.502040 3.998256 -11.825539 0
M  V30 34 C 6.730496 3.123731 -19.453207 0 CFG=2
M  V30 35 C 6.608368 3.600798 -22.370414 0
M  V30 36 C 8.364014 1.792782 -22.770920 0
M  V30 37 H 8.886293 4.535117 -20.741272 0
M  V30 38 H 9.507750 3.662576 -19.348507 0
M  V30 39 H 9.928744 3.134593 -20.953958 0
M  V30 40 H 7.184909 4.420019 -9.291615 0
M  V30 41 H 9.456096 4.974497 -14.158998 0
M  V30 42 H 9.647054 3.878291 -12.845098 0
M  V30 43 H 12.634706 9.769498 -10.470501 0
M  V30 44 H 11.461854 9.832926 -9.150072 0
M  V30 45 H 13.068433 9.066928 -8.935449 0
M  V30 46 H 7.607440 1.239593 -17.610402 0
M  V30 47 H 5.914958 1.639515 -17.357960 0
M  V30 48 H 5.221180 4.685208 -19.373195 0
M  V30 49 H 6.727684 5.230836 -20.070721 0
M  V30 50 H 8.220606 5.450232 -15.783276 0
M  V30 51 H 8.232244 5.195697 -7.329779 0
M  V30 52 H 11.036536 8.507802 -5.637159 0
M  V30 53 H 6.700062 0.133213 -15.526806 0
M  V30 54 H 6.147406 0.362437 -12.951869 0
M  V30 55 H 4.975218 0.794675 -14.168543 0
M  V30 56 H 7.743488 6.239692 -12.864396 0
M  V30 57 H 9.961257 6.492970 -6.133364 0
M  V30 58 H 4.702271 3.369944 -21.375052 0
M  V30 59 H 5.051119 5.015020 -21.844216 0
M  V30 60 H 7.643421 2.197935 -12.292492 0
M  V30 61 H 8.567166 1.242106 -13.786718 0
M  V30 62 H 6.555865 1.580319 -21.692503 0
M  V30 63 H 7.740325 5.195168 -18.155039 0
M  V30 64 H 8.205052 1.653078 -19.971856 0
M  V30 65 H 5.955831 3.501253 -11.022657 0
M  V30 66 H 5.790052 4.641168 -12.346936 0
M  V30 67 H 5.961956 2.349370 -19.483310 0
M  V30 68 H 6.173986 3.364605 -23.342502 0
M  V30 69 H 7.331277 4.397459 -22.548254 0
M  V30 70 H 9.123242 2.531639 -23.026703 0
M  V30 71 H 8.870927 0.924058 -22.349760 0
M  V30 72 H 7.894751 1.476348 -23.702687 0
M  V30 END ATOM
M  V30 BEGIN BOND
M  V30 1 1 8 1
M  V30 2 1 9 4
M  V30 3 1 10 3
M  V30 4 1 10 4
M  V30 5 1 11 5
M  V30 6 2 16 3
M  V30 7 1 16 7
M  V30 8 1 16 14
M  V30 9 1 17 5
M  V30 10 1 18 6
M  V30 11 1 18 17
M  V30 12 1 19 11
M  V30 13 1 20 8
M  V30 14 1 21 15
M  V30 15 1 22 1
M  V30 16 2 22 5
M  V30 17 1 22 13
M  V30 18 2 23 7
M  V30 19 1 23 20
M  V30 20 2 24 14
M  V30 21 1 25 12
M  V30 22 1 26 1
M  V30 23 1 26 6
M  V30 24 1 27 17
M  V30 25 1 29 3
M  V30 26 1 29 20
M  V30 27 2 30 13
M  V30 28 1 30 19
M  V30 29 2 31 10
M  V30 30 1 31 21
M  V30 31 1 31 24
M  V30 32 1 32 2
M  V30 33 1 32 28
M  V30 34 1 33 23
M  V30 35 1 33 26
M  V30 36 1 34 12
M  V30 37 1 34 19
M  V30 38 1 34 32
M  V30 39 1 35 25
M  V30 40 1 35 28
M  V30 41 1 36 28
M  V30 42 1 37 2
M  V30 43 1 38 2
M  V30 44 1 39 2
M  V30 45 1 40 7
M  V30 46 1 41 8
M  V30 47 1 42 8
M  V30 48 1 43 9
M  V30 49 1 44 9
M  V30 50 1 45 9
M  V30 51 1 46 11
M  V30 52 1 47 11
M  V30 53 1 48 12
M  V30 54 1 49 12
M  V30 55 1 50 13
M  V30 56 1 51 14
M  V30 57 1 52 15
M  V30 58 1 17 53 CFG=3
M  V30 59 1 54 18
M  V30 60 1 55 18
M  V30 61 1 20 56 CFG=3
M  V30 62 1 57 24
M  V30 63 1 58 25
M  V30 64 1 59 25
M  V30 65 1 26 60 CFG=1
M  V30 66 1 61 27
M  V30 67 1 28 62 CFG=1
M  V30 68 1 63 30
M  V30 69 1 32 64 CFG=1
M  V30 70 1 65 33
M  V30 71 1 66 33
M  V30 72 1 34 67 CFG=1
M  V30 73 1 68 35
M  V30 74 1 69 35
M  V30 75 1 70 36
M  V30 76 1 71 36
M  V30 77 1 72 36
M  V30 END BOND
M  V30 END CTAB
M  END
>  <i_epik_Tot_Q>  (1) 
0

>  <i_epik_Tot_abs_Q>  (1) 
0

>  <i_i_glide_confnum>  (1) 
3

>  <i_i_glide_lignum>  (1) 
5

>  <i_i_glide_posenum>  (1) 
247

>  <i_i_glide_rotatable_bonds>  (1) 
5

>  <i_lp_mmshare_version>  (1) 
72125

>  <i_m_source_file_index>  (1) 
2

>  <i_f3d_flags>  (1) 
0

>  <num_sample>  (1) 
50

>  <b_lp_Chiralities_Consistent>  (1) 
1

>  <r_epik_Charging_Adjusted_Penalty>  (1) 
1.7947178929853217e-12

>  <r_epik_Ionization_Penalty>  (1) 
2.2136665369831182e-05

>  <r_epik_Ionization_Penalty_Charging>  (1) 
1.7947178929853217e-12

>  <r_epik_Ionization_Penalty_Neutral>  (1) 
2.2136663575113287e-05

>  <r_epik_State_Penalty>  (1) 
-0

>  <r_glide_ring_energy>  (1) 
0

>  <r_i_docking_score>  (1) 
-4.5688472990533704

>  <r_i_glide_ecoul>  (1) 
-2.6753569312698979

>  <r_i_glide_eff_state_penalty>  (1) 
-0

>  <r_i_glide_einternal>  (1) 
4.5271117271505759

>  <r_i_glide_emodel>  (1) 
-46.673951489004168

>  <r_i_glide_emodel_strain>  (1) 
0.49547224926577371

>  <r_i_glide_energy>  (1) 
-41.474016676648283

>  <r_i_glide_erotb>  (1) 
0.15600053340392078

>  <r_i_glide_esite>  (1) 
0

>  <r_i_glide_evdw>  (1) 
-38.798659745378387

>  <r_i_glide_gscore>  (1) 
-4.5688472990533704

>  <r_i_glide_gscore_strain>  (1) 
0

>  <r_i_glide_hbond>  (1) 
0

>  <r_i_glide_ligand_efficiency>  (1) 
-0.12691242497370472

>  <r_i_glide_ligand_efficiency_ln>  (1) 
-0.99679904466421132

>  <r_i_glide_ligand_efficiency_sa>  (1) 
-0.41905559424397065

>  <r_i_glide_lipo>  (1) 
-1.4564986765412158

>  <r_i_glide_metal>  (1) 
-0

>  <r_i_glide_rewards>  (1) 
-0.92711262895667113

>  <r_lp_Energy>  (1) 
75.115066999999996

>  <r_lp_tautomer_probability>  (1) 
1

>  <s_epik_Chemistry_Notes>  (1) 
This compound has an imine and may undergo hydrolysis. This compound contains an acetal/aminal-like group ( X-CH(R)-Y where X, Y are N, S, or O) that may be acid/base labile, releasing an aldehyde.

>  <s_epik_cmdline>  (1) 
J2VwaWtfcHl0aG9uJywgJy1waHQnLCAnMS4wJywgJy1waCcsICc3LjQnLCAnLXRuJywgJzgnLCAnLW1hJywgJzUwMCcsICctaW1hZScsICc8aW5maWxlLm1hZT4nLCAnLW9tYWUnLCAnPG91dGZpbGUubWFlPic=

>  <s_epik_input>  (1) 
W0NIMl0xW0NIMl1bQ0gyXVtDQEBIXShbQ0BIXShbQ0gzXSlbQ0BASF0xW0NIM10pTihbQ0hdPVtDSF0yKVtDSDJdQyg9QzJOMzQpW0NAQEhdKFtPSF0pW0NIMl1PW0NAQEhdNFtDSDJdQzVbQ0BASF0oW0NIMl0zKVNjNmMoW0NIXT01KVtjSF1bY0hdYyhPW09IXSljNk9bQ0gzXQ==

>  <s_glide_docking_method>  (1) 
confgen

>  <s_i_glide_gridfile>  (1) 
gpcr_drd2_6luq_protein_autoprepared_prepared

>  <s_lp_Force_Field>  (1) 
S-OPLS

>  <s_lp_Variant>  (1) 
DiffSBDD_1_num_sample_50-2

>  <s_m_source_file>  (1) 
generated__ligand_DiffSBDD_2026-05-06_prepared.sdf

>  <GenAI_Model>  (1) 
DiffSBDD

>  <Protein>  (1) 
generic_title2

$$$$
DiffSBDD_23_num_sample_50
     RDKit          3D

  0  0  0  0  0  0  0  0  0  0999 V3000
M  V30 BEGIN CTAB
M  V30 COUNTS 68 70 0 0 1
M  V30 BEGIN ATOM
M  V30 1 C 9.451134 8.583587 -9.820290 0
M  V30 2 C 9.896985 5.999003 -8.541100 0
M  V30 3 C 11.434857 7.066062 -4.358815 0
M  V30 4 C 12.476311 9.127192 -3.576082 0
M  V30 5 C 9.435134 8.454874 -8.280191 0
M  V30 6 C 12.878810 8.468839 -2.398813 0
M  V30 7 C 7.500378 6.728501 -12.412225 0 CFG=1
M  V30 8 O 3.829129 6.545054 -16.691672 0 CHG=-1
M  V30 9 C 10.243151 7.273470 -7.747298 0 CFG=2
M  V30 10 O 11.340676 9.079200 -5.695731 0
M  V30 11 C 4.965750 6.252728 -17.110003 0
M  V30 12 C 9.939354 6.229616 -10.061944 0
M  V30 13 C 6.185255 6.664838 -16.225914 0
M  V30 14 N 9.034841 7.317307 -10.470501 0 CFG=2 CHG=1
M  V30 15 O 5.211738 5.696800 -18.204694 0
M  V30 16 C 7.476411 5.215431 -12.139681 0
M  V30 17 C 8.809780 7.415919 -11.932863 0
M  V30 18 C 6.275481 4.791734 -14.327734 0
M  V30 19 C 6.103673 8.202467 -16.291881 0
M  V30 20 C 11.834850 6.419041 -3.179790 0
M  V30 21 C 11.760325 7.557742 -7.615867 0
M  V30 22 C 12.101843 8.876691 -6.882875 0
M  V30 23 C 7.444815 6.080572 -16.926734 0
M  V30 24 C 7.364948 6.972377 -13.925149 0
M  V30 25 C 6.234360 3.041301 -12.509198 0
M  V30 26 C 6.176947 6.291166 -14.677566 0 CFG=1
M  V30 27 C 6.270223 4.541857 -12.811081 0 CFG=1
M  V30 28 C 11.753600 8.428963 -4.559983 0
M  V30 29 C 12.559390 7.116614 -2.205002 0
M  V30 30 H 10.446116 8.873023 -10.160809 0
M  V30 31 H 8.753603 9.369206 -10.107047 0
M  V30 32 H 10.567906 5.185385 -8.264523 0
M  V30 33 H 8.893317 5.666757 -8.266274 0
M  V30 34 H 10.878943 6.520481 -5.098933 0
M  V30 35 H 12.720862 10.166446 -3.723067 0
M  V30 36 H 8.434745 8.340440 -7.891717 0
M  V30 37 H 9.726876 9.369224 -7.792418 0
M  V30 38 H 13.434959 8.999052 -1.644379 0
M  V30 39 H 6.649173 7.189645 -11.907141 0
M  V30 40 H 9.853164 7.112496 -6.746602 0
M  V30 41 H 10.930031 6.569308 -10.368541 0
M  V30 42 H 9.719902 5.300757 -10.586685 0
M  V30 43 H 8.398437 4.762733 -12.508646 0
M  V30 44 H 7.441712 5.030419 -11.065490 0
M  V30 45 H 8.755511 8.469781 -12.212893 0
M  V30 46 H 9.674527 7.017700 -12.465604 0
M  V30 47 H 5.434850 4.256342 -14.717391 0
M  V30 48 H 7.162682 4.344862 -14.776181 0
M  V30 49 H 7.034190 8.665884 -16.015633 0
M  V30 50 H 5.832282 8.569469 -17.278195 0
M  V30 51 H 5.337277 8.578221 -15.612509 0
M  V30 52 H 11.588615 5.381302 -3.023802 0
M  V30 53 H 12.224938 7.584079 -8.601618 0
M  V30 54 H 12.231588 6.726536 -7.091030 0
M  V30 55 H 11.871335 9.712524 -7.541647 0
M  V30 56 H 13.170775 8.969237 -6.691556 0
M  V30 57 H 8.366440 6.168957 -16.364161 0
M  V30 58 H 7.339266 5.008654 -17.100491 0
M  V30 59 H 7.618582 6.552573 -17.895290 0
M  V30 60 H 7.388635 8.048606 -14.069529 0
M  V30 61 H 8.273638 6.569525 -14.353844 0
M  V30 62 H 7.190446 2.562977 -12.725958 0
M  V30 63 H 5.993517 2.883656 -11.460306 0
M  V30 64 H 5.466856 2.535372 -13.094958 0
M  V30 65 H 5.248371 6.665141 -14.243844 0
M  V30 66 H 5.360343 4.983105 -12.400126 0
M  V30 67 H 12.872855 6.612262 -1.304231 0
M  V30 68 H 8.100790 7.203928 -10.049003 0
M  V30 END ATOM
M  V30 BEGIN BOND
M  V30 1 1 5 1
M  V30 2 1 6 4
M  V30 3 1 9 2
M  V30 4 1 9 5
M  V30 5 1 11 8
M  V30 6 1 12 2
M  V30 7 1 13 11
M  V30 8 1 14 1
M  V30 9 1 14 12
M  V30 10 2 15 11
M  V30 11 1 16 7
M  V30 12 1 17 7
M  V30 13 1 17 14
M  V30 14 1 19 13
M  V30 15 2 20 3
M  V30 16 1 21 9
M  V30 17 1 22 10
M  V30 18 1 22 21
M  V30 19 1 23 13
M  V30 20 1 24 7
M  V30 21 1 26 13
M  V30 22 1 26 18
M  V30 23 1 26 24
M  V30 24 1 27 16
M  V30 25 1 27 18
M  V30 26 1 27 25
M  V30 27 1 28 3
M  V30 28 2 28 4
M  V30 29 1 28 10
M  V30 30 2 29 6
M  V30 31 1 29 20
M  V30 32 1 30 1
M  V30 33 1 31 1
M  V30 34 1 32 2
M  V30 35 1 33 2
M  V30 36 1 34 3
M  V30 37 1 35 4
M  V30 38 1 36 5
M  V30 39 1 37 5
M  V30 40 1 38 6
M  V30 41 1 7 39 CFG=1
M  V30 42 1 9 40 CFG=1
M  V30 43 1 41 12
M  V30 44 1 42 12
M  V30 45 1 43 16
M  V30 46 1 44 16
M  V30 47 1 45 17
M  V30 48 1 46 17
M  V30 49 1 47 18
M  V30 50 1 48 18
M  V30 51 1 49 19
M  V30 52 1 50 19
M  V30 53 1 51 19
M  V30 54 1 52 20
M  V30 55 1 53 21
M  V30 56 1 54 21
M  V30 57 1 55 22
M  V30 58 1 56 22
M  V30 59 1 57 23
M  V30 60 1 58 23
M  V30 61 1 59 23
M  V30 62 1 60 24
M  V30 63 1 61 24
M  V30 64 1 62 25
M  V30 65 1 63 25
M  V30 66 1 64 25
M  V30 67 1 26 65 CFG=1
M  V30 68 1 27 66 CFG=1
M  V30 69 1 67 29
M  V30 70 1 14 68 CFG=1
M  V30 END BOND
M  V30 END CTAB
M  END
>  <i_epik_Tot_Q>  (1) 
0

>  <i_epik_Tot_abs_Q>  (1) 
2

>  <i_i_glide_confnum>  (1) 
173

>  <i_i_glide_lignum>  (1) 
63

>  <i_i_glide_posenum>  (1) 
146

>  <i_i_glide_rotatable_bonds>  (1) 
8

>  <i_lp_mmshare_version>  (1) 
72125

>  <i_m_source_file_index>  (1) 
24

>  <i_f3d_flags>  (1) 
0

>  <num_sample>  (1) 
50

>  <b_lp_Chiralities_Consistent>  (1) 
1

>  <r_epik_Charging_Adjusted_Penalty>  (1) 
0.003094722008017318

>  <r_epik_Ionization_Penalty>  (1) 
0.003094722008017318

>  <r_epik_Ionization_Penalty_Charging>  (1) 
0.003094722008017318

>  <r_epik_Ionization_Penalty_Neutral>  (1) 
0

>  <r_epik_State_Penalty>  (1) 
-0

>  <r_glide_ring_energy>  (1) 
0

>  <r_i_docking_score>  (1) 
-4.567581652813324

>  <r_i_glide_ecoul>  (1) 
-7.018533530157737

>  <r_i_glide_eff_state_penalty>  (1) 
-0

>  <r_i_glide_einternal>  (1) 
17.456931901827861

>  <r_i_glide_emodel>  (1) 
-25.883768394432536

>  <r_i_glide_emodel_strain>  (1) 
0.62697630679843996

>  <r_i_glide_energy>  (1) 
-26.86154307192756

>  <r_i_glide_erotb>  (1) 
0.72975461734148295

>  <r_i_glide_esite>  (1) 
-0.10000000000000001

>  <r_i_glide_evdw>  (1) 
-19.843009541769824

>  <r_i_glide_gscore>  (1) 
-4.567581652813324

>  <r_i_glide_gscore_strain>  (1) 
0

>  <r_i_glide_hbond>  (1) 
-0.16518308826388101

>  <r_i_glide_ligand_efficiency>  (1) 
-0.15750281561425256

>  <r_i_glide_ligand_efficiency_ln>  (1) 
-1.0458603746170934

>  <r_i_glide_ligand_efficiency_sa>  (1) 
-0.48389855050456376

>  <r_i_glide_lipo>  (1) 
-3.1480704825397599

>  <r_i_glide_metal>  (1) 
-0

>  <r_i_glide_rewards>  (1) 
0.16084780726098691

>  <r_lp_Energy>  (1) 
51.626332999999995

>  <r_lp_tautomer_probability>  (1) 
1

>  <s_epik_cmdline>  (1) 
J2VwaWtfcHl0aG9uJywgJy1waHQnLCAnMS4wJywgJy1waCcsICc3LjQnLCAnLXRuJywgJzgnLCAnLW1hJywgJzUwMCcsICctaW1hZScsICc8aW5maWxlLm1hZT4nLCAnLW9tYWUnLCAnPG91dGZpbGUubWFlPic=

>  <s_epik_input>  (1) 
W09IXUMoPU8pQyhbQ0gzXSkoW0NIM10pW0NASF0oW0NIMl0xKVtDSDJdW0NAQEhdKFtDSDNdKVtDSDJdW0NASF0xW0NIMl1OKFtDSDJdW0NIMl0yKVtDSDJdW0NIMl1bQ0hdMltDSDJdW0NIMl1PYzNbY0hdW2NIXVtjSF1bY0hdW2NIXTM=

>  <s_glide_docking_method>  (1) 
confgen

>  <s_i_glide_gridfile>  (1) 
gpcr_drd2_6luq_protein_autoprepared_prepared

>  <s_lp_Force_Field>  (1) 
S-OPLS

>  <s_lp_Variant>  (1) 
DiffSBDD_23_num_sample_50-2

>  <s_m_source_file>  (1) 
generated__ligand_DiffSBDD_2026-05-06_prepared.sdf

>  <GenAI_Model>  (1) 
DiffSBDD

>  <Protein>  (1) 
generic_title2

$$$$
DiffSBDD_10_num_sample_50
     RDKit          3D

  0  0  0  0  0  0  0  0  0  0999 V3000
M  V30 BEGIN CTAB
M  V30 COUNTS 73 74 0 0 1
M  V30 BEGIN ATOM
M  V30 1 C 11.012447 8.523347 -8.183885 0 CFG=2
M  V30 2 C 7.391095 1.401430 -17.778589 0
M  V30 3 C 7.382132 2.072038 -14.616602 0
M  V30 4 C 8.493417 4.279635 -11.822909 0 CFG=1
M  V30 5 C 10.198853 7.184494 -8.333689 0 CFG=2
M  V30 6 N 8.619865 -0.521229 -16.972982 0
M  V30 7 N 8.127465 5.376151 -9.738335 0
M  V30 8 C 9.531835 5.466408 -10.053845 0 CFG=1
M  V30 9 S 11.833329 8.820956 -6.472147 0
M  V30 10 C 8.331677 1.747522 -18.923105 0
M  V30 11 S 11.034831 10.415952 -5.491205 0 CHG=-1
M  V30 12 C 13.198242 8.322815 -9.548708 0
M  V30 13 O 9.854940 2.262406 -21.666642 0
M  V30 14 O 11.533303 7.715246 -5.550807 0
M  V30 15 C 9.507049 8.527747 -8.220576 0 CFG=2
M  V30 16 C 5.392263 0.591129 -13.868604 0
M  V30 17 C 7.403938 4.817467 -10.872902 0 CFG=1
M  V30 18 N 9.691652 3.629430 -19.933244 0 CHG=1
M  V30 19 N 6.671393 0.119662 -15.890581 0
M  V30 20 C 8.675740 3.250269 -18.922833 0
M  V30 21 C 9.668752 6.486906 -12.398600 0
M  V30 22 C 11.863126 9.049320 -9.345414 0
M  V30 23 C 10.062116 6.119941 -7.247436 0
M  V30 24 C 8.074078 4.120886 -13.306061 0
M  V30 25 C 6.507718 0.876039 -14.871363 0
M  V30 26 O 9.035434 8.969325 -9.478618 0
M  V30 27 C 7.570852 0.371407 -16.922925 0
M  V30 28 O 13.189270 9.363759 -6.668084 0
M  V30 29 F 6.694972 5.786898 -11.449675 0
M  V30 30 N 5.890597 -0.231095 -12.758879 0 CHG=1
M  V30 31 C 9.282535 3.510278 -21.345619 0
M  V30 32 C 9.690863 5.200649 -11.565952 0 CFG=2
M  V30 33 O 10.187401 6.672820 -9.695992 0
M  V30 34 C 7.203610 2.907428 -13.570051 0
M  V30 35 H 6.526194 2.040431 -17.663191 0
M  V30 36 H 8.178506 2.239446 -15.324905 0
M  V30 37 H 8.800638 3.300259 -11.462652 0
M  V30 38 H 9.267223 -0.522984 -17.746186 0
M  V30 39 H 7.723368 6.301221 -9.549023 0
M  V30 40 H 10.028385 4.658273 -9.517501 0
M  V30 41 H 7.837679 1.477458 -19.857058 0
M  V30 42 H 9.245721 1.156989 -18.865866 0
M  V30 43 H 13.715614 8.700530 -10.429301 0
M  V30 44 H 13.890180 8.398869 -8.714652 0
M  V30 45 H 12.996487 7.274993 -9.720233 0
M  V30 46 H 9.355162 1.864959 -22.366126 0
M  V30 47 H 8.917922 8.795618 -7.345255 0
M  V30 48 H 4.896728 1.494161 -13.516931 0
M  V30 49 H 4.608906 0.012600 -14.362206 0
M  V30 50 H 6.695545 4.058084 -10.543760 0
M  V30 51 H 10.525660 3.074537 -19.805993 0
M  V30 52 H 9.069618 3.526180 -17.943891 0
M  V30 53 H 7.776805 3.851162 -19.072084 0
M  V30 54 H 8.754709 7.064210 -12.259606 0
M  V30 55 H 10.512119 7.143096 -12.182822 0
M  V30 56 H 9.742684 6.176287 -13.440889 0
M  V30 57 H 11.321665 8.929449 -10.280930 0
M  V30 58 H 11.985716 10.122359 -9.237363 0
M  V30 59 H 9.653120 6.550530 -6.336320 0
M  V30 60 H 9.362704 5.333325 -7.503468 0
M  V30 61 H 11.029157 5.661455 -7.039574 0
M  V30 62 H 8.958434 4.061547 -13.941858 0
M  V30 63 H 7.522907 5.001052 -13.640805 0
M  V30 64 H 8.167768 8.569249 -9.615517 0
M  V30 65 H 5.325125 -0.090644 -11.934781 0
M  V30 66 H 5.771986 -1.206137 -13.055704 0
M  V30 67 H 9.731324 4.297076 -21.953546 0
M  V30 68 H 8.199466 3.519576 -21.479221 0
M  V30 69 H 10.619613 4.678775 -11.798677 0
M  V30 70 H 6.408304 2.735970 -12.866877 0
M  V30 71 H 8.620824 -1.353187 -16.394312 0
M  V30 72 H 9.926312 4.598889 -19.772266 0
M  V30 73 H 6.860487 -0.021384 -12.570233 0
M  V30 END ATOM
M  V30 BEGIN BOND
M  V30 1 1 5 1
M  V30 2 1 8 7
M  V30 3 1 9 1
M  V30 4 1 10 2
M  V30 5 1 11 9
M  V30 6 2 14 9
M  V30 7 1 15 1
M  V30 8 1 15 5
M  V30 9 1 17 4
M  V30 10 1 17 7
M  V30 11 1 20 10
M  V30 12 1 20 18
M  V30 13 1 1 22 CFG=3
M  V30 14 1 22 12
M  V30 15 1 23 5
M  V30 16 1 24 4
M  V30 17 1 25 3
M  V30 18 1 25 16
M  V30 19 2 25 19
M  V30 20 1 26 15
M  V30 21 2 27 2
M  V30 22 1 27 6
M  V30 23 1 27 19
M  V30 24 2 28 9
M  V30 25 1 29 17
M  V30 26 1 30 16
M  V30 27 1 31 13
M  V30 28 1 31 18
M  V30 29 1 32 4
M  V30 30 1 32 8
M  V30 31 1 32 21
M  V30 32 1 5 33 CFG=3
M  V30 33 1 33 8
M  V30 34 2 34 3
M  V30 35 1 34 24
M  V30 36 1 35 2
M  V30 37 1 36 3
M  V30 38 1 4 37 CFG=1
M  V30 39 1 38 6
M  V30 40 1 39 7
M  V30 41 1 8 40 CFG=1
M  V30 42 1 41 10
M  V30 43 1 42 10
M  V30 44 1 43 12
M  V30 45 1 44 12
M  V30 46 1 45 12
M  V30 47 1 46 13
M  V30 48 1 15 47 CFG=1
M  V30 49 1 48 16
M  V30 50 1 49 16
M  V30 51 1 17 50 CFG=1
M  V30 52 1 51 18
M  V30 53 1 52 20
M  V30 54 1 53 20
M  V30 55 1 54 21
M  V30 56 1 55 21
M  V30 57 1 56 21
M  V30 58 1 57 22
M  V30 59 1 58 22
M  V30 60 1 59 23
M  V30 61 1 60 23
M  V30 62 1 61 23
M  V30 63 1 62 24
M  V30 64 1 63 24
M  V30 65 1 64 26
M  V30 66 1 65 30
M  V30 67 1 66 30
M  V30 68 1 67 31
M  V30 69 1 68 31
M  V30 70 1 32 69 CFG=1
M  V30 71 1 70 34
M  V30 72 1 71 6
M  V30 73 1 72 18
M  V30 74 1 73 30
M  V30 END BOND
M  V30 END CTAB
M  END
>  <i_epik_Tot_Q>  (1) 
1

>  <i_epik_Tot_abs_Q>  (1) 
3

>  <i_i_glide_confnum>  (1) 
286

>  <i_i_glide_lignum>  (1) 
30

>  <i_i_glide_posenum>  (1) 
203

>  <i_i_glide_rotatable_bonds>  (1) 
15

>  <i_lp_mmshare_version>  (1) 
72125

>  <i_m_source_file_index>  (1) 
11

>  <i_f3d_flags>  (1) 
0

>  <num_sample>  (1) 
50

>  <b_lp_Chiralities_Consistent>  (1) 
1

>  <r_epik_Charging_Adjusted_Penalty>  (1) 
2.168687317063887

>  <r_epik_Ionization_Penalty>  (1) 
1.1047352072338965

>  <r_epik_Ionization_Penalty_Charging>  (1) 
1.0999234457570315

>  <r_epik_Ionization_Penalty_Neutral>  (1) 
0.0048117614768649203

>  <r_epik_State_Penalty>  (1) 
1.0687638713068555

>  <r_glide_ring_energy>  (1) 
0

>  <r_i_docking_score>  (1) 
-4.5627246061855189

>  <r_i_glide_ecoul>  (1) 
-18.142533614807441

>  <r_i_glide_eff_state_penalty>  (1) 
1.0687638713068555

>  <r_i_glide_einternal>  (1) 
22.165107863355971

>  <r_i_glide_emodel>  (1) 
-45.111673719603608

>  <r_i_glide_emodel_strain>  (1) 
2.7969436300352299

>  <r_i_glide_energy>  (1) 
-36.964209288429018

>  <r_i_glide_erotb>  (1) 
0.82219216958862984

>  <r_i_glide_esite>  (1) 
-0.14159868156473623

>  <r_i_glide_evdw>  (1) 
-18.821675673621577

>  <r_i_glide_gscore>  (1) 
-5.6314884774923746

>  <r_i_glide_gscore_strain>  (1) 
0

>  <r_i_glide_hbond>  (1) 
-0.46093936603722435

>  <r_i_glide_ligand_efficiency>  (1) 
-0.13419778253486819

>  <r_i_glide_ligand_efficiency_ln>  (1) 
-1.00803384559661

>  <r_i_glide_ligand_efficiency_sa>  (1) 
-0.43474872000522841

>  <r_i_glide_lipo>  (1) 
-1.3787459540684976

>  <r_i_glide_metal>  (1) 
-0

>  <r_i_glide_rewards>  (1) 
-0.80993281950835072

>  <r_lp_Energy>  (1) 
21.193534

>  <s_epik_Chemistry_Notes>  (1) 
This compound has an imine and may undergo hydrolysis. This compound contains an acetal/aminal-like group ( X-CH(R)-Y where X, Y are N, S, or O) that may be acid/base labile, releasing an aldehyde.

>  <s_epik_cmdline>  (1) 
J2VwaWtfcHl0aG9uJywgJy1waHQnLCAnMS4wJywgJy1waCcsICc3LjQnLCAnLXRuJywgJzgnLCAnLW1hJywgJzUwMCcsICctaW1hZScsICc8aW5maWxlLm1hZT4nLCAnLW9tYWUnLCAnPG91dGZpbGUubWFlPic=

>  <s_epik_input>  (1) 
W1NIXVMoPU8pKD1PKVtDQEBdMShbQ0gyXVtDSDNdKVtDQEBdKFtDSDNdKShbQ0BASF0xW09IXSlPW0NASF0oW0NAQEhdMltDSDNdKVtOSF1bQ0BASF0oRilbQ0BIXTJbQ0gyXVxbQ0hdPVtDSF1cQyhbQ0gyXVtOSDJdKT1OL0MoPU4vW0hdKS9bQ0gyXVtDSDJdW0NIMl1bTkhdW0NIMl1bT0hd

>  <s_glide_docking_method>  (1) 
confgen

>  <s_i_glide_gridfile>  (1) 
gpcr_drd2_6luq_protein_autoprepared_prepared

>  <s_lp_Force_Field>  (1) 
S-OPLS

>  <s_lp_Variant>  (1) 
DiffSBDD_10_num_sample_50-10

>  <s_m_source_file>  (1) 
generated__ligand_DiffSBDD_2026-05-06_prepared.sdf

>  <GenAI_Model>  (1) 
DiffSBDD

>  <Protein>  (1) 
generic_title2

$$$$
DiffSBDD_32_num_sample_50
     RDKit          3D

  0  0  0  0  0  0  0  0  0  0999 V3000
M  V30 BEGIN CTAB
M  V30 COUNTS 59 61 0 0 1
M  V30 BEGIN ATOM
M  V30 1 C 10.832289 6.606718 -5.332576 0
M  V30 2 F 9.799363 8.969302 -6.691797 0
M  V30 3 N 5.590538 5.881060 -13.777591 0
M  V30 4 C 5.834836 8.107761 -16.736264 0
M  V30 5 C 7.482673 3.868189 -13.428195 0
M  V30 6 C 8.634220 5.514945 -9.050311 0
M  V30 7 C 10.281517 7.690324 -11.626090 0
M  V30 8 O 6.179437 6.710077 -14.820604 0
M  V30 9 C 8.891078 5.732664 -12.519049 0 CFG=1
M  V30 10 O 4.511477 6.169302 -16.291668 0
M  V30 11 C 5.434838 6.887716 -15.935655 0
M  V30 12 C 6.372975 6.049856 -12.538009 0
M  V30 13 C 8.133044 2.527239 -13.176725 0
M  V30 14 C 6.630081 2.661214 -13.110550 0
M  V30 15 C 11.144789 7.077154 -6.769818 0 CFG=1
M  V30 16 C 6.771321 7.542561 -12.377843 0
M  V30 17 C 5.421108 5.731961 -11.375331 0
M  V30 18 C 10.208201 6.478324 -7.790275 0
M  V30 19 C 9.536938 6.147340 -9.855274 0
M  V30 20 C 9.058593 5.744948 -7.713335 0
M  V30 21 O 11.919696 9.306845 -5.989890 0
M  V30 22 C 11.087333 8.614069 -6.892636 0
M  V30 23 O 10.524182 6.703091 -9.091206 0
M  V30 24 C 9.686429 6.333289 -11.344015 0 CFG=2
M  V30 25 C 10.183803 5.136505 -12.089547 0
M  V30 26 F 11.434883 8.977615 -8.150852 0
M  V30 27 C 7.563826 5.027044 -12.433077 0 CFG=1
M  V30 28 C 5.319268 7.999653 -18.191510 0
M  V30 29 F 11.691705 7.058720 -4.418547 0
M  V30 30 H 9.834870 6.907977 -5.024036 0
M  V30 31 H 10.900025 5.531244 -5.256200 0
M  V30 32 H 4.669389 6.272119 -13.642581 0
M  V30 33 H 5.415158 8.987254 -16.251287 0
M  V30 34 H 6.911132 8.204098 -16.691522 0
M  V30 35 H 7.513896 4.183342 -14.470172 0
M  V30 36 H 7.760180 4.977043 -9.375875 0
M  V30 37 H 10.469392 7.769310 -12.691667 0
M  V30 38 H 9.605243 8.485107 -11.311574 0
M  V30 39 H 11.237654 7.807262 -11.115125 0
M  V30 40 H 8.979217 6.236583 -13.478804 0
M  V30 41 H 8.531565 1.980481 -14.027697 0
M  V30 42 H 8.678818 2.392436 -12.248899 0
M  V30 43 H 6.169326 2.609313 -12.127173 0
M  V30 44 H 6.048983 2.224524 -13.918353 0
M  V30 45 H 12.155777 6.752162 -7.015015 0
M  V30 46 H 7.360924 7.704559 -11.491666 0
M  V30 47 H 7.389539 7.933709 -13.186550 0
M  V30 48 H 5.886887 8.169308 -12.287289 0
M  V30 49 H 5.935187 5.768651 -10.415145 0
M  V30 50 H 4.634852 6.474495 -11.298616 0
M  V30 51 H 4.979675 4.741180 -11.471733 0
M  V30 52 H 8.574527 5.422398 -6.806899 0
M  V30 53 H 12.524115 9.818928 -6.503141 0
M  V30 54 H 11.034839 5.369484 -12.691672 0
M  V30 55 H 10.169261 4.169334 -11.596356 0
M  V30 56 H 7.548843 4.554874 -11.454195 0
M  V30 57 H 5.434837 8.931396 -18.743011 0
M  V30 58 H 5.845231 7.218473 -18.741374 0
M  V30 59 H 4.253297 7.769322 -18.227761 0
M  V30 END ATOM
M  V30 BEGIN BOND
M  V30 1 1 8 3
M  V30 2 1 11 4
M  V30 3 1 11 8
M  V30 4 2 11 10
M  V30 5 1 12 3
M  V30 6 1 13 5
M  V30 7 1 14 5
M  V30 8 1 14 13
M  V30 9 1 15 1
M  V30 10 1 16 12
M  V30 11 1 17 12
M  V30 12 1 18 15
M  V30 13 2 19 6
M  V30 14 1 20 6
M  V30 15 2 20 18
M  V30 16 1 22 2
M  V30 17 1 22 15
M  V30 18 1 22 21
M  V30 19 1 23 18
M  V30 20 1 23 19
M  V30 21 1 24 7 CFG=1
M  V30 22 1 24 9
M  V30 23 1 24 19
M  V30 24 1 25 9
M  V30 25 1 25 24
M  V30 26 1 26 22
M  V30 27 1 27 5
M  V30 28 1 27 9
M  V30 29 1 27 12
M  V30 30 1 28 4
M  V30 31 1 29 1
M  V30 32 1 30 1
M  V30 33 1 31 1
M  V30 34 1 32 3
M  V30 35 1 33 4
M  V30 36 1 34 4
M  V30 37 1 35 5
M  V30 38 1 36 6
M  V30 39 1 37 7
M  V30 40 1 38 7
M  V30 41 1 39 7
M  V30 42 1 9 40 CFG=3
M  V30 43 1 41 13
M  V30 44 1 42 13
M  V30 45 1 43 14
M  V30 46 1 44 14
M  V30 47 1 15 45 CFG=3
M  V30 48 1 46 16
M  V30 49 1 47 16
M  V30 50 1 48 16
M  V30 51 1 49 17
M  V30 52 1 50 17
M  V30 53 1 51 17
M  V30 54 1 52 20
M  V30 55 1 53 21
M  V30 56 1 54 25
M  V30 57 1 55 25
M  V30 58 1 27 56 CFG=1
M  V30 59 1 57 28
M  V30 60 1 58 28
M  V30 61 1 59 28
M  V30 END BOND
M  V30 END CTAB
M  END
>  <i_epik_Tot_Q>  (1) 
0

>  <i_epik_Tot_abs_Q>  (1) 
0

>  <i_i_glide_confnum>  (1) 
1902

>  <i_i_glide_lignum>  (1) 
82

>  <i_i_glide_posenum>  (1) 
387

>  <i_i_glide_rotatable_bonds>  (1) 
12

>  <i_lp_mmshare_version>  (1) 
72125

>  <i_m_source_file_index>  (1) 
33

>  <i_f3d_flags>  (1) 
0

>  <num_sample>  (1) 
50

>  <b_lp_Chiralities_Consistent>  (1) 
1

>  <r_epik_Charging_Adjusted_Penalty>  (1) 
0.006144794000495021

>  <r_epik_Ionization_Penalty>  (1) 
0.006338033707194878

>  <r_epik_Ionization_Penalty_Charging>  (1) 
0

>  <r_epik_Ionization_Penalty_Neutral>  (1) 
0.006338033707194878

>  <r_epik_State_Penalty>  (1) 
0.006144794000495021

>  <r_glide_ring_energy>  (1) 
0

>  <r_i_docking_score>  (1) 
-4.5525039883472402

>  <r_i_glide_ecoul>  (1) 
-1.8527507107512409

>  <r_i_glide_eff_state_penalty>  (1) 
0.006144794000495021

>  <r_i_glide_einternal>  (1) 
5.0274218633384358

>  <r_i_glide_emodel>  (1) 
-29.089088525898212

>  <r_i_glide_emodel_strain>  (1) 
3.19746502289658

>  <r_i_glide_energy>  (1) 
-26.661474386383958

>  <r_i_glide_erotb>  (1) 
1.020687923142688

>  <r_i_glide_esite>  (1) 
0

>  <r_i_glide_evdw>  (1) 
-24.808723675632717

>  <r_i_glide_gscore>  (1) 
-4.5586487823477349

>  <r_i_glide_gscore_strain>  (1) 
0

>  <r_i_glide_hbond>  (1) 
0

>  <r_i_glide_ligand_efficiency>  (1) 
-0.15698289614990485

>  <r_i_glide_ligand_efficiency_ln>  (1) 
-1.0424079717909422

>  <r_i_glide_ligand_efficiency_sa>  (1) 
-0.4823011931862467

>  <r_i_glide_lipo>  (1) 
-1.753359181609595

>  <r_i_glide_metal>  (1) 
-0

>  <r_i_glide_rewards>  (1) 
-2.3076287334865055

>  <r_lp_Energy>  (1) 
6.2328609999999998

>  <s_epik_Chemistry_Notes>  (1) 
This compound has a N-S or N-O group and may undergo hydrolysis at high or low pH.

>  <s_epik_cmdline>  (1) 
J2VwaWtfcHl0aG9uJywgJy1waHQnLCAnMS4wJywgJy1waCcsICc3LjQnLCAnLXRuJywgJzgnLCAnLW1hJywgJzUwMCcsICctaW1hZScsICc8aW5maWxlLm1hZT4nLCAnLW9tYWUnLCAnPG91dGZpbGUubWFlPic=

>  <s_epik_input>  (1) 
RkMoRikoW09IXSlbQ0BASF0oW0NIMl1GKWMxW2NIXVtjSF1jKG8xKVtDQF0yKFtDSDNdKVtDQEBIXShbQ0gyXTIpW0NASF0oW0NIXTNbQ0gyXVtDSDJdMylDKFtDSDNdKShbQ0gzXSlbTkhdT0MoPU8pW0NIMl1bQ0gzXQ==

>  <s_glide_docking_method>  (1) 
confgen

>  <s_i_glide_gridfile>  (1) 
gpcr_drd2_6luq_protein_autoprepared_prepared

>  <s_lp_Force_Field>  (1) 
S-OPLS

>  <s_lp_Variant>  (1) 
DiffSBDD_32_num_sample_50-1

>  <s_m_source_file>  (1) 
generated__ligand_DiffSBDD_2026-05-06_prepared.sdf

>  <GenAI_Model>  (1) 
DiffSBDD

>  <Protein>  (1) 
generic_title2

$$$$
DiffSBDD_1_num_sample_50
     RDKit          3D

  0  0  0  0  0  0  0  0  0  0999 V3000
M  V30 BEGIN CTAB
M  V30 COUNTS 72 77 0 0 1
M  V30 BEGIN ATOM
M  V30 1 N 7.898464 3.432297 -13.859069 0
M  V30 2 C 9.617381 2.402826 -20.103227 0
M  V30 3 C 9.816115 6.539879 -10.134165 0
M  V30 4 O 11.712278 8.015350 -10.239380 0
M  V30 5 C 7.281819 1.962661 -15.702507 0
M  V30 6 O 5.880000 2.267553 -13.304502 0
M  V30 7 C 7.835034 4.947518 -10.018513 0
M  V30 8 C 8.930810 4.371006 -13.367110 0
M  V30 9 C 12.234847 9.239185 -9.773610 0
M  V30 10 C 10.807171 7.303582 -9.478105 0
M  V30 11 C 7.086811 1.697643 -17.203172 0
M  V30 12 C 6.833692 3.938541 -20.308862 0
M  V30 13 C 8.018937 4.222839 -16.212051 0
M  V30 14 C 8.972581 5.778420 -7.976434 0
M  V30 15 O 11.198194 9.030461 -6.575140 0
M  V30 16 C 8.890736 5.769292 -9.384029 0
M  V30 17 C 7.010994 0.753000 -14.800088 0 CFG=2
M  V30 18 C 5.968113 0.925402 -13.700210 0
M  V30 19 N 7.364559 2.846194 -18.064346 0
M  V30 20 C 8.418804 5.471154 -12.422084 0 CFG=1
M  V30 21 O 11.834833 8.009338 -7.392619 0
M  V30 22 C 7.720039 3.179360 -15.235305 0
M  V30 23 C 7.611949 4.799210 -11.342619 0
M  V30 24 C 9.951725 6.535822 -7.318219 0
M  V30 25 C 6.398119 3.597519 -21.741488 0
M  V30 26 C 7.056078 2.814916 -12.818183 0 CFG=2
M  V30 27 O 8.218186 0.212161 -14.291674 0
M  V30 28 C 7.761558 1.449499 -21.641745 0 CFG=1
M  V30 29 S 9.755305 6.547646 -11.891670 0
M  V30 30 C 7.838238 4.029116 -17.523328 0
M  V30 31 C 10.872501 7.298279 -8.054502 0
M  V30 32 C 8.206633 1.779018 -20.190745 0 CFG=2
M  V30 33 C 6.518606 3.899325 -11.856101 0
M  V30 34 C 7.121547 2.650000 -19.502022 0 CFG=2
M  V30 35 C 7.445529 2.724230 -22.450782 0
M  V30 36 C 8.741517 0.528897 -22.387811 0
M  V30 37 H 9.689465 3.340055 -20.653507 0
M  V30 38 H 9.893958 2.608526 -19.069094 0
M  V30 39 H 10.377448 1.729245 -20.497857 0
M  V30 40 H 7.194181 4.409080 -9.335533 0
M  V30 41 H 9.508695 4.812970 -14.176548 0
M  V30 42 H 9.656740 3.768500 -12.818852 0
M  V30 43 H 12.634834 9.777064 -10.628664 0
M  V30 44 H 11.475053 9.860747 -9.299727 0
M  V30 45 H 13.068772 9.067988 -9.095278 0
M  V30 46 H 7.738479 0.870544 -17.482556 0
M  V30 47 H 6.059192 1.369835 -17.364138 0
M  V30 48 H 6.049168 4.517392 -19.819980 0
M  V30 49 H 7.713499 4.579181 -20.357651 0
M  V30 50 H 8.383069 5.180142 -15.873715 0
M  V30 51 H 8.270822 5.198361 -7.398507 0
M  V30 52 H 11.027408 8.543188 -5.784195 0
M  V30 53 H 6.630296 -0.039655 -15.445992 0
M  V30 54 H 6.163536 0.276084 -12.844934 0
M  V30 55 H 4.985828 0.641971 -14.079690 0
M  V30 56 H 7.728301 6.105134 -12.979384 0
M  V30 57 H 9.999950 6.526267 -6.239517 0
M  V30 58 H 5.441205 3.074123 -21.717741 0
M  V30 59 H 6.234383 4.515001 -22.307862 0
M  V30 60 H 7.660348 2.073330 -12.292552 0
M  V30 61 H 8.141172 -0.732297 -14.292359 0
M  V30 62 H 6.827444 0.890087 -21.561877 0
M  V30 63 H 8.049805 4.797448 -18.247812 0
M  V30 64 H 8.256871 0.827732 -19.660550 0
M  V30 65 H 5.979636 3.415777 -11.040116 0
M  V30 66 H 5.796454 4.515781 -12.393609 0
M  V30 67 H 6.195573 2.073835 -19.544384 0
M  V30 68 H 7.075171 2.453353 -23.440348 0
M  V30 69 H 8.355909 3.301902 -22.615320 0
M  V30 70 H 9.684179 1.029933 -22.606896 0
M  V30 71 H 8.962886 -0.365653 -21.805457 0
M  V30 72 H 8.320597 0.201701 -23.338581 0
M  V30 END ATOM
M  V30 BEGIN BOND
M  V30 1 1 8 1
M  V30 2 1 9 4
M  V30 3 1 10 3
M  V30 4 1 10 4
M  V30 5 1 11 5
M  V30 6 2 16 3
M  V30 7 1 16 7
M  V30 8 1 16 14
M  V30 9 1 17 5
M  V30 10 1 18 6
M  V30 11 1 18 17
M  V30 12 1 19 11
M  V30 13 1 20 8
M  V30 14 1 21 15
M  V30 15 1 22 1
M  V30 16 2 22 5
M  V30 17 1 22 13
M  V30 18 2 23 7
M  V30 19 1 23 20
M  V30 20 2 24 14
M  V30 21 1 25 12
M  V30 22 1 26 1
M  V30 23 1 26 6
M  V30 24 1 27 17
M  V30 25 1 29 3
M  V30 26 1 29 20
M  V30 27 2 30 13
M  V30 28 1 30 19
M  V30 29 2 31 10
M  V30 30 1 31 21
M  V30 31 1 31 24
M  V30 32 1 32 2
M  V30 33 1 32 28
M  V30 34 1 33 23
M  V30 35 1 33 26
M  V30 36 1 34 12
M  V30 37 1 34 19
M  V30 38 1 34 32
M  V30 39 1 35 25
M  V30 40 1 35 28
M  V30 41 1 36 28
M  V30 42 1 37 2
M  V30 43 1 38 2
M  V30 44 1 39 2
M  V30 45 1 40 7
M  V30 46 1 41 8
M  V30 47 1 42 8
M  V30 48 1 43 9
M  V30 49 1 44 9
M  V30 50 1 45 9
M  V30 51 1 46 11
M  V30 52 1 47 11
M  V30 53 1 48 12
M  V30 54 1 49 12
M  V30 55 1 50 13
M  V30 56 1 51 14
M  V30 57 1 52 15
M  V30 58 1 17 53 CFG=3
M  V30 59 1 54 18
M  V30 60 1 55 18
M  V30 61 1 20 56 CFG=3
M  V30 62 1 57 24
M  V30 63 1 58 25
M  V30 64 1 59 25
M  V30 65 1 26 60 CFG=1
M  V30 66 1 61 27
M  V30 67 1 28 62 CFG=1
M  V30 68 1 63 30
M  V30 69 1 32 64 CFG=1
M  V30 70 1 65 33
M  V30 71 1 66 33
M  V30 72 1 34 67 CFG=1
M  V30 73 1 68 35
M  V30 74 1 69 35
M  V30 75 1 70 36
M  V30 76 1 71 36
M  V30 77 1 72 36
M  V30 END BOND
M  V30 END CTAB
M  END
>  <i_epik_Tot_Q>  (1) 
0

>  <i_epik_Tot_abs_Q>  (1) 
0

>  <i_i_glide_confnum>  (1) 
3

>  <i_i_glide_lignum>  (1) 
5

>  <i_i_glide_posenum>  (1) 
247

>  <i_i_glide_rotatable_bonds>  (1) 
5

>  <i_lp_mmshare_version>  (1) 
72125

>  <i_m_source_file_index>  (1) 
2

>  <i_f3d_flags>  (1) 
0

>  <num_sample>  (1) 
50

>  <b_lp_Chiralities_Consistent>  (1) 
1

>  <r_epik_Charging_Adjusted_Penalty>  (1) 
1.7947178929853217e-12

>  <r_epik_Ionization_Penalty>  (1) 
2.2136665369831182e-05

>  <r_epik_Ionization_Penalty_Charging>  (1) 
1.7947178929853217e-12

>  <r_epik_Ionization_Penalty_Neutral>  (1) 
2.2136663575113287e-05

>  <r_epik_State_Penalty>  (1) 
-0

>  <r_glide_ring_energy>  (1) 
0

>  <r_i_docking_score>  (1) 
-4.5497808692099992

>  <r_i_glide_ecoul>  (1) 
-3.463066726411165

>  <r_i_glide_eff_state_penalty>  (1) 
-0

>  <r_i_glide_einternal>  (1) 
3.3463377561308336

>  <r_i_glide_emodel>  (1) 
-47.676026797631074

>  <r_i_glide_emodel_strain>  (1) 
0.46980209480693702

>  <r_i_glide_energy>  (1) 
-41.893248695169824

>  <r_i_glide_erotb>  (1) 
0.15600053340392078

>  <r_i_glide_esite>  (1) 
0

>  <r_i_glide_evdw>  (1) 
-38.43018196875866

>  <r_i_glide_gscore>  (1) 
-4.5497808692099992

>  <r_i_glide_gscore_strain>  (1) 
0

>  <r_i_glide_hbond>  (1) 
-0.021307565876689073

>  <r_i_glide_ligand_efficiency>  (1) 
-0.12638280192249998

>  <r_i_glide_ligand_efficiency_ln>  (1) 
-0.99263926478779319

>  <r_i_glide_ligand_efficiency_sa>  (1) 
-0.417306817459555

>  <r_i_glide_lipo>  (1) 
-1.3056233357106599

>  <r_i_glide_metal>  (1) 
-0

>  <r_i_glide_rewards>  (1) 
-0.9378813936269631

>  <r_lp_Energy>  (1) 
75.115066999999996

>  <r_lp_tautomer_probability>  (1) 
1

>  <s_epik_Chemistry_Notes>  (1) 
This compound has an imine and may undergo hydrolysis. This compound contains an acetal/aminal-like group ( X-CH(R)-Y where X, Y are N, S, or O) that may be acid/base labile, releasing an aldehyde.

>  <s_epik_cmdline>  (1) 
J2VwaWtfcHl0aG9uJywgJy1waHQnLCAnMS4wJywgJy1waCcsICc3LjQnLCAnLXRuJywgJzgnLCAnLW1hJywgJzUwMCcsICctaW1hZScsICc8aW5maWxlLm1hZT4nLCAnLW9tYWUnLCAnPG91dGZpbGUubWFlPic=

>  <s_epik_input>  (1) 
W0NIMl0xW0NIMl1bQ0gyXVtDQEBIXShbQ0BIXShbQ0gzXSlbQ0BASF0xW0NIM10pTihbQ0hdPVtDSF0yKVtDSDJdQyg9QzJOMzQpW0NAQEhdKFtPSF0pW0NIMl1PW0NAQEhdNFtDSDJdQzVbQ0BASF0oW0NIMl0zKVNjNmMoW0NIXT01KVtjSF1bY0hdYyhPW09IXSljNk9bQ0gzXQ==

>  <s_glide_docking_method>  (1) 
confgen

>  <s_i_glide_gridfile>  (1) 
gpcr_drd2_6luq_protein_autoprepared_prepared

>  <s_lp_Force_Field>  (1) 
S-OPLS

>  <s_lp_Variant>  (1) 
DiffSBDD_1_num_sample_50-2

>  <s_m_source_file>  (1) 
generated__ligand_DiffSBDD_2026-05-06_prepared.sdf

>  <GenAI_Model>  (1) 
DiffSBDD

>  <Protein>  (1) 
generic_title2

$$$$
DiffSBDD_2_num_sample_50
     RDKit          3D

  0  0  0  0  0  0  0  0  0  0999 V3000
M  V30 BEGIN CTAB
M  V30 COUNTS 55 58 0 0 1
M  V30 BEGIN ATOM
M  V30 1 C 8.997873 5.369223 -9.332373 0 CFG=1
M  V30 2 C 9.354732 6.683727 -11.828650 0
M  V30 3 O 11.041873 7.369676 -10.362300 0 CHG=-1
M  V30 4 C 6.873894 2.629480 -14.000012 0
M  V30 5 O 8.152820 2.660613 -18.225554 0
M  V30 6 C 7.816621 1.581489 -17.523654 0
M  V30 7 C 10.490654 8.327827 -6.110178 0
M  V30 8 C 9.093105 3.536810 -17.913666 0
M  V30 9 C 10.837133 6.832213 -6.113453 0
M  V30 10 O 10.095138 5.142939 -16.639186 0
M  V30 11 C 7.462031 1.591664 -16.232192 0
M  V30 12 C 6.389615 0.298768 -14.455214 0
M  V30 13 C 9.144047 4.204124 -16.763397 0
M  V30 14 C 7.495511 5.141917 -11.340892 0
M  V30 15 N 9.034916 6.815075 -9.326687 0 CFG=2 CHG=1
M  V30 16 C 9.743492 7.413201 -10.506508 0 CFG=2
M  V30 17 C 10.806821 6.214994 -7.519757 0
M  V30 18 C 6.349261 1.457178 -13.609003 0
M  V30 19 C 7.278917 6.794811 -13.199946 0
M  V30 20 N 7.898347 6.454529 -11.891667 0
M  V30 21 C 8.233342 3.996472 -15.612755 0
M  V30 22 C 7.092135 5.636938 -14.187316 0
M  V30 23 N 8.222664 5.072912 -14.677810 0
M  V30 24 C 6.912591 0.355237 -15.685391 0
M  V30 25 C 7.518691 2.800674 -15.331521 0
M  V30 26 C 9.393920 6.120144 -8.082442 0 CFG=2
M  V30 27 O 5.957614 5.277385 -14.505996 0
M  V30 28 C 7.602295 5.042881 -9.810022 0
M  V30 29 H 9.820769 4.897146 -9.865666 0
M  V30 30 H 9.899659 5.747634 -11.968844 0
M  V30 31 H 9.682996 7.319842 -12.651153 0
M  V30 32 H 6.840700 3.432045 -13.306712 0
M  V30 33 H 7.740026 0.706558 -18.153698 0
M  V30 34 H 10.632478 8.749587 -5.115505 0
M  V30 35 H 9.456017 8.505778 -6.408549 0
M  V30 36 H 11.133829 8.881560 -6.795446 0
M  V30 37 H 9.767861 3.709880 -18.739129 0
M  V30 38 H 11.833966 6.704512 -5.695639 0
M  V30 39 H 10.164892 6.288003 -5.448644 0
M  V30 40 H 10.594036 5.157402 -17.441333 0
M  V30 41 H 5.983030 -0.631918 -14.094406 0
M  V30 42 H 6.449958 4.949309 -11.587732 0
M  V30 43 H 8.088850 4.346578 -11.791808 0
M  V30 44 H 9.249662 8.383620 -10.578518 0
M  V30 45 H 11.485898 6.779775 -8.141627 0
M  V30 46 H 11.206975 5.204778 -7.482634 0
M  V30 47 H 5.905253 1.377815 -12.627366 0
M  V30 48 H 7.798087 7.622777 -13.683868 0
M  V30 49 H 6.281576 7.180918 -12.984392 0
M  V30 50 H 9.108466 5.518356 -14.485012 0
M  V30 51 H 6.911940 -0.537836 -16.295041 0
M  V30 52 H 8.599598 6.250458 -7.349904 0
M  V30 53 H 7.317419 4.054045 -9.466345 0
M  V30 54 H 6.877830 5.720457 -9.360902 0
M  V30 55 H 8.066333 7.192041 -9.307645 0
M  V30 END ATOM
M  V30 BEGIN BOND
M  V30 1 1 6 5
M  V30 2 1 8 5
M  V30 3 1 9 7
M  V30 4 2 11 6
M  V30 5 2 13 8
M  V30 6 1 13 10
M  V30 7 1 15 1
M  V30 8 1 16 2
M  V30 9 1 16 3
M  V30 10 1 16 15
M  V30 11 1 17 9
M  V30 12 2 18 4
M  V30 13 1 18 12
M  V30 14 1 20 2
M  V30 15 1 20 14
M  V30 16 1 20 19
M  V30 17 1 21 13
M  V30 18 1 22 19
M  V30 19 1 23 21
M  V30 20 1 23 22
M  V30 21 1 24 11
M  V30 22 2 24 12
M  V30 23 1 25 4
M  V30 24 1 25 11
M  V30 25 2 25 21
M  V30 26 1 26 1
M  V30 27 1 26 15
M  V30 28 1 26 17
M  V30 29 2 27 22
M  V30 30 1 28 1
M  V30 31 1 28 14
M  V30 32 1 1 29 CFG=3
M  V30 33 1 30 2
M  V30 34 1 31 2
M  V30 35 1 32 4
M  V30 36 1 33 6
M  V30 37 1 34 7
M  V30 38 1 35 7
M  V30 39 1 36 7
M  V30 40 1 37 8
M  V30 41 1 38 9
M  V30 42 1 39 9
M  V30 43 1 40 10
M  V30 44 1 41 12
M  V30 45 1 42 14
M  V30 46 1 43 14
M  V30 47 1 16 44 CFG=3
M  V30 48 1 45 17
M  V30 49 1 46 17
M  V30 50 1 47 18
M  V30 51 1 48 19
M  V30 52 1 49 19
M  V30 53 1 50 23
M  V30 54 1 51 24
M  V30 55 1 26 52 CFG=1
M  V30 56 1 53 28
M  V30 57 1 54 28
M  V30 58 1 15 55 CFG=1
M  V30 END BOND
M  V30 END CTAB
M  END
>  <i_epik_Tot_Q>  (1) 
0

>  <i_epik_Tot_abs_Q>  (1) 
2

>  <i_i_glide_confnum>  (1) 
8

>  <i_i_glide_lignum>  (1) 
9

>  <i_i_glide_posenum>  (1) 
177

>  <i_i_glide_rotatable_bonds>  (1) 
7

>  <i_lp_mmshare_version>  (1) 
72125

>  <i_m_source_file_index>  (1) 
3

>  <i_f3d_flags>  (1) 
0

>  <num_sample>  (1) 
50

>  <b_lp_Chiralities_Consistent>  (1) 
1

>  <r_epik_Charging_Adjusted_Penalty>  (1) 
1.1352312410036836

>  <r_epik_Ionization_Penalty>  (1) 
1.1482633258778028

>  <r_epik_Ionization_Penalty_Charging>  (1) 
0.01211088635150746

>  <r_epik_Ionization_Penalty_Neutral>  (1) 
1.1361524395262954

>  <r_epik_State_Penalty>  (1) 
1.1231203546521762

>  <r_glide_ring_energy>  (1) 
0

>  <r_i_docking_score>  (1) 
-4.5467979911412097

>  <r_i_glide_ecoul>  (1) 
-10.175800916996874

>  <r_i_glide_eff_state_penalty>  (1) 
1.1231203546521762

>  <r_i_glide_einternal>  (1) 
4.7523048042204294

>  <r_i_glide_emodel>  (1) 
-53.536874388759664

>  <r_i_glide_emodel_strain>  (1) 
1.562989804449245

>  <r_i_glide_energy>  (1) 
-41.127855862837521

>  <r_i_glide_erotb>  (1) 
0.65461972943922775

>  <r_i_glide_esite>  (1) 
-0.19364921452420286

>  <r_i_glide_evdw>  (1) 
-30.952054945840647

>  <r_i_glide_gscore>  (1) 
-5.6699183457933859

>  <r_i_glide_gscore_strain>  (1) 
0

>  <r_i_glide_hbond>  (1) 
-0.088309403432317135

>  <r_i_glide_ligand_efficiency>  (1) 
-0.16238564254075749

>  <r_i_glide_ligand_efficiency_ln>  (1) 
-1.0495344761453393

>  <r_i_glide_ligand_efficiency_sa>  (1) 
-0.49309845133020769

>  <r_i_glide_lipo>  (1) 
-1.6076689871840815

>  <r_i_glide_metal>  (1) 
-0

>  <r_i_glide_rewards>  (1) 
-1.3609375852504486

>  <r_lp_Energy>  (1) 
91.512348000000003

>  <s_epik_Chemistry_Notes>  (1) 
This compound contains an acetal/aminal-like group ( X-CH(R)-Y where X, Y are N, S, or O) that may be acid/base labile, releasing an aldehyde.

>  <s_epik_cmdline>  (1) 
J2VwaWtfcHl0aG9uJywgJy1waHQnLCAnMS4wJywgJy1waCcsICc3LjQnLCAnLXRuJywgJzgnLCAnLW1hJywgJzUwMCcsICctaW1hZScsICc8aW5maWxlLm1hZT4nLCAnLW9tYWUnLCAnPG91dGZpbGUubWFlPic=

>  <s_epik_input>  (1) 
W0NIM11bQ0gyXVtDSDJdW0NIXTFOKFtDQEBIXTEyKVtDQEBIXShbT0hdKVtDSDJdTihbQ0gyXVtDSDJdMilbQ0gyXUMoPU8pW05IXUMoQyhbT0hdKT1bQ0hdT1tDSF09Myk9YyhjMzQpW2NIXVtjSF1bY0hdW2NIXTQ=

>  <s_glide_docking_method>  (1) 
confgen

>  <s_i_glide_gridfile>  (1) 
gpcr_drd2_6luq_protein_autoprepared_prepared

>  <s_lp_Force_Field>  (1) 
S-OPLS

>  <s_lp_Variant>  (1) 
DiffSBDD_2_num_sample_50-4

>  <s_m_source_file>  (1) 
generated__ligand_DiffSBDD_2026-05-06_prepared.sdf

>  <GenAI_Model>  (1) 
DiffSBDD

>  <Protein>  (1) 
generic_title2

$$$$
DiffSBDD_10_num_sample_50
     RDKit          3D

  0  0  0  0  0  0  0  0  0  0999 V3000
M  V30 BEGIN CTAB
M  V30 COUNTS 72 73 0 0 1
M  V30 BEGIN ATOM
M  V30 1 C 10.792944 7.487873 -9.140561 0 CFG=2
M  V30 2 C 6.217081 -0.402173 -17.618575 0
M  V30 3 C 7.292056 2.796525 -15.715633 0
M  V30 4 C 7.077207 4.480700 -12.701971 0 CFG=1
M  V30 5 C 9.549672 6.576948 -9.242773 0 CFG=2
M  V30 6 N 7.240180 -0.230697 -15.434054 0
M  V30 7 N 7.157930 5.369303 -10.512723 0
M  V30 8 C 8.507348 5.037938 -10.895714 0 CFG=1
M  V30 9 S 11.505934 7.630931 -7.403099 0
M  V30 10 C 5.170388 -1.435270 -17.236343 0
M  V30 11 S 10.022580 8.569306 -6.291668 0 CHG=-1
M  V30 12 C 12.634887 8.903940 -10.291697 0
M  V30 13 O 3.821864 -5.929900 -17.491654 0
M  V30 14 O 11.680794 6.296083 -6.810316 0
M  V30 15 C 9.434843 8.105186 -9.333035 0 CFG=2
M  V30 16 C 9.353649 3.129306 -17.234068 0
M  V30 17 C 6.275979 5.281220 -11.662443 0 CFG=1
M  V30 18 N 4.557348 -3.853850 -17.491667 0 CHG=1
M  V30 19 N 8.068896 1.040018 -17.201567 0
M  V30 20 C 5.580048 -2.822993 -17.755690 0
M  V30 21 C 8.984573 6.176915 -13.095933 0
M  V30 22 C 11.884515 7.576670 -10.201235 0
M  V30 23 C 9.049950 5.701461 -8.086097 0
M  V30 24 C 6.549876 4.629558 -14.147656 0
M  V30 25 C 8.214001 2.227512 -16.743939 0
M  V30 26 O 9.034845 8.513487 -10.635229 0
M  V30 27 C 7.128541 0.108230 -16.770028 0
M  V30 28 O 12.634832 8.569291 -7.423898 0
M  V30 29 F 6.004422 6.516304 -12.085867 0
M  V30 30 N 10.307390 2.446572 -18.095038 0
M  V30 31 C 5.014214 -5.226082 -17.742756 0
M  V30 32 C 8.538338 4.866052 -12.423817 0 CFG=2
M  V30 33 O 9.497909 5.962888 -10.537934 0
M  V30 34 C 7.462583 4.022236 -15.193611 0
M  V30 35 H 6.212527 -0.074873 -18.649313 0
M  V30 36 H 6.472552 2.169595 -15.405268 0
M  V30 37 H 6.982009 3.426521 -12.435282 0
M  V30 38 H 6.685149 -0.970617 -15.029186 0
M  V30 39 H 7.076001 6.300813 -10.080042 0
M  V30 40 H 8.767723 4.099019 -10.412627 0
M  V30 41 H 4.215019 -1.126713 -17.662180 0
M  V30 42 H 5.030938 -1.461870 -16.155520 0
M  V30 43 H 13.161285 8.969283 -11.240274 0
M  V30 44 H 11.977034 9.764698 -10.184861 0
M  V30 45 H 13.430185 8.969298 -9.555650 0
M  V30 46 H 3.815782 -6.196160 -16.581529 0
M  V30 47 H 8.928045 8.672857 -8.565557 0
M  V30 48 H 8.933594 3.977983 -17.775365 0
M  V30 49 H 9.905381 3.521605 -16.380453 0
M  V30 50 H 5.329829 4.808839 -11.399078 0
M  V30 51 H 3.730502 -3.677173 -18.043836 0
M  V30 52 H 6.515229 -3.116747 -17.277048 0
M  V30 53 H 5.770261 -2.785470 -18.829242 0
M  V30 54 H 8.432371 7.036179 -12.719919 0
M  V30 55 H 10.044625 6.363268 -12.927768 0
M  V30 56 H 8.831778 6.161747 -14.168925 0
M  V30 57 H 12.634809 6.843098 -9.944019 0
M  V30 58 H 11.473885 7.321971 -11.177032 0
M  V30 59 H 9.135771 6.191130 -7.123074 0
M  V30 60 H 7.995379 5.455584 -8.176550 0
M  V30 61 H 9.618698 4.773668 -8.050269 0
M  V30 62 H 6.415940 5.681352 -14.403021 0
M  V30 63 H 5.562753 4.172356 -14.214854 0
M  V30 64 H 8.091212 8.362597 -10.608009 0
M  V30 65 H 11.083125 3.058463 -18.302330 0
M  V30 66 H 10.689235 1.654112 -17.597812 0
M  V30 67 H 5.812297 -5.525182 -17.061522 0
M  V30 68 H 5.335815 -5.357167 -18.776775 0
M  V30 69 H 9.225595 4.061409 -12.691342 0
M  V30 70 H 8.288231 4.632920 -15.516438 0
M  V30 71 H 8.006281 0.105619 -14.869524 0
M  V30 72 H 4.302679 -3.830675 -16.496956 0
M  V30 END ATOM
M  V30 BEGIN BOND
M  V30 1 1 5 1
M  V30 2 1 8 7
M  V30 3 1 9 1
M  V30 4 1 10 2
M  V30 5 1 11 9
M  V30 6 2 14 9
M  V30 7 1 15 1
M  V30 8 1 15 5
M  V30 9 1 17 4
M  V30 10 1 17 7
M  V30 11 1 20 10
M  V30 12 1 20 18
M  V30 13 1 1 22 CFG=3
M  V30 14 1 22 12
M  V30 15 1 23 5
M  V30 16 1 24 4
M  V30 17 1 25 3
M  V30 18 1 25 16
M  V30 19 2 25 19
M  V30 20 1 26 15
M  V30 21 2 27 2
M  V30 22 1 27 6
M  V30 23 1 27 19
M  V30 24 2 28 9
M  V30 25 1 29 17
M  V30 26 1 30 16
M  V30 27 1 31 13
M  V30 28 1 31 18
M  V30 29 1 32 4
M  V30 30 1 32 8
M  V30 31 1 32 21
M  V30 32 1 5 33 CFG=3
M  V30 33 1 33 8
M  V30 34 2 34 3
M  V30 35 1 34 24
M  V30 36 1 35 2
M  V30 37 1 36 3
M  V30 38 1 4 37 CFG=1
M  V30 39 1 38 6
M  V30 40 1 39 7
M  V30 41 1 8 40 CFG=1
M  V30 42 1 41 10
M  V30 43 1 42 10
M  V30 44 1 43 12
M  V30 45 1 44 12
M  V30 46 1 45 12
M  V30 47 1 46 13
M  V30 48 1 15 47 CFG=1
M  V30 49 1 48 16
M  V30 50 1 49 16
M  V30 51 1 17 50 CFG=1
M  V30 52 1 51 18
M  V30 53 1 52 20
M  V30 54 1 53 20
M  V30 55 1 54 21
M  V30 56 1 55 21
M  V30 57 1 56 21
M  V30 58 1 57 22
M  V30 59 1 58 22
M  V30 60 1 59 23
M  V30 61 1 60 23
M  V30 62 1 61 23
M  V30 63 1 62 24
M  V30 64 1 63 24
M  V30 65 1 64 26
M  V30 66 1 65 30
M  V30 67 1 66 30
M  V30 68 1 67 31
M  V30 69 1 68 31
M  V30 70 1 32 69 CFG=1
M  V30 71 1 70 34
M  V30 72 1 71 6
M  V30 73 1 72 18
M  V30 END BOND
M  V30 END CTAB
M  END
>  <i_epik_Tot_Q>  (1) 
0

>  <i_epik_Tot_abs_Q>  (1) 
2

>  <i_i_glide_confnum>  (1) 
1616

>  <i_i_glide_lignum>  (1) 
22

>  <i_i_glide_posenum>  (1) 
204

>  <i_i_glide_rotatable_bonds>  (1) 
15

>  <i_lp_mmshare_version>  (1) 
72125

>  <i_m_source_file_index>  (1) 
11

>  <i_f3d_flags>  (1) 
0

>  <num_sample>  (1) 
50

>  <b_lp_Chiralities_Consistent>  (1) 
1

>  <r_epik_Charging_Adjusted_Penalty>  (1) 
0.33639934582642134

>  <r_epik_Ionization_Penalty>  (1) 
0.23315943830934333

>  <r_epik_Ionization_Penalty_Charging>  (1) 
0.10316865490585193

>  <r_epik_Ionization_Penalty_Neutral>  (1) 
0.12999078340349141

>  <r_epik_State_Penalty>  (1) 
0.23323069092056939

>  <r_glide_ring_energy>  (1) 
0

>  <r_i_docking_score>  (1) 
-4.5327270402199975

>  <r_i_glide_ecoul>  (1) 
-15.359826045826676

>  <r_i_glide_eff_state_penalty>  (1) 
0.23323069092056939

>  <r_i_glide_einternal>  (1) 
25.496571202311806

>  <r_i_glide_emodel>  (1) 
-39.659139937800887

>  <r_i_glide_emodel_strain>  (1) 
7.2061406337527387

>  <r_i_glide_energy>  (1) 
-43.616850842092212

>  <r_i_glide_erotb>  (1) 
0.82510599487301828

>  <r_i_glide_esite>  (1) 
-0.26845863333150721

>  <r_i_glide_evdw>  (1) 
-28.257024796265537

>  <r_i_glide_gscore>  (1) 
-4.765957731140567

>  <r_i_glide_gscore_strain>  (1) 
0.80153515843818468

>  <r_i_glide_hbond>  (1) 
-0.53948208144170806

>  <r_i_glide_ligand_efficiency>  (1) 
-0.13331550118294111

>  <r_i_glide_ligand_efficiency_ln>  (1) 
-1.0014065418716014

>  <r_i_glide_ligand_efficiency_sa>  (1) 
-0.43189047092547833

>  <r_i_glide_lipo>  (1) 
-1.1456031234841852

>  <r_i_glide_metal>  (1) 
-0

>  <r_i_glide_rewards>  (1) 
-0.7222298995070916

>  <r_lp_Energy>  (1) 
22.791024

>  <s_epik_Chemistry_Notes>  (1) 
This compound has an imine and may undergo hydrolysis. This compound contains an acetal/aminal-like group ( X-CH(R)-Y where X, Y are N, S, or O) that may be acid/base labile, releasing an aldehyde.

>  <s_epik_cmdline>  (1) 
J2VwaWtfcHl0aG9uJywgJy1waHQnLCAnMS4wJywgJy1waCcsICc3LjQnLCAnLXRuJywgJzgnLCAnLW1hJywgJzUwMCcsICctaW1hZScsICc8aW5maWxlLm1hZT4nLCAnLW9tYWUnLCAnPG91dGZpbGUubWFlPic=

>  <s_epik_input>  (1) 
W1NIXVMoPU8pKD1PKVtDQEBdMShbQ0gyXVtDSDNdKVtDQEBdKFtDSDNdKShbQ0BASF0xW09IXSlPW0NASF0oW0NAQEhdMltDSDNdKVtOSF1bQ0BASF0oRilbQ0BIXTJbQ0gyXVxbQ0hdPVtDSF1cQyhbQ0gyXVtOSDJdKT1OL0MoPU4vW0hdKS9bQ0gyXVtDSDJdW0NIMl1bTkhdW0NIMl1bT0hd

>  <s_glide_docking_method>  (1) 
confgen

>  <s_i_glide_gridfile>  (1) 
gpcr_drd2_6luq_protein_autoprepared_prepared

>  <s_lp_Force_Field>  (1) 
S-OPLS

>  <s_lp_Variant>  (1) 
DiffSBDD_10_num_sample_50-2

>  <s_m_source_file>  (1) 
generated__ligand_DiffSBDD_2026-05-06_prepared.sdf

>  <GenAI_Model>  (1) 
DiffSBDD

>  <Protein>  (1) 
generic_title2

$$$$
DiffSBDD_8_num_sample_50
     RDKit          3D

  0  0  0  0  0  0  0  0  0  0999 V3000
M  V30 BEGIN CTAB
M  V30 COUNTS 64 69 0 0 1
M  V30 BEGIN ATOM
M  V30 1 C 9.351216 6.763953 -9.446683 0 CFG=2
M  V30 2 O 7.428551 5.405557 -17.532556 0
M  V30 3 C 10.155148 8.017502 -7.210018 0 CFG=1
M  V30 4 N 12.073428 9.344917 -6.952178 0
M  V30 5 F 10.011119 2.966753 -17.153001 0
M  V30 6 C 9.596551 4.224330 -17.317869 0 CFG=2
M  V30 7 C 10.034057 4.641986 -18.723419 0
M  V30 8 C 7.504155 2.580285 -15.261407 0
M  V30 9 C 7.481544 4.614324 -13.261035 0
M  V30 10 C 10.122638 3.706809 -19.910718 0
M  V30 11 O 13.114040 7.013121 -17.500721 0
M  V30 12 C 12.205510 8.966379 -8.347424 0 CFG=2
M  V30 13 O 12.290374 6.569300 -15.247366 0 CHG=-1
M  V30 14 O 10.827655 8.988759 -5.115180 0
M  V30 15 O 10.377346 5.089175 -16.503153 0
M  V30 16 N 7.783966 3.981790 -15.583857 0
M  V30 17 C 7.267986 5.725159 -12.220412 0
M  V30 18 N 12.242255 6.441431 -16.659323 0 CHG=1
M  V30 19 N 11.164088 5.515887 -18.607680 0
M  V30 20 C 11.274544 5.688745 -17.336816 0
M  V30 21 C 7.712654 5.019008 -14.674991 0
M  V30 22 O 7.834851 6.186680 -15.029687 0
M  V30 23 C 11.051191 8.830279 -6.308183 0
M  V30 24 C 8.832227 6.024524 -8.194846 0
M  V30 25 C 11.312622 7.697406 -8.210894 0 CFG=2
M  V30 26 O 13.504920 8.569299 -8.691838 0
M  V30 27 C 9.185811 4.889174 -19.957078 0
M  V30 28 C 9.489656 6.285902 -10.916907 0 CFG=2
M  V30 29 C 10.806363 7.117140 -10.888658 0
M  V30 30 C 8.068066 4.246654 -17.016536 0 CFG=1
M  V30 31 C 7.675666 2.169951 -13.834882 0
M  V30 32 C 9.332014 6.740773 -6.874828 0
M  V30 33 C 8.457012 6.693104 -11.980181 0
M  V30 34 C 10.832080 6.857702 -9.372785 0 CFG=2
M  V30 35 C 7.463246 3.314971 -12.912932 0
M  V30 36 H 9.034839 7.802687 -9.476857 0
M  V30 37 H 7.376687 6.034433 -16.821320 0
M  V30 38 H 9.471048 8.756369 -7.629745 0
M  V30 39 H 12.768794 9.916873 -6.497775 0
M  V30 40 H 8.107847 1.918718 -15.883168 0
M  V30 41 H 6.474489 2.389501 -15.558042 0
M  V30 42 H 11.013296 3.748194 -20.535344 0
M  V30 43 H 9.669257 2.722096 -19.814689 0
M  V30 44 H 11.786951 9.707159 -9.031107 0
M  V30 45 H 6.958638 5.294391 -11.267055 0
M  V30 46 H 6.413011 6.310794 -12.560577 0
M  V30 47 H 9.187497 4.993265 -8.192554 0
M  V30 48 H 7.756886 5.917086 -8.228666 0
M  V30 49 H 11.949867 6.986726 -7.669426 0
M  V30 50 H 13.895137 9.260684 -9.218896 0
M  V30 51 H 8.123357 4.661638 -19.925394 0
M  V30 52 H 9.458403 5.725531 -20.598167 0
M  V30 53 H 9.722322 5.219120 -10.962735 0
M  V30 54 H 11.617031 6.702315 -11.491641 0
M  V30 55 H 10.645094 8.169308 -11.128099 0
M  V30 56 H 7.622820 3.438172 -17.599043 0
M  V30 57 H 8.669522 1.769245 -13.651336 0
M  V30 58 H 6.972509 1.373313 -13.589337 0
M  V30 59 H 9.921402 6.057459 -6.263619 0
M  V30 60 H 8.459601 7.024274 -6.291673 0
M  V30 61 H 8.033202 7.653346 -11.685397 0
M  V30 62 H 8.972571 6.901686 -12.914353 0
M  V30 63 H 11.034839 5.827218 -9.091670 0
M  V30 64 H 7.291973 3.060697 -11.891668 0
M  V30 END ATOM
M  V30 BEGIN BOND
M  V30 1 1 6 5 CFG=1
M  V30 2 1 7 6
M  V30 3 1 10 7
M  V30 4 1 12 4
M  V30 5 1 15 6
M  V30 6 1 16 8
M  V30 7 1 17 9
M  V30 8 2 18 11
M  V30 9 1 18 13
M  V30 10 1 19 7
M  V30 11 1 20 15
M  V30 12 1 20 18
M  V30 13 2 20 19
M  V30 14 1 21 9
M  V30 15 1 21 16
M  V30 16 2 22 21
M  V30 17 1 23 3
M  V30 18 1 23 4
M  V30 19 2 23 14
M  V30 20 1 24 1
M  V30 21 1 25 3
M  V30 22 1 25 12
M  V30 23 1 26 12
M  V30 24 1 27 7
M  V30 25 1 27 10
M  V30 26 1 28 1
M  V30 27 1 29 28
M  V30 28 1 30 2
M  V30 29 1 30 6
M  V30 30 1 30 16
M  V30 31 1 31 8
M  V30 32 1 32 3
M  V30 33 1 32 24
M  V30 34 1 33 17
M  V30 35 1 33 28
M  V30 36 1 34 1
M  V30 37 1 34 25
M  V30 38 1 34 29
M  V30 39 2 35 9
M  V30 40 1 35 31
M  V30 41 1 1 36 CFG=3
M  V30 42 1 37 2
M  V30 43 1 3 38 CFG=3
M  V30 44 1 39 4
M  V30 45 1 40 8
M  V30 46 1 41 8
M  V30 47 1 42 10
M  V30 48 1 43 10
M  V30 49 1 12 44 CFG=3
M  V30 50 1 45 17
M  V30 51 1 46 17
M  V30 52 1 47 24
M  V30 53 1 48 24
M  V30 54 1 25 49 CFG=1
M  V30 55 1 50 26
M  V30 56 1 51 27
M  V30 57 1 52 27
M  V30 58 1 28 53 CFG=1
M  V30 59 1 54 29
M  V30 60 1 55 29
M  V30 61 1 30 56 CFG=3
M  V30 62 1 57 31
M  V30 63 1 58 31
M  V30 64 1 59 32
M  V30 65 1 60 32
M  V30 66 1 61 33
M  V30 67 1 62 33
M  V30 68 1 34 63 CFG=3
M  V30 69 1 64 35
M  V30 END BOND
M  V30 END CTAB
M  END
>  <i_epik_Tot_Q>  (1) 
0

>  <i_epik_Tot_abs_Q>  (1) 
2

>  <i_i_glide_confnum>  (1) 
248

>  <i_i_glide_lignum>  (1) 
19

>  <i_i_glide_posenum>  (1) 
78

>  <i_i_glide_rotatable_bonds>  (1) 
8

>  <i_lp_mmshare_version>  (1) 
72125

>  <i_m_source_file_index>  (1) 
9

>  <i_f3d_flags>  (1) 
0

>  <num_sample>  (1) 
50

>  <b_lp_Chiralities_Consistent>  (1) 
1

>  <r_epik_Charging_Adjusted_Penalty>  (1) 
0.96578762746863478

>  <r_epik_Ionization_Penalty>  (1) 
0.96579538567658219

>  <r_epik_Ionization_Penalty_Charging>  (1) 
0

>  <r_epik_Ionization_Penalty_Neutral>  (1) 
0.96579538567658219

>  <r_epik_State_Penalty>  (1) 
0.96578762746863478

>  <r_glide_ring_energy>  (1) 
0.016691843605627837

>  <r_i_docking_score>  (1) 
-4.5289698826268738

>  <r_i_glide_ecoul>  (1) 
-5.009254301558185

>  <r_i_glide_eff_state_penalty>  (1) 
0.96578762746863478

>  <r_i_glide_einternal>  (1) 
9.4187397457993907

>  <r_i_glide_emodel>  (1) 
-34.098577307037459

>  <r_i_glide_emodel_strain>  (1) 
3.6399911993981959

>  <r_i_glide_energy>  (1) 
-35.055439000439257

>  <r_i_glide_erotb>  (1) 
0.41978570389785574

>  <r_i_glide_esite>  (1) 
0

>  <r_i_glide_evdw>  (1) 
-30.046184698881074

>  <r_i_glide_gscore>  (1) 
-5.4947575100955088

>  <r_i_glide_gscore_strain>  (1) 
0

>  <r_i_glide_hbond>  (1) 
-0.32000000000000001

>  <r_i_glide_ligand_efficiency>  (1) 
-0.12939913950362497

>  <r_i_glide_ligand_efficiency_ln>  (1) 
-0.99420940430753502

>  <r_i_glide_ligand_efficiency_sa>  (1) 
-0.42327316579770119

>  <r_i_glide_lipo>  (1) 
-0.73011529340796377

>  <r_i_glide_metal>  (1) 
-0

>  <r_i_glide_rewards>  (1) 
-2.6107305404076193

>  <r_lp_Energy>  (1) 
65.271344999999997

>  <s_epik_Chemistry_Notes>  (1) 
This compound has an imine and may undergo hydrolysis. This compound contains an acetal/aminal-like group ( X-CH(R)-Y where X, Y are N, S, or O) that may be acid/base labile, releasing an aldehyde.

>  <s_epik_cmdline>  (1) 
J2VwaWtfcHl0aG9uJywgJy1waHQnLCAnMS4wJywgJy1waCcsICc3LjQnLCAnLXRuJywgJzgnLCAnLW1hJywgJzUwMCcsICctaW1hZScsICc8aW5maWxlLm1hZT4nLCAnLW9tYWUnLCAnPG91dGZpbGUubWFlPic=

>  <s_epik_input>  (1) 
W09IXVtDQEBIXTFbTkhdQyg9TylbQ0BIXShbQ0gyXVtDSDJdMilbQ0BIXTFbQ0BASF0oW0NASF0yMylbQ0gyXVtDQEBIXTNbQ0gyXVtDSDJdQzQ9W0NIXVtDSDJdW0NIMl1OKEM0PU8pW0NAQEhdKFtPSF0pW0NAQF0oRikoQzU2W0NIMl1bQ0gyXTYpT0MoPU41KVtOK10oPU8pW08tXQ==

>  <s_glide_docking_method>  (1) 
confgen

>  <s_i_glide_gridfile>  (1) 
gpcr_drd2_6luq_protein_autoprepared_prepared

>  <s_lp_Force_Field>  (1) 
S-OPLS

>  <s_lp_Variant>  (1) 
DiffSBDD_8_num_sample_50-2

>  <s_m_source_file>  (1) 
generated__ligand_DiffSBDD_2026-05-06_prepared.sdf

>  <GenAI_Model>  (1) 
DiffSBDD

>  <Protein>  (1) 
generic_title2

$$$$
DiffSBDD_9_num_sample_50
     RDKit          3D

  0  0  0  0  0  0  0  0  0  0999 V3000
M  V30 BEGIN CTAB
M  V30 COUNTS 38 40 0 0 1
M  V30 BEGIN ATOM
M  V30 1 C 10.536611 4.760837 -17.311530 0 CFG=2
M  V30 2 F 13.195004 7.566200 -16.141567 0
M  V30 3 C 6.549370 2.674037 -13.197270 0
M  V30 4 C 9.628709 2.694741 -18.437018 0
M  V30 5 C 6.221865 0.325107 -12.267565 0
M  V30 6 C 7.541041 1.651211 -15.598989 0
M  V30 7 C 7.161915 0.749129 -14.586484 0
M  V30 8 F 14.389219 5.764198 -16.278865 0
M  V30 9 F 11.891346 6.924704 -18.464337 0
M  V30 10 C 10.778121 3.276438 -17.613433 0
M  V30 11 C 6.654846 1.266680 -13.371809 0
M  V30 12 O 11.744075 5.358392 -16.855821 0
M  V30 13 C 8.049483 1.325475 -16.863135 0
M  V30 14 F 13.091809 5.085960 -18.631473 0
M  V30 15 C 12.556350 5.975362 -17.758047 0
M  V30 16 C 8.281960 2.605102 -17.692633 0 CFG=1
M  V30 17 C 6.944419 3.541845 -14.243298 0
M  V30 18 C 13.697744 6.662540 -16.983271 0
M  V30 19 C 7.887246 3.811187 -16.640624 0 CFG=1
M  V30 20 C 7.435098 2.985559 -15.438254 0
M  V30 21 F 14.529585 7.276967 -17.825744 0
M  V30 22 C 8.289105 0.072358 -17.294992 0
M  V30 23 S 9.218075 4.935067 -16.086955 0
M  V30 24 H 10.182460 5.265489 -18.211414 0
M  V30 25 H 6.165602 3.080572 -12.273105 0
M  V30 26 H 9.492398 3.316818 -19.322714 0
M  V30 27 H 9.916720 1.717963 -18.823505 0
M  V30 28 H 5.901466 0.869789 -11.380350 0
M  V30 29 H 7.034726 -0.344473 -11.989054 0
M  V30 30 H 5.381190 -0.280137 -12.604583 0
M  V30 31 H 7.247608 -0.317598 -14.732825 0
M  V30 32 H 10.924876 2.714362 -16.691668 0
M  V30 33 H 11.694368 3.154500 -18.188815 0
M  V30 34 H 7.491864 2.578039 -18.444735 0
M  V30 35 H 6.866992 4.612754 -14.126305 0
M  V30 36 H 7.055952 4.400438 -17.028324 0
M  V30 37 H 8.100074 -0.784102 -16.664855 0
M  V30 38 H 8.676862 -0.109497 -18.285820 0
M  V30 END ATOM
M  V30 BEGIN BOND
M  V30 1 1 7 6
M  V30 2 1 10 1
M  V30 3 1 10 4
M  V30 4 1 11 3
M  V30 5 1 11 5
M  V30 6 2 11 7
M  V30 7 1 12 1
M  V30 8 1 13 6
M  V30 9 1 15 9
M  V30 10 1 15 12
M  V30 11 1 15 14
M  V30 12 1 16 4
M  V30 13 1 16 13
M  V30 14 2 17 3
M  V30 15 1 18 2
M  V30 16 1 18 8
M  V30 17 1 18 15
M  V30 18 1 19 16
M  V30 19 2 20 6
M  V30 20 1 20 17
M  V30 21 1 20 19
M  V30 22 1 21 18
M  V30 23 2 22 13
M  V30 24 1 23 1
M  V30 25 1 23 19
M  V30 26 1 1 24 CFG=3
M  V30 27 1 25 3
M  V30 28 1 26 4
M  V30 29 1 27 4
M  V30 30 1 28 5
M  V30 31 1 29 5
M  V30 32 1 30 5
M  V30 33 1 31 7
M  V30 34 1 32 10
M  V30 35 1 33 10
M  V30 36 1 16 34 CFG=3
M  V30 37 1 35 17
M  V30 38 1 19 36 CFG=3
M  V30 39 1 37 22
M  V30 40 1 38 22
M  V30 END BOND
M  V30 END CTAB
M  END
>  <i_epik_Tot_Q>  (1) 
0

>  <i_epik_Tot_abs_Q>  (1) 
0

>  <i_i_glide_confnum>  (1) 
5

>  <i_i_glide_lignum>  (1) 
20

>  <i_i_glide_posenum>  (1) 
330

>  <i_i_glide_rotatable_bonds>  (1) 
3

>  <i_lp_mmshare_version>  (1) 
72125

>  <i_m_source_file_index>  (1) 
10

>  <i_f3d_flags>  (1) 
0

>  <num_sample>  (1) 
50

>  <b_lp_Chiralities_Consistent>  (1) 
1

>  <r_epik_Charging_Adjusted_Penalty>  (1) 
0

>  <r_epik_Ionization_Penalty>  (1) 
0

>  <r_epik_Ionization_Penalty_Charging>  (1) 
0

>  <r_epik_Ionization_Penalty_Neutral>  (1) 
0

>  <r_epik_State_Penalty>  (1) 
-0

>  <r_glide_ring_energy>  (1) 
0

>  <r_i_docking_score>  (1) 
-4.5262462739237623

>  <r_i_glide_ecoul>  (1) 
-0.0065366826143026246

>  <r_i_glide_eff_state_penalty>  (1) 
-0

>  <r_i_glide_einternal>  (1) 
3.861890862860669

>  <r_i_glide_emodel>  (1) 
-26.10354209859414

>  <r_i_glide_emodel_strain>  (1) 
0.97632888887847713

>  <r_i_glide_energy>  (1) 
-22.679530565747061

>  <r_i_glide_erotb>  (1) 
0.31055348549958028

>  <r_i_glide_esite>  (1) 
0

>  <r_i_glide_evdw>  (1) 
-22.672993883132758

>  <r_i_glide_gscore>  (1) 
-4.5262462739237623

>  <r_i_glide_gscore_strain>  (1) 
0

>  <r_i_glide_hbond>  (1) 
0

>  <r_i_glide_ligand_efficiency>  (1) 
-0.19679331625755489

>  <r_i_glide_ligand_efficiency_ln>  (1) 
-1.0944873907668662

>  <r_i_glide_ligand_efficiency_sa>  (1) 
-0.55965401396034664

>  <r_i_glide_lipo>  (1) 
-1.9412330207720334

>  <r_i_glide_metal>  (1) 
-0

>  <r_i_glide_rewards>  (1) 
-1.7609365421025258

>  <r_lp_Energy>  (1) 
13.417608

>  <r_lp_tautomer_probability>  (1) 
1

>  <s_epik_Chemistry_Notes>  (1) 
This compound contains an acetal/aminal-like group ( X-CH(R)-Y where X, Y are N, S, or O) that may be acid/base labile, releasing an aldehyde.

>  <s_epik_cmdline>  (1) 
J2VwaWtfcHl0aG9uJywgJy1waHQnLCAnMS4wJywgJy1waCcsICc3LjQnLCAnLXRuJywgJzgnLCAnLW1hJywgJzUwMCcsICctaW1hZScsICc8aW5maWxlLm1hZT4nLCAnLW9tYWUnLCAnPG91dGZpbGUubWFlPic=

>  <s_epik_input>  (1) 
RkMoRikoRilDKEYpKEYpT1tDQEhdKFMxKVtDSDJdW0NIMl1bQ0BASF0oQzI9W0NIMl0pW0NASF0xYyhjMjMpW2NIXVtjSF1jKFtDSDNdKVtjSF0z

>  <s_glide_docking_method>  (1) 
confgen

>  <s_i_glide_gridfile>  (1) 
gpcr_drd2_6luq_protein_autoprepared_prepared

>  <s_lp_Force_Field>  (1) 
S-OPLS

>  <s_lp_Variant>  (1) 
DiffSBDD_9_num_sample_50-1

>  <s_m_source_file>  (1) 
generated__ligand_DiffSBDD_2026-05-06_prepared.sdf

>  <GenAI_Model>  (1) 
DiffSBDD

>  <Protein>  (1) 
generic_title2

$$$$
DiffSBDD_26_num_sample_50
     RDKit          3D

  0  0  0  0  0  0  0  0  0  0999 V3000
M  V30 BEGIN CTAB
M  V30 COUNTS 88 94 0 0 1
M  V30 BEGIN ATOM
M  V30 1 C 7.953964 4.776137 -12.667562 0 CFG=2
M  V30 2 S 5.776248 5.662950 -19.403617 0 CHG=1
M  V30 3 C 10.985517 8.989756 -6.718227 0
M  V30 4 C 8.004131 4.744144 -18.019292 0
M  V30 5 C 6.161503 5.843764 -13.950238 0
M  V30 6 F 5.955928 3.161951 -20.052661 0
M  V30 7 C 8.160199 4.664277 -10.092779 0
M  V30 8 C 7.600197 3.576052 -13.468065 0
M  V30 9 F 9.202605 7.467774 -21.872686 0
M  V30 10 C 9.244971 6.063875 -8.320650 0
M  V30 11 C 7.252941 4.524986 -16.688564 0
M  V30 12 C 7.235565 4.822495 -11.306052 0
M  V30 13 C 4.948184 5.214488 -22.939211 0
M  V30 14 O 8.635219 5.935998 -9.623622 0
M  V30 15 C 12.744888 8.356632 -8.224641 0
M  V30 16 C 8.094925 7.254897 -12.763570 0
M  V30 17 C 7.268374 4.831601 -14.129165 0 CFG=2
M  V30 18 C 5.393719 7.262259 -20.191004 0
M  V30 19 C 9.528302 7.565991 -7.978927 0 CFG=2
M  V30 20 C 4.683941 6.622742 -22.477807 0 CFG=2
M  V30 21 C 8.527168 6.242360 -20.015215 0 CFG=1
M  V30 22 C 5.280467 7.945891 -22.881606 0
M  V30 23 C 8.234110 2.278978 -13.825900 0
M  V30 24 C 8.928959 5.937707 -12.753010 0
M  V30 25 C 10.530442 5.300238 -8.300915 0
M  V30 26 C 8.134613 7.268932 -21.104059 0 CFG=2
M  V30 27 C 8.007200 5.061031 -15.461074 0
M  V30 28 O 10.541225 8.083030 -8.844173 0
M  V30 29 C 5.787025 7.234153 -21.643424 0 CFG=1
M  V30 30 C 5.937087 4.334317 -20.684276 0 CFG=1
M  V30 31 O 7.092622 6.738454 -21.908611 0
M  V30 32 C 6.782334 2.341652 -13.288097 0
M  V30 33 C 10.062021 7.815088 -6.568755 0
M  V30 34 C 4.813526 4.241255 -21.745793 0
M  V30 35 C 6.775674 7.228117 -13.610216 0
M  V30 36 N 11.434535 8.969214 -8.104887 0
M  V30 37 C 8.412673 5.387356 -7.277753 0
M  V30 38 F 9.624972 6.710856 -19.418813 0
M  V30 39 C 7.512491 5.939330 -18.871975 0 CFG=1
M  V30 40 H 11.809667 8.969447 -6.004521 0
M  V30 41 H 10.429992 9.901054 -6.528901 0
M  V30 42 H 9.068338 4.850199 -17.809789 0
M  V30 43 H 7.928730 3.836735 -18.618564 0
M  V30 44 H 5.489375 5.514397 -13.159219 0
M  V30 45 H 5.539819 5.907360 -14.841627 0
M  V30 46 H 8.991069 4.000915 -10.332339 0
M  V30 47 H 7.533144 4.177527 -9.351071 0
M  V30 48 H 7.092950 3.454513 -16.550820 0
M  V30 49 H 6.260903 4.969332 -16.735408 0
M  V30 50 H 6.501071 4.020427 -11.268980 0
M  V30 51 H 6.639393 5.725247 -11.182584 0
M  V30 52 H 4.217211 4.962550 -23.707418 0
M  V30 53 H 5.927892 5.134715 -23.411372 0
M  V30 54 H 13.497128 8.968817 -7.727912 0
M  V30 55 H 13.024833 8.260753 -9.275153 0
M  V30 56 H 12.748789 7.369554 -7.767665 0
M  V30 57 H 7.833418 7.500932 -11.731971 0
M  V30 58 H 8.711957 8.094507 -13.074085 0
M  V30 59 H 4.324095 7.451476 -20.102827 0
M  V30 60 H 5.882390 8.077247 -19.659983 0
M  V30 61 H 8.635681 8.174529 -8.110068 0
M  V30 62 H 3.660732 6.728599 -22.123624 0
M  V30 63 H 8.836816 5.315523 -20.499451 0
M  V30 64 H 4.678686 8.840402 -22.732665 0
M  V30 65 H 5.915465 7.957219 -23.766024 0
M  V30 66 H 8.344970 2.018828 -14.876643 0
M  V30 67 H 8.982409 1.871860 -13.146901 0
M  V30 68 H 9.623688 5.927631 -11.913769 0
M  V30 69 H 9.568580 5.840855 -13.627267 0
M  V30 70 H 11.110040 5.369269 -7.383226 0
M  V30 71 H 10.396368 4.249845 -8.558757 0
M  V30 72 H 11.042300 5.793543 -9.091723 0
M  V30 73 H 7.893116 8.248946 -20.692405 0
M  V30 74 H 8.221120 6.120916 -15.593190 0
M  V30 75 H 8.978166 4.565947 -15.416012 0
M  V30 76 H 6.895900 4.388629 -21.195375 0
M  V30 77 H 6.614629 1.951365 -12.291974 0
M  V30 78 H 5.982904 2.152478 -13.997809 0
M  V30 79 H 9.247603 8.024862 -5.879410 0
M  V30 80 H 10.629463 6.985190 -6.153105 0
M  V30 81 H 3.840729 4.348368 -21.265108 0
M  V30 82 H 4.830980 3.232922 -22.161916 0
M  V30 83 H 6.003570 7.769229 -13.070112 0
M  V30 84 H 6.948243 7.772908 -14.538192 0
M  V30 85 H 8.811840 5.594895 -6.291594 0
M  V30 86 H 7.434512 5.769306 -7.281027 0
M  V30 87 H 8.358665 4.321754 -7.491674 0
M  V30 88 H 7.477948 6.817124 -18.226845 0
M  V30 END ATOM
M  V30 BEGIN BOND
M  V30 1 1 8 1
M  V30 2 1 11 4
M  V30 3 1 1 12 CFG=1
M  V30 4 1 12 7
M  V30 5 1 14 7
M  V30 6 1 14 10
M  V30 7 1 17 1
M  V30 8 1 17 5
M  V30 9 1 17 8
M  V30 10 1 2 18 CFG=3
M  V30 11 1 19 10
M  V30 12 1 20 13
M  V30 13 1 22 20
M  V30 14 1 23 8
M  V30 15 1 24 1
M  V30 16 1 24 16
M  V30 17 1 25 10
M  V30 18 1 26 9
M  V30 19 1 26 21
M  V30 20 1 27 11
M  V30 21 1 17 27 CFG=3
M  V30 22 1 28 19
M  V30 23 1 29 18
M  V30 24 1 29 20
M  V30 25 1 29 22
M  V30 26 1 30 2
M  V30 27 1 30 6
M  V30 28 1 31 26
M  V30 29 1 29 31 CFG=1
M  V30 30 1 32 8
M  V30 31 1 32 23
M  V30 32 1 33 3
M  V30 33 1 33 19
M  V30 34 1 34 13
M  V30 35 1 34 30
M  V30 36 1 35 5
M  V30 37 1 35 16
M  V30 38 1 36 3
M  V30 39 1 36 15
M  V30 40 1 36 28
M  V30 41 1 37 10
M  V30 42 1 38 21
M  V30 43 1 39 2
M  V30 44 1 39 4
M  V30 45 1 39 21
M  V30 46 1 40 3
M  V30 47 1 41 3
M  V30 48 1 42 4
M  V30 49 1 43 4
M  V30 50 1 44 5
M  V30 51 1 45 5
M  V30 52 1 46 7
M  V30 53 1 47 7
M  V30 54 1 48 11
M  V30 55 1 49 11
M  V30 56 1 50 12
M  V30 57 1 51 12
M  V30 58 1 52 13
M  V30 59 1 53 13
M  V30 60 1 54 15
M  V30 61 1 55 15
M  V30 62 1 56 15
M  V30 63 1 57 16
M  V30 64 1 58 16
M  V30 65 1 59 18
M  V30 66 1 60 18
M  V30 67 1 19 61 CFG=1
M  V30 68 1 20 62 CFG=1
M  V30 69 1 21 63 CFG=3
M  V30 70 1 64 22
M  V30 71 1 65 22
M  V30 72 1 66 23
M  V30 73 1 67 23
M  V30 74 1 68 24
M  V30 75 1 69 24
M  V30 76 1 70 25
M  V30 77 1 71 25
M  V30 78 1 72 25
M  V30 79 1 26 73 CFG=1
M  V30 80 1 74 27
M  V30 81 1 75 27
M  V30 82 1 30 76 CFG=3
M  V30 83 1 77 32
M  V30 84 1 78 32
M  V30 85 1 79 33
M  V30 86 1 80 33
M  V30 87 1 81 34
M  V30 88 1 82 34
M  V30 89 1 83 35
M  V30 90 1 84 35
M  V30 91 1 85 37
M  V30 92 1 86 37
M  V30 93 1 87 37
M  V30 94 1 39 88 CFG=1
M  V30 END BOND
M  V30 END CTAB
M  END
>  <i_epik_Tot_Q>  (1) 
1

>  <i_epik_Tot_abs_Q>  (1) 
1

>  <i_i_glide_confnum>  (1) 
195

>  <i_i_glide_lignum>  (1) 
68

>  <i_i_glide_posenum>  (1) 
12

>  <i_i_glide_rotatable_bonds>  (1) 
9

>  <i_lp_mmshare_version>  (1) 
72125

>  <i_m_source_file_index>  (1) 
27

>  <i_f3d_flags>  (1) 
0

>  <num_sample>  (1) 
50

>  <b_lp_Chiralities_Consistent>  (1) 
1

>  <r_epik_Charging_Adjusted_Penalty>  (1) 
0.0064700825840893978

>  <r_epik_Ionization_Penalty>  (1) 
0.0064700825864937349

>  <r_epik_Ionization_Penalty_Charging>  (1) 
0

>  <r_epik_Ionization_Penalty_Neutral>  (1) 
0.0064700825864937349

>  <r_epik_State_Penalty>  (1) 
0.0064700825840893978

>  <r_glide_ring_energy>  (1) 
0.038362801895993927

>  <r_i_docking_score>  (1) 
-4.5256805419729149

>  <r_i_glide_ecoul>  (1) 
1.7305179888263056

>  <r_i_glide_eff_state_penalty>  (1) 
0.0064700825840893978

>  <r_i_glide_einternal>  (1) 
13.005810611717184

>  <r_i_glide_emodel>  (1) 
-17.040561078340431

>  <r_i_glide_emodel_strain>  (1) 
0.97868231172901687

>  <r_i_glide_energy>  (1) 
-20.482003161247601

>  <r_i_glide_erotb>  (1) 
0.41602518103618852

>  <r_i_glide_esite>  (1) 
-0.02246598111574076

>  <r_i_glide_evdw>  (1) 
-22.212521150073908

>  <r_i_glide_gscore>  (1) 
-4.532150624557004

>  <r_i_glide_gscore_strain>  (1) 
0

>  <r_i_glide_hbond>  (1) 
0

>  <r_i_glide_ligand_efficiency>  (1) 
-0.11604309081981833

>  <r_i_glide_ligand_efficiency_ln>  (1) 
-0.97043437728090054

>  <r_i_glide_ligand_efficiency_sa>  (1) 
-0.39352665747090015

>  <r_i_glide_lipo>  (1) 
-2.491321914968438

>  <r_i_glide_metal>  (1) 
-0

>  <r_i_glide_rewards>  (1) 
-1.5833395503292647

>  <r_lp_Energy>  (1) 
87.03259899999999

>  <s_epik_Chemistry_Notes>  (1) 
This compound has a N-S or N-O group and may undergo hydrolysis at high or low pH.

>  <s_epik_cmdline>  (1) 
J2VwaWtfcHl0aG9uJywgJy1waHQnLCAnMS4wJywgJy1waCcsICc3LjQnLCAnLXRuJywgJzgnLCAnLW1hJywgJzUwMCcsICctaW1hZScsICc8aW5maWxlLm1hZT4nLCAnLW9tYWUnLCAnPG91dGZpbGUubWFlPic=

>  <s_epik_input>  (1) 
W0NIMl0xW0NIMl1OKFtDSDNdKU9bQ0BIXTFDKFtDSDNdKShbQ0gzXSlPW0NIMl1bQ0gyXVtDQEBdMihDMzRbQ0gyXVtDSDJdNClDMyhbQ0gyXVtDSDJdW0NIMl1bQ0gyXTIpW0NIMl1bQ0gyXVtDSDJdW0NAQEhdKFtDQEhdKEYpW0NAQEhdKEYpTzUpW1MrXShbQ0gyXTYpW0NAQEhdKEYpW0NIMl1bQ0gyXVtDQEBIXShDNTY3KVtDSDJdNw==

>  <s_glide_docking_method>  (1) 
confgen

>  <s_i_glide_gridfile>  (1) 
gpcr_drd2_6luq_protein_autoprepared_prepared

>  <s_lp_Force_Field>  (1) 
S-OPLS

>  <s_lp_Variant>  (1) 
DiffSBDD_26_num_sample_50-1

>  <s_m_source_file>  (1) 
generated__ligand_DiffSBDD_2026-05-06_prepared.sdf

>  <GenAI_Model>  (1) 
DiffSBDD

>  <Protein>  (1) 
generic_title2

$$$$
DiffSBDD_33_num_sample_50
     RDKit          3D

  0  0  0  0  0  0  0  0  0  0999 V3000
M  V30 BEGIN CTAB
M  V30 COUNTS 69 72 0 0 1
M  V30 BEGIN ATOM
M  V30 1 O 4.416214 7.088254 -20.998353 0
M  V30 2 C 4.933458 7.476909 -17.458853 0
M  V30 3 O 6.791794 5.681111 -21.044423 0
M  V30 4 C 6.997260 5.585904 -18.623568 0
M  V30 5 C 7.733999 4.444974 -11.240609 0
M  V30 6 C 8.927844 5.656864 -16.055072 0
M  V30 7 C 6.625492 0.939176 -15.074956 0
M  V30 8 C 5.534497 6.334113 -22.961048 0
M  V30 9 N 5.476296 6.311593 -16.864930 0
M  V30 10 C 7.914649 1.687095 -15.343449 0
M  V30 11 C 6.235655 2.418278 -12.986981 0
M  V30 12 C 7.481128 5.194294 -16.210507 0
M  V30 13 N 4.345539 7.166814 -18.710063 0
M  V30 14 C 6.294875 0.979226 -13.573653 0 CFG=1
M  V30 15 N 9.034838 6.459596 -8.743448 0 CHG=1
M  V30 16 C 7.438056 3.274509 -13.394150 0
M  V30 17 C 5.946807 5.169036 -22.071593 0 CFG=2
M  V30 18 C 6.238918 6.033809 -19.827028 0
M  V30 19 C 9.034843 6.729251 -7.286741 0
M  V30 20 C 10.106001 7.222354 -9.424797 0
M  V30 21 N 8.060186 4.062193 -12.600759 0
M  V30 22 C 7.853404 3.137688 -14.852615 0 CFG=2
M  V30 23 F 4.877563 4.484210 -21.651331 0
M  V30 24 C 5.004129 0.199875 -13.327810 0
M  V30 25 C 5.038821 6.729669 -19.817307 0
M  V30 26 O 7.034841 3.918942 -15.719391 0
M  V30 27 C 5.213258 7.534355 -22.083500 0
M  V30 28 C 9.017810 4.995536 -9.011337 0
M  V30 29 C 9.075401 4.565831 -10.494322 0
M  V30 30 C 7.834829 6.217298 -15.154822 0
M  V30 31 C 6.623325 5.704321 -17.316057 0
M  V30 32 F 8.166478 4.963724 -18.858226 0
M  V30 33 H 5.719040 8.217409 -17.582426 0
M  V30 34 H 4.179729 7.905164 -16.797710 0
M  V30 35 H 7.242314 5.418500 -11.251597 0
M  V30 36 H 7.056762 3.769301 -10.727350 0
M  V30 37 H 9.716707 5.132517 -15.527935 0
M  V30 38 H 9.307357 6.169300 -16.929942 0
M  V30 39 H 6.736206 -0.093848 -15.407742 0
M  V30 40 H 5.834839 1.369296 -15.680184 0
M  V30 41 H 6.340200 6.596869 -23.646572 0
M  V30 42 H 4.675864 6.051590 -23.571902 0
M  V30 43 H 5.317322 6.260043 -15.869060 0
M  V30 44 H 8.162308 1.656765 -16.404713 0
M  V30 45 H 8.710303 1.160240 -14.822493 0
M  V30 46 H 6.141961 2.336599 -11.909285 0
M  V30 47 H 7.096870 0.444781 -13.060636 0
M  V30 48 H 6.521927 4.454287 -22.661136 0
M  V30 49 H 3.463845 7.628181 -18.881559 0
M  V30 50 H 9.980448 6.434001 -6.829330 0
M  V30 51 H 8.869865 7.789650 -7.090814 0
M  V30 52 H 8.234848 6.179731 -6.788981 0
M  V30 53 H 11.088277 6.803440 -9.206017 0
M  V30 54 H 9.960108 7.244359 -10.504511 0
M  V30 55 H 10.100650 8.262342 -9.095547 0
M  V30 56 H 8.865086 3.473722 -14.916785 0
M  V30 57 H 4.124755 0.822132 -13.491668 0
M  V30 58 H 4.919150 -0.630680 -14.026290 0
M  V30 59 H 4.979814 -0.209208 -12.316941 0
M  V30 60 H 6.116816 8.038430 -21.734013 0
M  V30 61 H 4.653182 8.273369 -22.656300 0
M  V30 62 H 8.134143 4.564394 -8.539601 0
M  V30 63 H 9.879301 4.562787 -8.501740 0
M  V30 64 H 9.524484 3.574020 -10.522688 0
M  V30 65 H 9.773219 5.173738 -11.067201 0
M  V30 66 H 7.434840 7.217415 -15.315554 0
M  V30 67 H 7.867737 5.947501 -14.112267 0
M  V30 68 H 8.148325 6.852307 -9.088926 0
M  V30 69 H 5.342600 2.931044 -13.342448 0
M  V30 END ATOM
M  V30 BEGIN BOND
M  V30 1 1 9 2
M  V30 2 1 10 7
M  V30 3 1 12 6
M  V30 4 1 13 2
M  V30 5 1 14 7
M  V30 6 1 14 11
M  V30 7 1 16 11
M  V30 8 1 17 3
M  V30 9 1 17 8
M  V30 10 1 18 3
M  V30 11 1 18 4
M  V30 12 1 19 15
M  V30 13 1 20 15
M  V30 14 1 21 5
M  V30 15 2 21 16
M  V30 16 1 22 10
M  V30 17 1 22 16
M  V30 18 1 23 17
M  V30 19 1 24 14
M  V30 20 1 25 1
M  V30 21 1 25 13
M  V30 22 2 25 18
M  V30 23 1 26 12
M  V30 24 1 26 22
M  V30 25 1 27 1
M  V30 26 1 27 8
M  V30 27 1 28 15
M  V30 28 1 29 5
M  V30 29 1 29 28
M  V30 30 1 30 6
M  V30 31 1 30 12
M  V30 32 2 31 4
M  V30 33 1 31 9
M  V30 34 1 31 12
M  V30 35 1 32 4
M  V30 36 1 33 2
M  V30 37 1 34 2
M  V30 38 1 35 5
M  V30 39 1 36 5
M  V30 40 1 37 6
M  V30 41 1 38 6
M  V30 42 1 39 7
M  V30 43 1 40 7
M  V30 44 1 41 8
M  V30 45 1 42 8
M  V30 46 1 43 9
M  V30 47 1 44 10
M  V30 48 1 45 10
M  V30 49 1 46 11
M  V30 50 1 14 47 CFG=1
M  V30 51 1 17 48 CFG=3
M  V30 52 1 49 13
M  V30 53 1 50 19
M  V30 54 1 51 19
M  V30 55 1 52 19
M  V30 56 1 53 20
M  V30 57 1 54 20
M  V30 58 1 55 20
M  V30 59 1 22 56 CFG=1
M  V30 60 1 57 24
M  V30 61 1 58 24
M  V30 62 1 59 24
M  V30 63 1 60 27
M  V30 64 1 61 27
M  V30 65 1 62 28
M  V30 66 1 63 28
M  V30 67 1 64 29
M  V30 68 1 65 29
M  V30 69 1 66 30
M  V30 70 1 67 30
M  V30 71 1 68 15
M  V30 72 1 69 11
M  V30 END BOND
M  V30 END CTAB
M  END
>  <i_epik_Tot_Q>  (1) 
1

>  <i_epik_Tot_abs_Q>  (1) 
1

>  <i_i_glide_confnum>  (1) 
41

>  <i_i_glide_lignum>  (1) 
83

>  <i_i_glide_posenum>  (1) 
106

>  <i_i_glide_rotatable_bonds>  (1) 
7

>  <i_lp_mmshare_version>  (1) 
72125

>  <i_m_source_file_index>  (1) 
34

>  <i_f3d_flags>  (1) 
0

>  <num_sample>  (1) 
50

>  <b_lp_Chiralities_Consistent>  (1) 
1

>  <r_epik_Charging_Adjusted_Penalty>  (1) 
0.41789118993368612

>  <r_epik_Ionization_Penalty>  (1) 
0.0076682513750627552

>  <r_epik_Ionization_Penalty_Charging>  (1) 
0.0072113509810821487

>  <r_epik_Ionization_Penalty_Neutral>  (1) 
0.0004569003939806066

>  <r_epik_State_Penalty>  (1) 
0.41067983895260396

>  <r_glide_ring_energy>  (1) 
0

>  <r_i_docking_score>  (1) 
-4.5127898848272672

>  <r_i_glide_ecoul>  (1) 
-6.1866861876495971

>  <r_i_glide_eff_state_penalty>  (1) 
0.41067983895260396

>  <r_i_glide_einternal>  (1) 
4.5019935091034879

>  <r_i_glide_emodel>  (1) 
-38.31418345478162

>  <r_i_glide_emodel_strain>  (1) 
4.5778593071984517

>  <r_i_glide_energy>  (1) 
-32.253055928178732

>  <r_i_glide_erotb>  (1) 
0.58078846603177925

>  <r_i_glide_esite>  (1) 
-0.098725173648900155

>  <r_i_glide_evdw>  (1) 
-26.066369740529137

>  <r_i_glide_gscore>  (1) 
-4.9234697237798715

>  <r_i_glide_gscore_strain>  (1) 
0.14446482679961292

>  <r_i_glide_hbond>  (1) 
-0.20000000000000001

>  <r_i_glide_ligand_efficiency>  (1) 
-0.1410246839008521

>  <r_i_glide_ligand_efficiency_ln>  (1) 
-1.0105366692190731

>  <r_i_glide_ligand_efficiency_sa>  (1) 
-0.44772546315539091

>  <r_i_glide_lipo>  (1) 
-1.6589195770327398

>  <r_i_glide_metal>  (1) 
-0

>  <r_i_glide_rewards>  (1) 
-1.4597568507557275

>  <r_lp_Energy>  (1) 
46.360869999999998

>  <r_lp_tautomer_probability>  (1) 
0.49999519497573586

>  <s_epik_Chemistry_Notes>  (1) 
This compound has an imine and may undergo hydrolysis. This compound contains an acetal/aminal-like group ( X-CH(R)-Y where X, Y are N, S, or O) that may be acid/base labile, releasing an aldehyde.

>  <s_epik_cmdline>  (1) 
J2VwaWtfcHl0aG9uJywgJy1waHQnLCAnMS4wJywgJy1waCcsICc3LjQnLCAnLXRuJywgJzgnLCAnLW1hJywgJzUwMCcsICctaW1hZScsICc8aW5maWxlLm1hZT4nLCAnLW9tYWUnLCAnPG91dGZpbGUubWFlPic=

>  <s_epik_input>  (1) 
TzFbQ0BASF0oRilbQ0gyXVtDSDJdT0MoW0NAQEhdMTIpPU5bQ0gyXVtOSF1DKD1DMkYpQzMoW0NIMl1bQ0gyXTMpT1tDQEBIXShbQ0gyXVtDSDJdW0NAQEhdNFtDSDNdKUMoPVtDSF00KVtOSF1bQ0gyXVtDSDJdW0NIMl1OKFtDSDNdKVtDSDNd

>  <s_glide_docking_method>  (1) 
confgen

>  <s_i_glide_gridfile>  (1) 
gpcr_drd2_6luq_protein_autoprepared_prepared

>  <s_lp_Force_Field>  (1) 
S-OPLS

>  <s_lp_Variant>  (1) 
DiffSBDD_33_num_sample_50-1

>  <s_m_source_file>  (1) 
generated__ligand_DiffSBDD_2026-05-06_prepared.sdf

>  <GenAI_Model>  (1) 
DiffSBDD

>  <Protein>  (1) 
generic_title2

$$$$
DiffSBDD_10_num_sample_50
     RDKit          3D

  0  0  0  0  0  0  0  0  0  0999 V3000
M  V30 BEGIN CTAB
M  V30 COUNTS 73 74 0 0 1
M  V30 BEGIN ATOM
M  V30 1 C 10.745525 7.719673 -9.063060 0 CFG=2
M  V30 2 C 9.229011 0.752348 -18.139506 0
M  V30 3 C 7.729099 1.696240 -15.536217 0
M  V30 4 C 7.834210 4.107867 -12.766690 0 CFG=1
M  V30 5 C 9.489447 6.836184 -9.221572 0 CFG=2
M  V30 6 N 9.741321 -1.360112 -17.091649 0
M  V30 7 N 7.393415 5.369308 -10.824412 0
M  V30 8 C 8.798606 5.046397 -10.809970 0 CFG=1
M  V30 9 S 11.151104 8.267581 -7.289695 0
M  V30 10 C 10.577797 0.928592 -18.812280 0
M  V30 11 S 11.434835 6.419765 -6.345438 0 CHG=-1
M  V30 12 C 12.749621 8.969292 -10.150133 0
M  V30 13 O 13.589527 0.145051 -17.892286 0
M  V30 14 O 12.439888 8.969289 -7.227894 0
M  V30 15 C 9.434788 8.345349 -9.441651 0 CFG=2
M  V30 16 C 5.821682 -0.007867 -15.223114 0
M  V30 17 C 6.847722 5.122475 -12.150432 0 CFG=1
M  V30 18 N 12.776225 2.126427 -18.556171 0 CHG=1
M  V30 19 N 7.659136 -0.418005 -16.753582 0
M  V30 20 C 11.346148 2.097292 -18.173968 0
M  V30 21 C 9.880510 5.682531 -13.039042 0
M  V30 22 C 11.897437 7.718730 -10.076258 0
M  V30 23 C 8.798016 6.096492 -8.076151 0
M  V30 24 C 7.729077 3.903805 -14.301486 0
M  V30 25 C 7.119878 0.375423 -15.906762 0
M  V30 26 O 9.034861 8.569304 -10.783541 0
M  V30 27 C 8.904276 -0.301692 -17.361792 0
M  V30 28 O 9.978408 8.875966 -6.644423 0
M  V30 29 F 6.815237 6.273266 -12.822074 0
M  V30 30 N 6.055896 -0.230694 -13.786669 0 CHG=1
M  V30 31 C 13.707307 1.517232 -17.579890 0
M  V30 32 C 9.197863 4.558282 -12.221625 0 CFG=2
M  V30 33 O 9.650546 6.093904 -10.442625 0
M  V30 34 C 7.133096 2.566004 -14.691485 0
M  V30 35 H 8.504367 1.537301 -18.305822 0
M  V30 36 H 8.680685 1.926022 -15.981864 0
M  V30 37 H 7.633421 3.146132 -12.291780 0
M  V30 38 H 10.651303 -1.440108 -17.519133 0
M  V30 39 H 7.183559 6.298380 -10.452734 0
M  V30 40 H 8.949334 4.242303 -10.089069 0
M  V30 41 H 10.423845 1.104465 -19.877939 0
M  V30 42 H 11.152799 0.007742 -18.740409 0
M  V30 43 H 13.298575 9.004757 -11.091661 0
M  V30 44 H 12.154477 9.876182 -10.059412 0
M  V30 45 H 13.499722 8.969285 -9.363637 0
M  V30 46 H 14.422467 -0.280286 -17.740099 0
M  V30 47 H 8.879050 8.969191 -8.745295 0
M  V30 48 H 5.034735 0.714940 -15.403246 0
M  V30 49 H 5.465107 -0.948340 -15.649035 0
M  V30 50 H 5.827145 4.741544 -12.099334 0
M  V30 51 H 13.036300 3.099555 -18.635162 0
M  V30 52 H 11.254754 2.069567 -17.090881 0
M  V30 53 H 10.887310 3.035261 -18.489616 0
M  V30 54 H 9.260781 6.576385 -13.091519 0
M  V30 55 H 10.834465 5.964735 -12.596266 0
M  V30 56 H 10.119421 5.373544 -14.054705 0
M  V30 57 H 12.566230 6.894627 -9.891616 0
M  V30 58 H 11.487145 7.551324 -11.070044 0
M  V30 59 H 8.683283 6.734491 -7.201293 0
M  V30 60 H 7.798817 5.769269 -8.345862 0
M  V30 61 H 9.366249 5.208834 -7.801783 0
M  V30 62 H 8.703416 3.963526 -14.777344 0
M  V30 63 H 7.128993 4.693525 -14.753707 0
M  V30 64 H 8.113158 8.328528 -10.792940 0
M  V30 65 H 5.434954 -0.985599 -13.491517 0
M  V30 66 H 7.004283 -0.551464 -13.658900 0
M  V30 67 H 13.455966 1.736429 -16.540952 0
M  V30 68 H 14.725470 1.854905 -17.774789 0
M  V30 69 H 9.877539 3.710780 -12.134145 0
M  V30 70 H 6.180328 2.329559 -14.253643 0
M  V30 71 H 9.424303 -2.163407 -16.561269 0
M  V30 72 H 12.900855 1.688229 -19.456924 0
M  V30 73 H 5.891409 0.603310 -13.244692 0
M  V30 END ATOM
M  V30 BEGIN BOND
M  V30 1 1 5 1
M  V30 2 1 8 7
M  V30 3 1 9 1
M  V30 4 1 10 2
M  V30 5 1 11 9
M  V30 6 2 14 9
M  V30 7 1 15 1
M  V30 8 1 15 5
M  V30 9 1 17 4
M  V30 10 1 17 7
M  V30 11 1 20 10
M  V30 12 1 20 18
M  V30 13 1 1 22 CFG=3
M  V30 14 1 22 12
M  V30 15 1 23 5
M  V30 16 1 24 4
M  V30 17 1 25 3
M  V30 18 1 25 16
M  V30 19 2 25 19
M  V30 20 1 26 15
M  V30 21 2 27 2
M  V30 22 1 27 6
M  V30 23 1 27 19
M  V30 24 2 28 9
M  V30 25 1 29 17
M  V30 26 1 30 16
M  V30 27 1 31 13
M  V30 28 1 31 18
M  V30 29 1 32 4
M  V30 30 1 32 8
M  V30 31 1 32 21
M  V30 32 1 5 33 CFG=3
M  V30 33 1 33 8
M  V30 34 2 34 3
M  V30 35 1 34 24
M  V30 36 1 35 2
M  V30 37 1 36 3
M  V30 38 1 4 37 CFG=1
M  V30 39 1 38 6
M  V30 40 1 39 7
M  V30 41 1 8 40 CFG=1
M  V30 42 1 41 10
M  V30 43 1 42 10
M  V30 44 1 43 12
M  V30 45 1 44 12
M  V30 46 1 45 12
M  V30 47 1 46 13
M  V30 48 1 15 47 CFG=1
M  V30 49 1 48 16
M  V30 50 1 49 16
M  V30 51 1 17 50 CFG=1
M  V30 52 1 51 18
M  V30 53 1 52 20
M  V30 54 1 53 20
M  V30 55 1 54 21
M  V30 56 1 55 21
M  V30 57 1 56 21
M  V30 58 1 57 22
M  V30 59 1 58 22
M  V30 60 1 59 23
M  V30 61 1 60 23
M  V30 62 1 61 23
M  V30 63 1 62 24
M  V30 64 1 63 24
M  V30 65 1 64 26
M  V30 66 1 65 30
M  V30 67 1 66 30
M  V30 68 1 67 31
M  V30 69 1 68 31
M  V30 70 1 32 69 CFG=1
M  V30 71 1 70 34
M  V30 72 1 71 6
M  V30 73 1 72 18
M  V30 74 1 73 30
M  V30 END BOND
M  V30 END CTAB
M  END
>  <i_epik_Tot_Q>  (1) 
1

>  <i_epik_Tot_abs_Q>  (1) 
3

>  <i_i_glide_confnum>  (1) 
1563

>  <i_i_glide_lignum>  (1) 
30

>  <i_i_glide_posenum>  (1) 
79

>  <i_i_glide_rotatable_bonds>  (1) 
15

>  <i_lp_mmshare_version>  (1) 
72125

>  <i_m_source_file_index>  (1) 
11

>  <i_f3d_flags>  (1) 
0

>  <num_sample>  (1) 
50

>  <b_lp_Chiralities_Consistent>  (1) 
1

>  <r_epik_Charging_Adjusted_Penalty>  (1) 
2.168687317063887

>  <r_epik_Ionization_Penalty>  (1) 
1.1047352072338965

>  <r_epik_Ionization_Penalty_Charging>  (1) 
1.0999234457570315

>  <r_epik_Ionization_Penalty_Neutral>  (1) 
0.0048117614768649203

>  <r_epik_State_Penalty>  (1) 
1.0687638713068555

>  <r_glide_ring_energy>  (1) 
0

>  <r_i_docking_score>  (1) 
-4.5073598146648193

>  <r_i_glide_ecoul>  (1) 
-12.926627329480601

>  <r_i_glide_eff_state_penalty>  (1) 
1.0687638713068555

>  <r_i_glide_einternal>  (1) 
18.370400091975355

>  <r_i_glide_emodel>  (1) 
-56.183442317079944

>  <r_i_glide_emodel_strain>  (1) 
4.2976278974117719

>  <r_i_glide_energy>  (1) 
-47.855861699858153

>  <r_i_glide_erotb>  (1) 
0.82219216958862984

>  <r_i_glide_esite>  (1) 
-0.098127840852764062

>  <r_i_glide_evdw>  (1) 
-34.92923437037755

>  <r_i_glide_gscore>  (1) 
-5.576123685971675

>  <r_i_glide_gscore_strain>  (1) 
0.074406974352942967

>  <r_i_glide_hbond>  (1) 
-0.48800576497762982

>  <r_i_glide_ligand_efficiency>  (1) 
-0.13256940631367115

>  <r_i_glide_ligand_efficiency_ln>  (1) 
-0.99580221021988669

>  <r_i_glide_ligand_efficiency_sa>  (1) 
-0.42947341318211885

>  <r_i_glide_lipo>  (1) 
-1.2810404658200547

>  <r_i_glide_metal>  (1) 
-0

>  <r_i_glide_rewards>  (1) 
-0.92009294032183164

>  <r_lp_Energy>  (1) 
21.193534

>  <s_epik_Chemistry_Notes>  (1) 
This compound has an imine and may undergo hydrolysis. This compound contains an acetal/aminal-like group ( X-CH(R)-Y where X, Y are N, S, or O) that may be acid/base labile, releasing an aldehyde.

>  <s_epik_cmdline>  (1) 
J2VwaWtfcHl0aG9uJywgJy1waHQnLCAnMS4wJywgJy1waCcsICc3LjQnLCAnLXRuJywgJzgnLCAnLW1hJywgJzUwMCcsICctaW1hZScsICc8aW5maWxlLm1hZT4nLCAnLW9tYWUnLCAnPG91dGZpbGUubWFlPic=

>  <s_epik_input>  (1) 
W1NIXVMoPU8pKD1PKVtDQEBdMShbQ0gyXVtDSDNdKVtDQEBdKFtDSDNdKShbQ0BASF0xW09IXSlPW0NASF0oW0NAQEhdMltDSDNdKVtOSF1bQ0BASF0oRilbQ0BIXTJbQ0gyXVxbQ0hdPVtDSF1cQyhbQ0gyXVtOSDJdKT1OL0MoPU4vW0hdKS9bQ0gyXVtDSDJdW0NIMl1bTkhdW0NIMl1bT0hd

>  <s_glide_docking_method>  (1) 
confgen

>  <s_i_glide_gridfile>  (1) 
gpcr_drd2_6luq_protein_autoprepared_prepared

>  <s_lp_Force_Field>  (1) 
S-OPLS

>  <s_lp_Variant>  (1) 
DiffSBDD_10_num_sample_50-10

>  <s_m_source_file>  (1) 
generated__ligand_DiffSBDD_2026-05-06_prepared.sdf

>  <GenAI_Model>  (1) 
DiffSBDD

>  <Protein>  (1) 
generic_title2

$$$$
DiffSBDD_46_num_sample_50
     RDKit          3D

  0  0  0  0  0  0  0  0  0  0999 V3000
M  V30 BEGIN CTAB
M  V30 COUNTS 66 68 0 0 1
M  V30 BEGIN ATOM
M  V30 1 O 11.363638 6.345032 -19.376649 0
M  V30 2 C 6.075935 -0.206500 -16.807837 0
M  V30 3 C 10.717672 5.769293 -18.579028 0
M  V30 4 C 6.020733 -0.982986 -18.134291 0
M  V30 5 O 7.146076 2.329662 -15.582672 0
M  V30 6 O 9.045953 2.996993 -17.718373 0
M  V30 7 O 8.832003 4.969301 -8.292505 0
M  V30 8 O 9.332591 5.369290 -14.003647 0
M  V30 9 C 7.828716 5.130307 -15.848832 0
M  V30 10 N 7.395008 -0.230695 -14.737173 0
M  V30 11 C 9.073919 5.601312 -9.320566 0
M  V30 12 O 5.034838 0.169180 -16.274814 0
M  V30 13 O 10.424476 7.079366 -8.092293 0
M  V30 14 C 10.394648 8.455384 -6.155195 0
M  V30 15 C 4.698359 -0.738852 -18.889610 0
M  V30 16 F 8.563624 1.038849 -18.604390 0
M  V30 17 N 9.834843 6.724402 -9.314170 0
M  V30 18 C 8.002604 1.487269 -16.346731 0 CFG=2
M  V30 19 C 8.579234 5.229804 -10.659315 0
M  V30 20 C 9.081737 5.213783 -15.352185 0
M  V30 21 C 6.247998 -2.485178 -17.895051 0
M  V30 22 C 8.252473 5.642254 -13.114466 0
M  V30 23 C 8.753728 4.344205 -18.074264 0 CFG=1
M  V30 24 C 8.106975 2.020458 -17.789329 0 CFG=1
M  V30 25 C 9.514924 7.343201 -11.678768 0
M  V30 26 C 7.239653 2.147989 -14.167229 0
M  V30 27 C 10.345635 5.155068 -16.199460 0
M  V30 28 C 9.606455 7.998406 -7.382244 0
M  V30 29 C 10.351365 7.501072 -10.426830 0
M  V30 30 C 7.450407 0.060804 -16.165048 0 CFG=2
M  V30 31 C 8.780189 6.021393 -11.743576 0
M  V30 32 C 7.533276 4.944505 -17.324021 0
M  V30 33 O 7.003437 0.346791 -12.596563 0
M  V30 34 C 9.992231 5.134764 -17.685772 0
M  V30 35 C 7.198935 0.667137 -13.763919 0
M  V30 36 H 6.830564 -0.615597 -18.762238 0
M  V30 37 H 6.974650 5.185166 -15.193270 0
M  V30 38 H 7.421659 -1.211829 -14.484274 0
M  V30 39 H 9.843277 9.205434 -5.594121 0
M  V30 40 H 10.595876 7.615280 -5.489641 0
M  V30 41 H 11.349115 8.892659 -6.447072 0
M  V30 42 H 4.519357 0.325385 -19.048706 0
M  V30 43 H 4.714922 -1.214287 -19.870512 0
M  V30 44 H 3.842325 -1.140914 -18.344746 0
M  V30 45 H 9.006700 1.506765 -15.917200 0
M  V30 46 H 8.030139 4.306711 -10.772520 0
M  V30 47 H 7.241218 -2.682031 -17.490787 0
M  V30 48 H 5.515337 -2.896603 -17.197904 0
M  V30 49 H 6.165628 -3.044924 -18.826746 0
M  V30 50 H 7.601238 4.772630 -13.030117 0
M  V30 51 H 7.651312 6.478465 -13.476405 0
M  V30 52 H 8.579783 4.388738 -19.151406 0
M  V30 53 H 7.148092 2.365920 -18.171722 0
M  V30 54 H 10.149922 7.461146 -12.556700 0
M  V30 55 H 8.765254 8.134701 -11.722690 0
M  V30 56 H 8.176796 2.575340 -13.809568 0
M  V30 57 H 6.426098 2.686718 -13.681502 0
M  V30 58 H 10.999672 5.994017 -15.956012 0
M  V30 59 H 10.883766 4.239953 -15.951623 0
M  V30 60 H 9.351738 8.857479 -8.005092 0
M  V30 61 H 8.669659 7.526250 -7.079186 0
M  V30 62 H 11.365879 7.153483 -10.621538 0
M  V30 63 H 10.433570 8.554183 -10.156227 0
M  V30 64 H 8.170169 -0.637583 -16.593553 0
M  V30 65 H 6.636617 4.340128 -17.444313 0
M  V30 66 H 7.288943 5.923941 -17.736160 0
M  V30 END ATOM
M  V30 BEGIN BOND
M  V30 1 2 3 1
M  V30 2 1 4 2
M  V30 3 2 11 7
M  V30 4 2 12 2
M  V30 5 1 15 4
M  V30 6 1 17 11
M  V30 7 1 17 13
M  V30 8 1 18 5
M  V30 9 1 19 11
M  V30 10 1 20 8
M  V30 11 2 20 9
M  V30 12 1 21 4
M  V30 13 1 22 8
M  V30 14 1 23 6
M  V30 15 1 24 6
M  V30 16 1 24 16
M  V30 17 1 24 18
M  V30 18 1 26 5
M  V30 19 1 27 20
M  V30 20 1 28 13
M  V30 21 1 28 14
M  V30 22 1 29 17
M  V30 23 1 29 25
M  V30 24 1 30 2
M  V30 25 1 30 10
M  V30 26 1 30 18
M  V30 27 2 31 19
M  V30 28 1 31 22
M  V30 29 1 31 25
M  V30 30 1 32 9
M  V30 31 1 32 23
M  V30 32 2 34 3
M  V30 33 1 34 23
M  V30 34 1 34 27
M  V30 35 1 35 10
M  V30 36 1 35 26
M  V30 37 2 35 33
M  V30 38 1 36 4
M  V30 39 1 37 9
M  V30 40 1 38 10
M  V30 41 1 39 14
M  V30 42 1 40 14
M  V30 43 1 41 14
M  V30 44 1 42 15
M  V30 45 1 43 15
M  V30 46 1 44 15
M  V30 47 1 18 45 CFG=1
M  V30 48 1 46 19
M  V30 49 1 47 21
M  V30 50 1 48 21
M  V30 51 1 49 21
M  V30 52 1 50 22
M  V30 53 1 51 22
M  V30 54 1 23 52 CFG=3
M  V30 55 1 24 53 CFG=3
M  V30 56 1 54 25
M  V30 57 1 55 25
M  V30 58 1 56 26
M  V30 59 1 57 26
M  V30 60 1 58 27
M  V30 61 1 59 27
M  V30 62 1 60 28
M  V30 63 1 61 28
M  V30 64 1 62 29
M  V30 65 1 63 29
M  V30 66 1 30 64 CFG=3
M  V30 67 1 65 32
M  V30 68 1 66 32
M  V30 END BOND
M  V30 END CTAB
M  END
>  <i_epik_Tot_Q>  (1) 
0

>  <i_epik_Tot_abs_Q>  (1) 
0

>  <i_i_glide_confnum>  (1) 
1211

>  <i_i_glide_lignum>  (1) 
113

>  <i_i_glide_posenum>  (1) 
154

>  <i_i_glide_rotatable_bonds>  (1) 
10

>  <i_lp_mmshare_version>  (1) 
72125

>  <i_m_source_file_index>  (1) 
47

>  <i_f3d_flags>  (1) 
0

>  <num_sample>  (1) 
50

>  <b_lp_Chiralities_Consistent>  (1) 
1

>  <r_epik_Charging_Adjusted_Penalty>  (1) 
0

>  <r_epik_Ionization_Penalty>  (1) 
2.9296726468019972e-06

>  <r_epik_Ionization_Penalty_Charging>  (1) 
0

>  <r_epik_Ionization_Penalty_Neutral>  (1) 
2.9296726468019972e-06

>  <r_epik_State_Penalty>  (1) 
-0

>  <r_glide_ring_energy>  (1) 
0

>  <r_i_docking_score>  (1) 
-4.5063661615707691

>  <r_i_glide_ecoul>  (1) 
-2.0009953467893133

>  <r_i_glide_eff_state_penalty>  (1) 
-0

>  <r_i_glide_einternal>  (1) 
19.946375389573586

>  <r_i_glide_emodel>  (1) 
-46.95423782142543

>  <r_i_glide_emodel_strain>  (1) 
0.53312879381765299

>  <r_i_glide_energy>  (1) 
-45.702977340140947

>  <r_i_glide_erotb>  (1) 
0.66665793866395417

>  <r_i_glide_esite>  (1) 
-0.15664092562979226

>  <r_i_glide_evdw>  (1) 
-43.701981993351637

>  <r_i_glide_gscore>  (1) 
-4.5063661615707691

>  <r_i_glide_gscore_strain>  (1) 
0

>  <r_i_glide_hbond>  (1) 
-0.32000000000000001

>  <r_i_glide_ligand_efficiency>  (1) 
-0.12875331890202196

>  <r_i_glide_ligand_efficiency_ln>  (1) 
-0.98924738587316008

>  <r_i_glide_ligand_efficiency_sa>  (1) 
-0.42116064378537188

>  <r_i_glide_lipo>  (1) 
-1.4125635568870218

>  <r_i_glide_metal>  (1) 
-0

>  <r_i_glide_rewards>  (1) 
-0.79857121603193015

>  <r_lp_Energy>  (1) 
33.611015999999999

>  <r_lp_tautomer_probability>  (1) 
1

>  <s_epik_Chemistry_Notes>  (1) 
This compound has a N-S or N-O group and may undergo hydrolysis at high or low pH.

>  <s_epik_cmdline>  (1) 
J2VwaWtfcHl0aG9uJywgJy1waHQnLCAnMS4wJywgJy1waCcsICc3LjQnLCAnLXRuJywgJzgnLCAnLW1hJywgJzUwMCcsICctaW1hZScsICc8aW5maWxlLm1hZT4nLCAnLW9tYWUnLCAnPG91dGZpbGUubWFlPic=

>  <s_epik_input>  (1) 
W0NIM11bQ0hdKFtDSDNdKUMoPU8pW0NAQEhdMVtOSF1DKD1PKVtDSDJdT1tDQEBIXTFbQ0BIXShGKU9bQ0BIXShDKD1DPU8pW0NIMl0yKVtDSDJdW0NIXT1DMk9bQ0gyXUMoPVtDSF0zKVtDSDJdW0NIMl1OKEMzPU8pT1tDSDJdW0NIM10=

>  <s_glide_docking_method>  (1) 
confgen

>  <s_i_glide_gridfile>  (1) 
gpcr_drd2_6luq_protein_autoprepared_prepared

>  <s_lp_Force_Field>  (1) 
S-OPLS

>  <s_lp_Variant>  (1) 
DiffSBDD_46_num_sample_50-1

>  <s_m_source_file>  (1) 
generated__ligand_DiffSBDD_2026-05-06_prepared.sdf

>  <GenAI_Model>  (1) 
DiffSBDD

>  <Protein>  (1) 
generic_title2

$$$$
DiffSBDD_20_num_sample_50
     RDKit          3D

  0  0  0  0  0  0  0  0  0  0999 V3000
M  V30 BEGIN CTAB
M  V30 COUNTS 65 70 0 0 1
M  V30 BEGIN ATOM
M  V30 1 F 12.361269 8.969302 -5.796627 0
M  V30 2 F 10.234838 9.128927 -5.551387 0
M  V30 3 F 10.217472 6.370668 -4.943694 0
M  V30 4 C 7.511138 5.823264 -13.220379 0 CFG=1
M  V30 5 C 9.333544 5.809228 -18.844370 0
M  V30 6 C 9.943504 7.217308 -11.798782 0
M  V30 7 C 6.562721 4.307848 -20.022459 0
M  V30 8 C 7.564455 4.965358 -14.432712 0 CFG=1
M  V30 9 N 10.918404 7.274686 -8.259604 0
M  V30 10 C 11.833120 8.169301 -10.045943 0
M  V30 11 C 6.493101 6.873470 -20.118972 0
M  V30 12 C 8.493851 5.369061 -15.558867 0
M  V30 13 C 5.356148 3.787886 -20.291712 0
M  V30 14 N 8.576499 7.713043 -11.850705 0
M  V30 15 C 10.589785 7.423580 -10.450192 0
M  V30 16 C 6.410156 6.627706 -12.652091 0
M  V30 17 F 12.155291 6.169300 -5.777084 0
M  V30 18 C 9.322586 6.081223 -7.475226 0
M  V30 19 C 7.681334 3.789884 -19.155965 0 CFG=2
M  V30 20 C 8.116632 4.476781 -13.054006 0
M  V30 21 C 7.217957 5.573040 -20.517823 0 CFG=1
M  V30 22 C 10.244023 6.988207 -9.211912 0
M  V30 23 C 7.393896 3.839135 -17.660363 0
M  V30 24 C 11.051072 6.913267 -5.830060 0
M  V30 25 C 9.087863 6.169301 -8.972674 0
M  V30 26 C 7.801029 7.268434 -12.996313 0 CFG=2
M  V30 27 N 10.466860 6.792555 -7.168138 0
M  V30 28 C 8.454097 4.979812 -19.776248 0 CFG=1
M  V30 29 C 11.985745 8.027416 -8.616323 0
M  V30 30 S 8.930482 4.016120 -16.691599 0 CHG=1
M  V30 31 C 10.056303 4.907870 -17.828478 0
M  V30 32 C 11.288096 8.355787 -5.309970 0
M  V30 33 C 5.890692 6.956387 -18.705251 0
M  V30 34 H 10.074190 6.355695 -19.429524 0
M  V30 35 H 8.760367 6.569295 -18.322379 0
M  V30 36 H 9.965061 6.147235 -11.987555 0
M  V30 37 H 10.538204 7.689921 -12.579222 0
M  V30 38 H 6.616869 4.538451 -14.755713 0
M  V30 39 H 12.505849 8.713577 -10.691674 0
M  V30 40 H 7.168708 7.717561 -20.259797 0
M  V30 41 H 5.679934 7.043193 -20.825296 0
M  V30 42 H 9.413511 5.769171 -15.132493 0
M  V30 43 H 8.018490 6.169300 -16.117688 0
M  V30 44 H 5.042641 2.851700 -19.853165 0
M  V30 45 H 4.668177 4.292514 -20.953780 0
M  V30 46 H 8.066501 7.664398 -10.963616 0
M  V30 47 H 5.568147 6.865924 -13.299048 0
M  V30 48 H 6.167891 6.480396 -11.600303 0
M  V30 49 H 8.770915 5.582312 -6.691688 0
M  V30 50 H 8.125914 2.842433 -19.464955 0
M  V30 51 H 7.537158 3.727787 -12.518314 0
M  V30 52 H 9.196390 4.378528 -12.970475 0
M  V30 53 H 7.430784 5.575931 -21.588100 0
M  V30 54 H 6.867261 2.943583 -17.330708 0
M  V30 55 H 6.740315 4.675482 -17.424963 0
M  V30 56 H 8.321291 5.766083 -9.622851 0
M  V30 57 H 7.834835 7.869944 -13.901876 0
M  V30 58 H 9.100365 4.548349 -20.544716 0
M  V30 59 H 12.712416 8.372167 -7.903608 0
M  V30 60 H 10.633667 4.161010 -18.374337 0
M  V30 61 H 10.775253 5.480837 -17.242246 0
M  V30 62 H 11.434847 8.345351 -4.230180 0
M  V30 63 H 5.358229 7.899535 -18.580505 0
M  V30 64 H 5.168274 6.161299 -18.522132 0
M  V30 65 H 6.646737 6.920099 -17.925882 0
M  V30 END ATOM
M  V30 BEGIN BOND
M  V30 1 1 8 4
M  V30 2 1 12 8
M  V30 3 2 13 7
M  V30 4 1 14 6
M  V30 5 1 15 6
M  V30 6 1 15 10
M  V30 7 1 4 16 CFG=1
M  V30 8 1 19 7
M  V30 9 1 20 4
M  V30 10 1 20 8
M  V30 11 1 21 7
M  V30 12 1 21 11
M  V30 13 1 22 9
M  V30 14 2 22 15
M  V30 15 1 23 19
M  V30 16 1 24 3
M  V30 17 1 24 17
M  V30 18 2 25 18
M  V30 19 1 25 22
M  V30 20 1 26 4
M  V30 21 1 26 14
M  V30 22 1 26 16
M  V30 23 1 27 9
M  V30 24 1 27 18
M  V30 25 1 27 24
M  V30 26 1 28 5
M  V30 27 1 28 19
M  V30 28 1 28 21
M  V30 29 1 29 9
M  V30 30 2 29 10
M  V30 31 1 30 12 CFG=1
M  V30 32 1 30 23
M  V30 33 1 31 5
M  V30 34 1 31 30
M  V30 35 1 32 1
M  V30 36 1 32 2
M  V30 37 1 32 24
M  V30 38 1 33 11
M  V30 39 1 34 5
M  V30 40 1 35 5
M  V30 41 1 36 6
M  V30 42 1 37 6
M  V30 43 1 8 38 CFG=3
M  V30 44 1 39 10
M  V30 45 1 40 11
M  V30 46 1 41 11
M  V30 47 1 42 12
M  V30 48 1 43 12
M  V30 49 1 44 13
M  V30 50 1 45 13
M  V30 51 1 46 14
M  V30 52 1 47 16
M  V30 53 1 48 16
M  V30 54 1 49 18
M  V30 55 1 19 50 CFG=3
M  V30 56 1 51 20
M  V30 57 1 52 20
M  V30 58 1 21 53 CFG=3
M  V30 59 1 54 23
M  V30 60 1 55 23
M  V30 61 1 56 25
M  V30 62 1 26 57 CFG=3
M  V30 63 1 28 58 CFG=3
M  V30 64 1 59 29
M  V30 65 1 60 31
M  V30 66 1 61 31
M  V30 67 1 62 32
M  V30 68 1 63 33
M  V30 69 1 64 33
M  V30 70 1 65 33
M  V30 END BOND
M  V30 END CTAB
M  END
>  <i_epik_Tot_Q>  (1) 
1

>  <i_epik_Tot_abs_Q>  (1) 
1

>  <i_i_glide_confnum>  (1) 
171

>  <i_i_glide_lignum>  (1) 
58

>  <i_i_glide_posenum>  (1) 
142

>  <i_i_glide_rotatable_bonds>  (1) 
8

>  <i_lp_mmshare_version>  (1) 
72125

>  <i_m_source_file_index>  (1) 
21

>  <i_f3d_flags>  (1) 
0

>  <num_sample>  (1) 
50

>  <b_lp_Chiralities_Consistent>  (1) 
1

>  <r_epik_Charging_Adjusted_Penalty>  (1) 
0.77841525475286655

>  <r_epik_Ionization_Penalty>  (1) 
0.77841525475286644

>  <r_epik_Ionization_Penalty_Charging>  (1) 
0

>  <r_epik_Ionization_Penalty_Neutral>  (1) 
0.77841525475286644

>  <r_epik_State_Penalty>  (1) 
0.77841525475286655

>  <r_glide_ring_energy>  (1) 
0

>  <r_i_docking_score>  (1) 
-4.5059555004051912

>  <r_i_glide_ecoul>  (1) 
-3.6807400794189395

>  <r_i_glide_eff_state_penalty>  (1) 
0.77841525475286655

>  <r_i_glide_einternal>  (1) 
16.464578477550983

>  <r_i_glide_emodel>  (1) 
-37.300821491845753

>  <r_i_glide_emodel_strain>  (1) 
2.4809419234663892

>  <r_i_glide_energy>  (1) 
-36.099994754902326

>  <r_i_glide_erotb>  (1) 
0.52280608296046926

>  <r_i_glide_esite>  (1) 
-0.003811075861396002

>  <r_i_glide_evdw>  (1) 
-32.419254675483387

>  <r_i_glide_gscore>  (1) 
-5.2843707551580579

>  <r_i_glide_gscore_strain>  (1) 
0

>  <r_i_glide_hbond>  (1) 
-0.16

>  <r_i_glide_ligand_efficiency>  (1) 
-0.13654410607288459

>  <r_i_glide_ligand_efficiency_ln>  (1) 
-1.0021011727011597

>  <r_i_glide_ligand_efficiency_sa>  (1) 
-0.43796990778736894

>  <r_i_glide_lipo>  (1) 
-2.1955954865714054

>  <r_i_glide_metal>  (1) 
-0

>  <r_i_glide_rewards>  (1) 
-1.2746965299987141

>  <r_lp_Energy>  (1) 
9.9394679999999997

>  <s_epik_cmdline>  (1) 
J2VwaWtfcHl0aG9uJywgJy1waHQnLCAnMS4wJywgJy1waCcsICc3LjQnLCAnLXRuJywgJzgnLCAnLW1hJywgJzUwMCcsICctaW1hZScsICc8aW5maWxlLm1hZT4nLCAnLW9tYWUnLCAnPG91dGZpbGUubWFlPic=

>  <s_epik_input>  (1) 
RltDSF0oRilDKEYpKEYpbjFbY0hdW2NIXWMobjEyKWMoW2NIXVtjSF0yKVtDSDJdW05IXVtDQEBIXTNbQ0gyXVtDQF0zNFtDQEhdKFtDSDJdNClbQ0gyXVtTK10oW0NIMl01KVtDSDJdW0NIMl1bQ0BASF0oW0NAQEhdNTYpW0NAQEhdKEM2PVtDSDJdKVtDSDJdW0NIM10=

>  <s_glide_docking_method>  (1) 
confgen

>  <s_i_glide_gridfile>  (1) 
gpcr_drd2_6luq_protein_autoprepared_prepared

>  <s_lp_Force_Field>  (1) 
S-OPLS

>  <s_lp_Variant>  (1) 
DiffSBDD_20_num_sample_50-2

>  <s_m_source_file>  (1) 
generated__ligand_DiffSBDD_2026-05-06_prepared.sdf

>  <GenAI_Model>  (1) 
DiffSBDD

>  <Protein>  (1) 
generic_title2

$$$$
DiffSBDD_6_num_sample_50
     RDKit          3D

  0  0  0  0  0  0  0  0  0  0999 V3000
M  V30 BEGIN CTAB
M  V30 COUNTS 43 43 0 0 1
M  V30 BEGIN ATOM
M  V30 1 C 6.496358 5.807059 -17.322458 0
M  V30 2 C 5.034816 7.090608 -20.440892 0
M  V30 3 O 5.722004 0.169307 -14.395987 0
M  V30 4 C 8.765368 4.548232 -11.093029 0 CFG=1
M  V30 5 O 7.937778 1.564731 -15.270509 0
M  V30 6 C 6.417242 1.073794 -13.556255 0
M  V30 7 O 7.342820 4.951293 -15.276007 0
M  V30 8 C 8.934518 5.003581 -9.630499 0
M  V30 9 C 5.295170 6.783477 -19.000777 0
M  V30 10 O 8.450967 4.448824 -17.219075 0
M  V30 11 C 7.741897 3.322361 -13.626739 0 CFG=2
M  V30 12 C 7.530488 5.001945 -16.612558 0
M  V30 13 N 7.514315 5.020919 -11.696943 0
M  V30 14 C 7.498823 6.413710 -12.148749 0
M  V30 15 N 6.406259 6.014201 -18.633449 0
M  V30 16 C 7.010913 2.207567 -14.420113 0 CFG=1
M  V30 17 F 9.034847 6.325561 -9.504960 0
M  V30 18 S 5.230712 6.594570 -16.412308 0
M  V30 19 F 7.918134 4.569307 -8.884997 0
M  V30 20 O 6.200811 6.898459 -11.891667 0
M  V30 21 C 4.544072 7.175964 -17.911139 0
M  V30 22 O 9.834834 5.015538 -11.891669 0
M  V30 23 C 6.843398 4.062321 -12.587903 0
M  V30 24 N 8.379308 4.260143 -14.550903 0
M  V30 25 H 4.234873 7.822494 -20.554723 0
M  V30 26 H 5.924438 7.496558 -20.922875 0
M  V30 27 H 4.743311 6.193269 -20.986641 0
M  V30 28 H 5.434842 -0.584227 -13.891091 0
M  V30 29 H 8.790164 3.459660 -11.091637 0
M  V30 30 H 7.498297 0.794127 -15.607382 0
M  V30 31 H 7.198116 0.544469 -13.007252 0
M  V30 32 H 5.710237 1.456434 -12.823204 0
M  V30 33 H 9.834865 4.577320 -9.193783 0
M  V30 34 H 8.553042 2.822887 -13.098425 0
M  V30 35 H 7.748805 6.499407 -13.205285 0
M  V30 36 H 8.201250 7.035041 -11.594024 0
M  V30 37 H 6.234908 2.649637 -15.036508 0
M  V30 38 H 6.235948 7.279431 -11.011707 0
M  V30 39 H 3.641696 7.768992 -17.900157 0
M  V30 40 H 10.182044 4.300053 -12.405000 0
M  V30 41 H 6.403039 3.322183 -11.922161 0
M  V30 42 H 5.997770 4.543676 -13.080857 0
M  V30 43 H 8.848234 3.717807 -15.268783 0
M  V30 END ATOM
M  V30 BEGIN BOND
M  V30 1 1 6 3
M  V30 2 1 8 4
M  V30 3 1 9 2
M  V30 4 1 12 1
M  V30 5 1 12 7
M  V30 6 2 12 10
M  V30 7 1 13 4
M  V30 8 1 14 13
M  V30 9 2 15 1
M  V30 10 1 15 9
M  V30 11 1 16 5
M  V30 12 1 16 6
M  V30 13 1 16 11
M  V30 14 1 17 8
M  V30 15 1 18 1
M  V30 16 1 19 8
M  V30 17 1 20 14
M  V30 18 2 21 9
M  V30 19 1 21 18
M  V30 20 1 22 4
M  V30 21 1 23 11
M  V30 22 1 23 13
M  V30 23 1 24 7
M  V30 24 1 24 11
M  V30 25 1 25 2
M  V30 26 1 26 2
M  V30 27 1 27 2
M  V30 28 1 28 3
M  V30 29 1 4 29 CFG=1
M  V30 30 1 30 5
M  V30 31 1 31 6
M  V30 32 1 32 6
M  V30 33 1 33 8
M  V30 34 1 11 34 CFG=1
M  V30 35 1 35 14
M  V30 36 1 36 14
M  V30 37 1 16 37 CFG=3
M  V30 38 1 38 20
M  V30 39 1 39 21
M  V30 40 1 40 22
M  V30 41 1 41 23
M  V30 42 1 42 23
M  V30 43 1 43 24
M  V30 END BOND
M  V30 END CTAB
M  END
>  <i_epik_Tot_Q>  (1) 
0

>  <i_epik_Tot_abs_Q>  (1) 
0

>  <i_i_glide_confnum>  (1) 
1029

>  <i_i_glide_lignum>  (1) 
15

>  <i_i_glide_posenum>  (1) 
30

>  <i_i_glide_rotatable_bonds>  (1) 
15

>  <i_lp_mmshare_version>  (1) 
72125

>  <i_m_source_file_index>  (1) 
7

>  <i_f3d_flags>  (1) 
0

>  <num_sample>  (1) 
50

>  <b_lp_Chiralities_Consistent>  (1) 
1

>  <r_epik_Charging_Adjusted_Penalty>  (1) 
0

>  <r_epik_Ionization_Penalty>  (1) 
3.5581637296787179e-06

>  <r_epik_Ionization_Penalty_Charging>  (1) 
0

>  <r_epik_Ionization_Penalty_Neutral>  (1) 
3.5581637296787179e-06

>  <r_epik_State_Penalty>  (1) 
-0

>  <r_glide_ring_energy>  (1) 
0

>  <r_i_docking_score>  (1) 
-4.4954583451287027

>  <r_i_glide_ecoul>  (1) 
-5.7836165487027662

>  <r_i_glide_eff_state_penalty>  (1) 
-0

>  <r_i_glide_einternal>  (1) 
13.012017026998581

>  <r_i_glide_emodel>  (1) 
-41.095508472833238

>  <r_i_glide_emodel_strain>  (1) 
0.94817846023035202

>  <r_i_glide_energy>  (1) 
-35.337722841649438

>  <r_i_glide_erotb>  (1) 
1.3996290448132942

>  <r_i_glide_esite>  (1) 
-0.17923206100050917

>  <r_i_glide_evdw>  (1) 
-29.55410629294667

>  <r_i_glide_gscore>  (1) 
-4.4954583451287027

>  <r_i_glide_gscore_strain>  (1) 
0

>  <r_i_glide_hbond>  (1) 
-0.32268363074554679

>  <r_i_glide_ligand_efficiency>  (1) 
-0.18731076438036262

>  <r_i_glide_ligand_efficiency_ln>  (1) 
-1.0759694651311671

>  <r_i_glide_ligand_efficiency_sa>  (1) 
-0.54029773888306043

>  <r_i_glide_lipo>  (1) 
-1.6504773160999278

>  <r_i_glide_metal>  (1) 
-0

>  <r_i_glide_rewards>  (1) 
-1.3974465851432645

>  <r_lp_Energy>  (1) 
11.251940999999999

>  <r_lp_tautomer_probability>  (1) 
1

>  <s_epik_Chemistry_Notes>  (1) 
This compound contains an acetal/aminal-like group ( X-CH(R)-Y where X, Y are N, S, or O) that may be acid/base labile, releasing an aldehyde. This compound has a N-S or N-O group and may undergo hydrolysis at high or low pH.

>  <s_epik_cmdline>  (1) 
J2VwaWtfcHl0aG9uJywgJy1waHQnLCAnMS4wJywgJy1waCcsICc3LjQnLCAnLXRuJywgJzgnLCAnLW1hJywgJzUwMCcsICctaW1hZScsICc8aW5maWxlLm1hZT4nLCAnLW9tYWUnLCAnPG91dGZpbGUubWFlPic=

>  <s_epik_input>  (1) 
czFbY0hdYyhbQ0gzXSluYzFDKD1PKU9bTkhdW0NASF0oW0NAQEhdKFtPSF0pW0NIMl1bT0hdKVtDSDJdTihbQ0BIXShbQ0hdKEYpRilbT0hdKVtDSDJdW09IXQ==

>  <s_glide_docking_method>  (1) 
confgen

>  <s_i_glide_gridfile>  (1) 
gpcr_drd2_6luq_protein_autoprepared_prepared

>  <s_lp_Force_Field>  (1) 
S-OPLS

>  <s_lp_Variant>  (1) 
DiffSBDD_6_num_sample_50-1

>  <s_m_source_file>  (1) 
generated__ligand_DiffSBDD_2026-05-06_prepared.sdf

>  <GenAI_Model>  (1) 
DiffSBDD

>  <Protein>  (1) 
generic_title2

$$$$
DiffSBDD_33_num_sample_50
     RDKit          3D

  0  0  0  0  0  0  0  0  0  0999 V3000
M  V30 BEGIN CTAB
M  V30 COUNTS 69 72 0 0 1
M  V30 BEGIN ATOM
M  V30 1 O 5.869040 0.320420 -19.700841 0
M  V30 2 C 5.802945 -0.824390 -16.313604 0
M  V30 3 O 7.762135 2.161110 -18.865403 0
M  V30 4 C 7.335555 1.788316 -16.497786 0
M  V30 5 C 8.503725 4.384350 -10.643165 0
M  V30 6 C 6.613576 1.001807 -12.745103 0
M  V30 7 C 5.561207 5.473307 -14.654129 0
M  V30 8 C 7.210214 1.671113 -21.133343 0
M  V30 9 N 5.816929 0.238052 -15.373532 0
M  V30 10 C 5.458817 4.539315 -13.439002 0
M  V30 11 C 7.765603 6.314288 -13.829346 0
M  V30 12 C 7.061007 1.771791 -13.994798 0
M  V30 13 N 5.373079 -0.326888 -17.569102 0
M  V30 14 C 6.352023 6.725519 -14.275818 0 CFG=1
M  V30 15 N 9.773257 6.237292 -7.470571 0 CHG=1
M  V30 16 C 7.753705 5.267873 -12.718429 0
M  V30 17 C 8.250088 1.509005 -20.032586 0 CFG=2
M  V30 18 C 7.054564 1.437012 -17.922857 0
M  V30 19 C 10.745094 7.208748 -8.029644 0
M  V30 20 C 9.093000 6.804100 -6.291839 0
M  V30 21 N 8.454311 5.407090 -11.662601 0
M  V30 22 C 6.834448 4.052703 -12.975900 0 CFG=2
M  V30 23 F 8.596583 0.228417 -19.869835 0
M  V30 24 C 6.351253 7.743664 -15.425704 0
M  V30 25 C 6.126767 0.501354 -18.357036 0
M  V30 26 O 7.426665 3.165307 -13.927191 0
M  V30 27 C 5.824564 1.462887 -20.540713 0
M  V30 28 C 8.795105 5.725079 -8.461628 0
M  V30 29 C 9.435114 4.823010 -9.514146 0
M  V30 30 C 8.067012 1.054878 -13.126044 0
M  V30 31 C 6.742668 1.262524 -15.377423 0
M  V30 32 F 8.235981 2.767882 -16.302435 0
M  V30 33 H 5.119566 -1.602035 -15.973553 0
M  V30 34 H 6.795058 -1.268769 -16.400914 0
M  V30 35 H 7.519846 4.169957 -10.222392 0
M  V30 36 H 8.906213 3.469975 -11.084162 0
M  V30 37 H 6.234835 1.547101 -11.891675 0
M  V30 38 H 6.153198 0.021471 -12.848368 0
M  V30 39 H 4.585289 5.769310 -15.012527 0
M  V30 40 H 6.048555 4.964276 -15.485600 0
M  V30 41 H 7.267631 2.668717 -21.568436 0
M  V30 42 H 7.405585 0.962456 -21.938422 0
M  V30 43 H 5.444358 -0.017499 -14.469088 0
M  V30 44 H 4.791306 3.700527 -13.612466 0
M  V30 45 H 5.034044 5.096149 -12.605743 0
M  V30 46 H 8.291021 7.200013 -13.475027 0
M  V30 47 H 5.861644 7.206567 -13.426250 0
M  V30 48 H 9.170844 2.007053 -20.336473 0
M  V30 49 H 4.699308 -0.912534 -18.041387 0
M  V30 50 H 10.230661 8.062746 -8.472570 0
M  V30 51 H 11.408370 7.582172 -7.248348 0
M  V30 52 H 11.381729 6.763474 -8.791846 0
M  V30 53 H 8.567809 7.726122 -6.544564 0
M  V30 54 H 8.366429 6.098948 -5.892646 0
M  V30 55 H 9.811190 7.023174 -5.500247 0
M  V30 56 H 6.658800 3.534249 -12.045440 0
M  V30 57 H 6.635278 7.281394 -16.371040 0
M  V30 58 H 5.356798 8.168967 -15.564104 0
M  V30 59 H 7.034533 8.568997 -15.223747 0
M  V30 60 H 5.478944 2.344029 -19.995963 0
M  V30 61 H 5.099640 1.298443 -21.337575 0
M  V30 62 H 8.344923 6.569282 -8.953907 0
M  V30 63 H 7.993093 5.179237 -7.961600 0
M  V30 64 H 9.868108 3.951513 -9.025313 0
M  V30 65 H 10.234835 5.372957 -9.982353 0
M  V30 66 H 8.526373 0.160795 -13.540283 0
M  V30 67 H 8.728755 1.685828 -12.540646 0
M  V30 68 H 10.296176 5.439019 -7.140203 0
M  V30 69 H 8.330463 5.916112 -14.673123 0
M  V30 END ATOM
M  V30 BEGIN BOND
M  V30 1 1 9 2
M  V30 2 1 10 7
M  V30 3 1 12 6
M  V30 4 1 13 2
M  V30 5 1 14 7
M  V30 6 1 14 11
M  V30 7 1 16 11
M  V30 8 1 17 3
M  V30 9 1 17 8
M  V30 10 1 18 3
M  V30 11 1 18 4
M  V30 12 1 19 15
M  V30 13 1 20 15
M  V30 14 1 21 5
M  V30 15 2 21 16
M  V30 16 1 22 10
M  V30 17 1 22 16
M  V30 18 1 23 17
M  V30 19 1 24 14
M  V30 20 1 25 1
M  V30 21 1 25 13
M  V30 22 2 25 18
M  V30 23 1 26 12
M  V30 24 1 26 22
M  V30 25 1 27 1
M  V30 26 1 27 8
M  V30 27 1 28 15
M  V30 28 1 29 5
M  V30 29 1 29 28
M  V30 30 1 30 6
M  V30 31 1 30 12
M  V30 32 2 31 4
M  V30 33 1 31 9
M  V30 34 1 31 12
M  V30 35 1 32 4
M  V30 36 1 33 2
M  V30 37 1 34 2
M  V30 38 1 35 5
M  V30 39 1 36 5
M  V30 40 1 37 6
M  V30 41 1 38 6
M  V30 42 1 39 7
M  V30 43 1 40 7
M  V30 44 1 41 8
M  V30 45 1 42 8
M  V30 46 1 43 9
M  V30 47 1 44 10
M  V30 48 1 45 10
M  V30 49 1 46 11
M  V30 50 1 14 47 CFG=1
M  V30 51 1 17 48 CFG=3
M  V30 52 1 49 13
M  V30 53 1 50 19
M  V30 54 1 51 19
M  V30 55 1 52 19
M  V30 56 1 53 20
M  V30 57 1 54 20
M  V30 58 1 55 20
M  V30 59 1 22 56 CFG=1
M  V30 60 1 57 24
M  V30 61 1 58 24
M  V30 62 1 59 24
M  V30 63 1 60 27
M  V30 64 1 61 27
M  V30 65 1 62 28
M  V30 66 1 63 28
M  V30 67 1 64 29
M  V30 68 1 65 29
M  V30 69 1 66 30
M  V30 70 1 67 30
M  V30 71 1 68 15
M  V30 72 1 69 11
M  V30 END BOND
M  V30 END CTAB
M  END
>  <i_epik_Tot_Q>  (1) 
1

>  <i_epik_Tot_abs_Q>  (1) 
1

>  <i_i_glide_confnum>  (1) 
43

>  <i_i_glide_lignum>  (1) 
85

>  <i_i_glide_posenum>  (1) 
297

>  <i_i_glide_rotatable_bonds>  (1) 
7

>  <i_lp_mmshare_version>  (1) 
72125

>  <i_m_source_file_index>  (1) 
34

>  <i_f3d_flags>  (1) 
0

>  <num_sample>  (1) 
50

>  <b_lp_Chiralities_Consistent>  (1) 
1

>  <r_epik_Charging_Adjusted_Penalty>  (1) 
0.41789118993368612

>  <r_epik_Ionization_Penalty>  (1) 
0.0076682513750627552

>  <r_epik_Ionization_Penalty_Charging>  (1) 
0.0072113509810821487

>  <r_epik_Ionization_Penalty_Neutral>  (1) 
0.0004569003939806066

>  <r_epik_State_Penalty>  (1) 
0.41067983895260396

>  <r_glide_ring_energy>  (1) 
0

>  <r_i_docking_score>  (1) 
-4.471078397912617

>  <r_i_glide_ecoul>  (1) 
-3.0365783373581543

>  <r_i_glide_eff_state_penalty>  (1) 
0.41067983895260396

>  <r_i_glide_einternal>  (1) 
12.953505926801167

>  <r_i_glide_emodel>  (1) 
-38.6191231510508

>  <r_i_glide_emodel_strain>  (1) 
2.7894114887848076

>  <r_i_glide_energy>  (1) 
-33.984717157279078

>  <r_i_glide_erotb>  (1) 
0.58078846603177925

>  <r_i_glide_esite>  (1) 
-0.010289080660412979

>  <r_i_glide_evdw>  (1) 
-30.948138819920928

>  <r_i_glide_gscore>  (1) 
-4.8817582368652213

>  <r_i_glide_gscore_strain>  (1) 
0

>  <r_i_glide_hbond>  (1) 
0

>  <r_i_glide_ligand_efficiency>  (1) 
-0.13972119993476928

>  <r_i_glide_ligand_efficiency_ln>  (1) 
-1.0011963302866926

>  <r_i_glide_ligand_efficiency_sa>  (1) 
-0.44358715951742383

>  <r_i_glide_lipo>  (1) 
-2.2096065177637456

>  <r_i_glide_metal>  (1) 
-0

>  <r_i_glide_rewards>  (1) 
-1.2397574128730722

>  <r_lp_Energy>  (1) 
47.505379999999995

>  <r_lp_tautomer_probability>  (1) 
0.49999519497573586

>  <s_epik_Chemistry_Notes>  (1) 
This compound has an imine and may undergo hydrolysis. This compound contains an acetal/aminal-like group ( X-CH(R)-Y where X, Y are N, S, or O) that may be acid/base labile, releasing an aldehyde.

>  <s_epik_cmdline>  (1) 
J2VwaWtfcHl0aG9uJywgJy1waHQnLCAnMS4wJywgJy1waCcsICc3LjQnLCAnLXRuJywgJzgnLCAnLW1hJywgJzUwMCcsICctaW1hZScsICc8aW5maWxlLm1hZT4nLCAnLW9tYWUnLCAnPG91dGZpbGUubWFlPic=

>  <s_epik_input>  (1) 
TzFbQ0BASF0oRilbQ0gyXVtDSDJdT0MoW0NAQEhdMTIpPU5bQ0gyXVtOSF1DKD1DMkYpQzMoW0NIMl1bQ0gyXTMpT1tDQEBIXShbQ0gyXVtDSDJdW0NAQEhdNFtDSDNdKUMoPVtDSF00KVtOSF1bQ0gyXVtDSDJdW0NIMl1OKFtDSDNdKVtDSDNd

>  <s_glide_docking_method>  (1) 
confgen

>  <s_i_glide_gridfile>  (1) 
gpcr_drd2_6luq_protein_autoprepared_prepared

>  <s_lp_Force_Field>  (1) 
S-OPLS

>  <s_lp_Variant>  (1) 
DiffSBDD_33_num_sample_50-3

>  <s_m_source_file>  (1) 
generated__ligand_DiffSBDD_2026-05-06_prepared.sdf

>  <GenAI_Model>  (1) 
DiffSBDD

>  <Protein>  (1) 
generic_title2

$$$$
DiffSBDD_34_num_sample_50
     RDKit          3D

  0  0  0  0  0  0  0  0  0  0999 V3000
M  V30 BEGIN CTAB
M  V30 COUNTS 109 114 0 0 1
M  V30 BEGIN ATOM
M  V30 1 C 13.727315 1.271711 -19.418759 0
M  V30 2 C 7.907907 1.083214 -19.414214 0
M  V30 3 C 7.608906 3.372582 -18.277025 0
M  V30 4 C 14.558322 4.226404 -17.839559 0
M  V30 5 C 6.450327 8.030793 -21.657467 0
M  V30 6 C 15.887917 8.699677 -21.036484 0 CFG=2
M  V30 7 C 7.864773 1.097400 -20.962733 0 CFG=2
M  V30 8 C 7.151860 4.301418 -19.415978 0
M  V30 9 O 14.333778 3.458541 -20.476982 0
M  V30 10 C 17.462843 6.947596 -17.600371 0 CFG=1
M  V30 11 N 15.834838 10.969281 -22.138331 0 CHG=1
M  V30 12 C 15.669083 3.489517 -20.002105 0 CFG=1
M  V30 13 O 11.947977 0.246029 -22.039070 0
M  V30 14 C 8.615657 2.281858 -18.714166 0 CFG=1
M  V30 15 C 12.401654 2.515581 -21.348230 0
M  V30 16 F 16.643994 2.883536 -22.051441 0
M  V30 17 C 16.308088 5.180517 -21.730867 0
M  V30 18 C 4.118908 9.095295 -21.599976 0
M  V30 19 O 15.714770 7.357898 -21.445384 0
M  V30 20 C 9.439241 1.785855 -17.501797 0
M  V30 21 C 6.698186 0.240959 -21.492955 0
M  V30 22 C 9.210417 0.653305 -21.557871 0
M  V30 23 C 5.064284 8.069044 -22.258416 0 CFG=2
M  V30 24 C 14.436349 2.762223 -17.356344 0
M  V30 25 O 4.234843 4.569323 -21.051577 0
M  V30 26 O 10.173653 1.617475 -21.443019 0
M  V30 27 C 11.917067 2.387593 -17.880653 0
M  V30 28 C 4.767724 5.677692 -21.109045 0
M  V30 29 C 16.657580 3.833799 -21.116766 0 CFG=1
M  V30 30 C 15.687833 4.527393 -18.867250 0 CFG=1
M  V30 31 C 11.494803 1.327218 -21.653696 0
M  V30 32 O 9.360093 -0.460642 -22.068791 0
M  V30 33 O 3.666149 6.354353 -23.194866 0
M  V30 34 C 6.344385 7.453242 -20.262409 0
M  V30 35 C 13.362322 1.858501 -18.026683 0 CFG=1
M  V30 36 C 15.029015 8.948524 -19.787104 0
M  V30 37 C 16.050961 7.056626 -18.213738 0 CFG=1
M  V30 38 C 15.761917 8.559562 -18.497605 0
M  V30 39 C 6.337649 6.099904 -17.738501 0
M  V30 40 C 16.370114 6.329312 -20.711075 0 CFG=1
M  V30 41 C 15.460221 9.544732 -22.253638 0
M  V30 42 O 17.834808 5.701406 -16.994543 0
M  V30 43 C 6.034020 5.291908 -19.020406 0 CFG=1
M  V30 44 C 4.431013 6.676193 -22.286449 0
M  V30 45 C 15.653643 6.033363 -19.349417 0 CFG=1
M  V30 46 N 5.673119 6.139618 -20.181670 0
M  V30 47 C 13.755036 2.180971 -20.691120 0 CFG=2
M  V30 48 C 10.846352 1.273733 -17.869955 0
M  V30 49 C 18.609000 6.114747 -18.127295 0
M  V30 50 H 14.706371 0.803581 -19.319035 0
M  V30 51 H 13.079344 0.416942 -19.606553 0
M  V30 52 H 8.382869 0.148636 -19.109725 0
M  V30 53 H 6.892821 0.995843 -19.024485 0
M  V30 54 H 8.075547 4.001776 -17.519292 0
M  V30 55 H 6.746386 2.914786 -17.791522 0
M  V30 56 H 13.596583 4.569398 -18.220572 0
M  V30 57 H 14.739783 4.826714 -16.949373 0
M  V30 58 H 6.889525 9.028919 -21.628010 0
M  V30 59 H 7.113621 7.417523 -22.269941 0
M  V30 60 H 16.944072 8.890247 -20.837218 0
M  V30 61 H 7.695386 2.115196 -21.308547 0
M  V30 62 H 6.785149 3.696195 -20.242634 0
M  V30 63 H 8.013658 4.850279 -19.797925 0
M  V30 64 H 17.740543 7.793412 -16.973391 0
M  V30 65 H 15.721777 11.409641 -23.040543 0
M  V30 66 H 15.209168 11.440772 -21.491156 0
M  V30 67 H 15.983480 2.529775 -19.597299 0
M  V30 68 H 9.318465 2.761549 -19.393055 0
M  V30 69 H 11.850633 3.221604 -20.730110 0
M  V30 70 H 12.586989 3.034551 -22.288675 0
M  V30 71 H 16.980300 5.393569 -22.562770 0
M  V30 72 H 15.307463 5.119457 -22.162796 0
M  V30 73 H 3.183320 9.172864 -22.155572 0
M  V30 74 H 3.862649 8.828112 -20.574167 0
M  V30 75 H 4.568677 10.088116 -21.582510 0
M  V30 76 H 9.547806 2.570584 -16.752783 0
M  V30 77 H 8.884592 0.996547 -16.992198 0
M  V30 78 H 6.683636 0.215927 -22.583549 0
M  V30 79 H 6.759357 -0.788032 -21.135846 0
M  V30 80 H 5.738172 0.645418 -21.169317 0
M  V30 81 H 5.181176 8.370347 -23.300056 0
M  V30 82 H 14.182705 2.803650 -16.295412 0
M  V30 83 H 15.409860 2.272625 -17.373893 0
M  V30 84 H 11.692516 3.132762 -18.639508 0
M  V30 85 H 11.849860 2.921716 -16.932285 0
M  V30 86 H 17.675276 3.849872 -20.725456 0
M  V30 87 H 16.627287 4.322452 -18.372938 0
M  V30 88 H 5.834566 8.153833 -19.600189 0
M  V30 89 H 7.362599 7.364328 -19.882986 0
M  V30 90 H 13.387166 0.979192 -17.380270 0
M  V30 91 H 14.802526 10.013386 -19.717535 0
M  V30 92 H 14.061378 8.451305 -19.864930 0
M  V30 93 H 15.384001 6.832762 -17.383534 0
M  V30 94 H 16.693361 9.127380 -18.480715 0
M  V30 95 H 15.192138 8.957961 -17.656256 0
M  V30 96 H 6.338435 5.453208 -16.860991 0
M  V30 97 H 7.313951 6.581124 -17.778629 0
M  V30 98 H 5.581287 6.864674 -17.559199 0
M  V30 99 H 17.414816 6.595119 -20.558980 0
M  V30 100 H 15.952637 9.154996 -23.145805 0
M  V30 101 H 14.386594 9.461123 -22.428827 0
M  V30 102 H 5.160225 4.693462 -18.757268 0
M  V30 103 H 14.598015 6.202451 -19.564738 0
M  V30 104 H 14.354204 1.667121 -21.444485 0
M  V30 105 H 11.134918 0.527279 -17.130172 0
M  V30 106 H 10.823265 0.742333 -18.820150 0
M  V30 107 H 18.494323 5.470424 -18.993436 0
M  V30 108 H 19.625847 6.411600 -17.891664 0
M  V30 109 H 16.792995 11.064750 -21.835935 0
M  V30 END ATOM
M  V30 BEGIN BOND
M  V30 1 1 7 2
M  V30 2 1 8 3
M  V30 3 1 12 9
M  V30 4 1 14 2
M  V30 5 1 14 3
M  V30 6 1 19 6
M  V30 7 1 20 14
M  V30 8 1 21 7
M  V30 9 1 22 7
M  V30 10 1 23 5
M  V30 11 1 23 18
M  V30 12 1 24 4
M  V30 13 1 26 22
M  V30 14 2 28 25
M  V30 15 1 29 12
M  V30 16 1 29 16
M  V30 17 1 29 17
M  V30 18 1 30 4
M  V30 19 1 30 12
M  V30 20 2 31 13
M  V30 21 1 31 15
M  V30 22 1 31 26
M  V30 23 2 32 22
M  V30 24 1 34 5
M  V30 25 1 35 1
M  V30 26 1 35 24
M  V30 27 1 35 27
M  V30 28 1 36 6
M  V30 29 1 37 10
M  V30 30 1 38 36
M  V30 31 1 38 37
M  V30 32 1 40 17
M  V30 33 1 40 19
M  V30 34 1 41 6
M  V30 35 1 41 11
M  V30 36 1 42 10
M  V30 37 1 43 8
M  V30 38 1 43 39
M  V30 39 1 44 23
M  V30 40 1 44 28
M  V30 41 2 44 33
M  V30 42 1 45 30
M  V30 43 1 45 37
M  V30 44 1 45 40
M  V30 45 1 46 28
M  V30 46 1 46 34
M  V30 47 1 46 43
M  V30 48 1 47 1
M  V30 49 1 47 9
M  V30 50 1 47 15
M  V30 51 1 48 20
M  V30 52 1 48 27
M  V30 53 1 49 10
M  V30 54 1 49 42
M  V30 55 1 50 1
M  V30 56 1 51 1
M  V30 57 1 52 2
M  V30 58 1 53 2
M  V30 59 1 54 3
M  V30 60 1 55 3
M  V30 61 1 56 4
M  V30 62 1 57 4
M  V30 63 1 58 5
M  V30 64 1 59 5
M  V30 65 1 6 60 CFG=1
M  V30 66 1 7 61 CFG=3
M  V30 67 1 62 8
M  V30 68 1 63 8
M  V30 69 1 10 64 CFG=1
M  V30 70 1 65 11
M  V30 71 1 66 11
M  V30 72 1 12 67 CFG=1
M  V30 73 1 14 68 CFG=3
M  V30 74 1 69 15
M  V30 75 1 70 15
M  V30 76 1 71 17
M  V30 77 1 72 17
M  V30 78 1 73 18
M  V30 79 1 74 18
M  V30 80 1 75 18
M  V30 81 1 76 20
M  V30 82 1 77 20
M  V30 83 1 78 21
M  V30 84 1 79 21
M  V30 85 1 80 21
M  V30 86 1 23 81 CFG=3
M  V30 87 1 82 24
M  V30 88 1 83 24
M  V30 89 1 84 27
M  V30 90 1 85 27
M  V30 91 1 29 86 CFG=1
M  V30 92 1 30 87 CFG=1
M  V30 93 1 88 34
M  V30 94 1 89 34
M  V30 95 1 35 90 CFG=1
M  V30 96 1 91 36
M  V30 97 1 92 36
M  V30 98 1 37 93 CFG=1
M  V30 99 1 94 38
M  V30 100 1 95 38
M  V30 101 1 96 39
M  V30 102 1 97 39
M  V30 103 1 98 39
M  V30 104 1 40 99 CFG=1
M  V30 105 1 100 41
M  V30 106 1 101 41
M  V30 107 1 43 102 CFG=1
M  V30 108 1 45 103 CFG=3
M  V30 109 1 47 104 CFG=3
M  V30 110 1 105 48
M  V30 111 1 106 48
M  V30 112 1 107 49
M  V30 113 1 108 49
M  V30 114 1 109 11
M  V30 END BOND
M  V30 END CTAB
M  END
>  <i_epik_Tot_Q>  (1) 
1

>  <i_epik_Tot_abs_Q>  (1) 
1

>  <i_i_glide_confnum>  (1) 
250

>  <i_i_glide_lignum>  (1) 
87

>  <i_i_glide_posenum>  (1) 
213

>  <i_i_glide_rotatable_bonds>  (1) 
6

>  <i_lp_mmshare_version>  (1) 
72125

>  <i_m_source_file_index>  (1) 
35

>  <i_f3d_flags>  (1) 
0

>  <num_sample>  (1) 
50

>  <b_lp_Chiralities_Consistent>  (1) 
1

>  <r_epik_Charging_Adjusted_Penalty>  (1) 
0.0091647518509246212

>  <r_epik_Ionization_Penalty>  (1) 
0.0045823761218381463

>  <r_epik_Ionization_Penalty_Charging>  (1) 
0.0045823759254623037

>  <r_epik_Ionization_Penalty_Neutral>  (1) 
1.9637584269267853e-10

>  <r_epik_State_Penalty>  (1) 
0.0045823759254623184

>  <r_glide_ring_energy>  (1) 
0.075723670429018577

>  <r_i_docking_score>  (1) 
-4.4688580685606585

>  <r_i_glide_ecoul>  (1) 
-6.6056623092804978

>  <r_i_glide_eff_state_penalty>  (1) 
0.0045823759254623184

>  <r_i_glide_einternal>  (1) 
10.878228608720752

>  <r_i_glide_emodel>  (1) 
-44.226667427161402

>  <r_i_glide_emodel_strain>  (1) 
0.074076077224205505

>  <r_i_glide_energy>  (1) 
-37.920071568411778

>  <r_i_glide_erotb>  (1) 
0.051949520036259446

>  <r_i_glide_esite>  (1) 
-0.032984963356087409

>  <r_i_glide_evdw>  (1) 
-31.314409259131278

>  <r_i_glide_gscore>  (1) 
-4.4734404444861209

>  <r_i_glide_gscore_strain>  (1) 
0

>  <r_i_glide_hbond>  (1) 
0

>  <r_i_glide_ligand_efficiency>  (1) 
-0.091201185072666502

>  <r_i_glide_ligand_efficiency_ln>  (1) 
-0.91353684236656663

>  <r_i_glide_ligand_efficiency_sa>  (1) 
-0.33373301729727034

>  <r_i_glide_lipo>  (1) 
-1.5370551406710553

>  <r_i_glide_metal>  (1) 
-0

>  <r_i_glide_rewards>  (1) 
-0.39878005114659887

>  <r_lp_Energy>  (1) 
81.194295999999994

>  <r_lp_tautomer_probability>  (1) 
0.99995000000000001

>  <s_epik_cmdline>  (1) 
J2VwaWtfcHl0aG9uJywgJy1waHQnLCAnMS4wJywgJy1waCcsICc3LjQnLCAnLXRuJywgJzgnLCAnLW1hJywgJzUwMCcsICctaW1hZScsICc8aW5maWxlLm1hZT4nLCAnLW9tYWUnLCAnPG91dGZpbGUubWFlPic=

>  <s_epik_input>  (1) 
W0NIMl0xT1tDQEBIXTFbQ0BIXTJbQ0gyXVtDSDJdW0NASF0oW0NIMl1bTkgyXSlPW0NASF0oW0NIMl1bQ0BASF0zRilbQ0BIXTJbQ0BIXShbQ0BIXTM0KVtDSDJdW0NIMl1bQ0BASF01W0NIMl1bQ0BIXShPNClbQ0gyXUMoPU8pT0MoPU8pW0NAQEhdKFtDSDNdKVtDSDJdW0NASF0oW0NIMl1bQ0gyXVtDSDJdNSlbQ0gyXVtDSDJdW0NAQEhdKFtDSDNdKU4oQyg9TylDNj1PKVtDSDJdW0NIMl1bQ0BASF02W0NIM10=

>  <s_glide_docking_method>  (1) 
confgen

>  <s_i_glide_gridfile>  (1) 
gpcr_drd2_6luq_protein_autoprepared_prepared

>  <s_lp_Force_Field>  (1) 
S-OPLS

>  <s_lp_Variant>  (1) 
DiffSBDD_34_num_sample_50-1

>  <s_m_source_file>  (1) 
generated__ligand_DiffSBDD_2026-05-06_prepared.sdf

>  <GenAI_Model>  (1) 
DiffSBDD

>  <Protein>  (1) 
generic_title2

$$$$
DiffSBDD_11_num_sample_50
     RDKit          3D

  0  0  0  0  0  0  0  0  0  0999 V3000
M  V30 BEGIN CTAB
M  V30 COUNTS 69 72 0 0 1
M  V30 BEGIN ATOM
M  V30 1 C 8.360710 5.465929 -14.009028 0
M  V30 2 C 6.756886 0.228970 -17.651806 0
M  V30 3 C 6.708540 4.017127 -12.026962 0 CFG=1
M  V30 4 O 10.188517 8.969384 -5.891779 0
M  V30 5 C 7.830244 1.815466 -15.116684 0
M  V30 6 O 5.626098 4.644461 -12.685507 0
M  V30 7 C 10.919717 6.753472 -6.436737 0
M  V30 8 C 11.327576 8.171204 -5.959751 0 CFG=2
M  V30 9 C 8.663834 4.405725 -16.193433 0
M  V30 10 C 13.049186 9.368276 -4.785054 0
M  V30 11 C 8.844714 5.379569 -12.557889 0
M  V30 12 C 5.511715 -0.054921 -18.515487 0
M  V30 13 C 5.225764 0.931174 -19.650436 0
M  V30 14 C 12.021419 8.259863 -4.585672 0
M  V30 15 C 8.274190 1.878214 -16.604612 0 CFG=2
M  V30 16 C 8.391055 4.659277 -10.189458 0
M  V30 17 O 9.171365 5.727005 -9.668603 0
M  V30 18 C 6.600173 2.546553 -18.334149 0
M  V30 19 N 8.516711 4.181475 -14.731584 0 CFG=2 CHG=1
M  V30 20 C 7.470992 3.160347 -14.434912 0 CFG=2
M  V30 21 F 5.864280 0.520562 -20.746485 0
M  V30 22 C 9.115718 3.135875 -16.937869 0
M  V30 23 C 10.322273 6.805692 -7.867448 0
M  V30 24 C 9.627706 5.518543 -8.335828 0
M  V30 25 F 3.916446 0.939905 -19.891826 0
M  V30 26 N 7.187508 1.525510 -17.555855 0
M  V30 27 O 12.234510 8.709072 -6.862464 0
M  V30 28 C 7.277353 2.882848 -12.913395 0
M  V30 29 C 12.875347 9.805002 -6.229816 0
M  V30 30 C 5.696853 2.309747 -19.294834 0
M  V30 31 O 7.298688 -0.694363 -17.046097 0
M  V30 32 C 7.744741 5.064583 -11.531628 0 CFG=2
M  V30 33 F 5.193206 3.354918 -19.972220 0
M  V30 34 H 7.361256 5.889975 -14.109896 0
M  V30 35 H 9.019915 6.169210 -14.493075 0
M  V30 36 H 6.250017 3.558210 -11.149307 0
M  V30 37 H 10.466741 9.841226 -5.662976 0
M  V30 38 H 6.996438 1.122358 -14.997483 0
M  V30 39 H 8.636350 1.352772 -14.549490 0
M  V30 40 H 5.246695 5.277459 -12.091989 0
M  V30 41 H 11.795069 6.104134 -6.415988 0
M  V30 42 H 10.193024 6.343296 -5.733675 0
M  V30 43 H 7.722245 4.791792 -16.582491 0
M  V30 44 H 9.408645 5.179320 -16.385403 0
M  V30 45 H 14.055267 8.975044 -4.691656 0
M  V30 46 H 12.932339 10.169288 -4.061673 0
M  V30 47 H 9.290026 6.334829 -12.276719 0
M  V30 48 H 9.658664 4.655979 -12.486718 0
M  V30 49 H 5.566831 -1.070741 -18.909721 0
M  V30 50 H 4.666804 -0.058010 -17.825925 0
M  V30 51 H 11.323626 8.527363 -3.801217 0
M  V30 52 H 12.483035 7.314662 -4.291702 0
M  V30 53 H 9.000962 1.072193 -16.726310 0
M  V30 54 H 9.031349 3.788789 -10.336595 0
M  V30 55 H 7.610776 4.398817 -9.471513 0
M  V30 56 H 6.942675 3.534669 -18.095133 0
M  V30 57 H 6.529485 3.513826 -14.856737 0
M  V30 58 H 9.152635 3.317069 -18.011881 0
M  V30 59 H 10.158623 2.939186 -16.691140 0
M  V30 60 H 9.583797 7.605000 -7.935721 0
M  V30 61 H 11.108125 7.065938 -8.577021 0
M  V30 62 H 10.305620 4.665638 -8.291762 0
M  V30 63 H 8.782931 5.305715 -7.679061 0
M  V30 64 H 6.579942 2.047583 -12.827846 0
M  V30 65 H 8.208089 2.514036 -12.480320 0
M  V30 66 H 13.838908 10.007302 -6.691138 0
M  V30 67 H 12.253231 10.699259 -6.291744 0
M  V30 68 H 7.199393 5.989384 -11.330943 0
M  V30 69 H 9.397164 3.804524 -14.411962 0
M  V30 END ATOM
M  V30 BEGIN BOND
M  V30 1 1 6 3
M  V30 2 1 8 4 CFG=1
M  V30 3 1 8 7
M  V30 4 1 11 1
M  V30 5 1 12 2
M  V30 6 1 13 12
M  V30 7 1 14 8
M  V30 8 1 14 10
M  V30 9 1 15 5
M  V30 10 1 17 16
M  V30 11 1 19 1
M  V30 12 1 19 9
M  V30 13 1 20 5
M  V30 14 1 20 19
M  V30 15 1 21 13
M  V30 16 1 22 9
M  V30 17 1 22 15
M  V30 18 1 23 7
M  V30 19 1 24 17
M  V30 20 1 24 23
M  V30 21 1 25 13
M  V30 22 1 26 2
M  V30 23 1 26 15
M  V30 24 1 26 18
M  V30 25 1 27 8
M  V30 26 1 28 3
M  V30 27 1 28 20
M  V30 28 1 29 10
M  V30 29 1 29 27
M  V30 30 1 30 13
M  V30 31 2 30 18
M  V30 32 2 31 2
M  V30 33 1 32 3
M  V30 34 1 32 11
M  V30 35 1 32 16
M  V30 36 1 33 30
M  V30 37 1 34 1
M  V30 38 1 35 1
M  V30 39 1 3 36 CFG=1
M  V30 40 1 37 4
M  V30 41 1 38 5
M  V30 42 1 39 5
M  V30 43 1 40 6
M  V30 44 1 41 7
M  V30 45 1 42 7
M  V30 46 1 43 9
M  V30 47 1 44 9
M  V30 48 1 45 10
M  V30 49 1 46 10
M  V30 50 1 47 11
M  V30 51 1 48 11
M  V30 52 1 49 12
M  V30 53 1 50 12
M  V30 54 1 51 14
M  V30 55 1 52 14
M  V30 56 1 15 53 CFG=1
M  V30 57 1 54 16
M  V30 58 1 55 16
M  V30 59 1 56 18
M  V30 60 1 20 57 CFG=3
M  V30 61 1 58 22
M  V30 62 1 59 22
M  V30 63 1 60 23
M  V30 64 1 61 23
M  V30 65 1 62 24
M  V30 66 1 63 24
M  V30 67 1 64 28
M  V30 68 1 65 28
M  V30 69 1 66 29
M  V30 70 1 67 29
M  V30 71 1 32 68 CFG=1
M  V30 72 1 19 69 CFG=1
M  V30 END BOND
M  V30 END CTAB
M  END
>  <i_epik_Tot_Q>  (1) 
1

>  <i_epik_Tot_abs_Q>  (1) 
1

>  <i_i_glide_confnum>  (1) 
553

>  <i_i_glide_lignum>  (1) 
46

>  <i_i_glide_posenum>  (1) 
251

>  <i_i_glide_rotatable_bonds>  (1) 
9

>  <i_lp_mmshare_version>  (1) 
72125

>  <i_m_source_file_index>  (1) 
12

>  <i_f3d_flags>  (1) 
0

>  <num_sample>  (1) 
50

>  <b_lp_Chiralities_Consistent>  (1) 
1

>  <r_epik_Charging_Adjusted_Penalty>  (1) 
0.049597449479403345

>  <r_epik_Ionization_Penalty>  (1) 
0.024799209446341199

>  <r_epik_Ionization_Penalty_Charging>  (1) 
0.024798724739701669

>  <r_epik_Ionization_Penalty_Neutral>  (1) 
4.8470663953020042e-07

>  <r_epik_State_Penalty>  (1) 
0.024798724739701676

>  <r_glide_ring_energy>  (1) 
0.00027748208411692568

>  <r_i_docking_score>  (1) 
-4.4636137511926899

>  <r_i_glide_ecoul>  (1) 
-0.49246532236405838

>  <r_i_glide_eff_state_penalty>  (1) 
0.024798724739701676

>  <r_i_glide_einternal>  (1) 
1.30660840171792

>  <r_i_glide_emodel>  (1) 
-33.878896891848733

>  <r_i_glide_emodel_strain>  (1) 
0.64584913185572645

>  <r_i_glide_energy>  (1) 
-29.691072620192813

>  <r_i_glide_erotb>  (1) 
0.62180956458355674

>  <r_i_glide_esite>  (1) 
-0.020035078763844166

>  <r_i_glide_evdw>  (1) 
-29.198607297828755

>  <r_i_glide_gscore>  (1) 
-4.4884124759323916

>  <r_i_glide_gscore_strain>  (1) 
0

>  <r_i_glide_hbond>  (1) 
0

>  <r_i_glide_ligand_efficiency>  (1) 
-0.13526102276341484

>  <r_i_glide_ligand_efficiency_ln>  (1) 
-0.99268458691014361

>  <r_i_glide_ligand_efficiency_sa>  (1) 
-0.43385437402400012

>  <r_i_glide_lipo>  (1) 
-2.3436275961800472

>  <r_i_glide_metal>  (1) 
-0

>  <r_i_glide_rewards>  (1) 
-1.2127592023260096

>  <r_lp_Energy>  (1) 
48.888842999999994

>  <s_epik_cmdline>  (1) 
J2VwaWtfcHl0aG9uJywgJy1waHQnLCAnMS4wJywgJy1waCcsICc3LjQnLCAnLXRuJywgJzgnLCAnLW1hJywgJzUwMCcsICctaW1hZScsICc8aW5maWxlLm1hZT4nLCAnLW9tYWUnLCAnPG91dGZpbGUubWFlPic=

>  <s_epik_input>  (1) 
TzFbQ0gyXVtDSDJdW0NIMl1bQ0BdMShbT0hdKVtDSDJdW0NIMl1bQ0gyXU9bQ0gyXVtDQEBIXShbQ0gyXVtDSDJdMilbQ0BASF0oW09IXSlbQ0gyXVtDQEBIXShOMjMpW0NIMl1bQ0BIXShbQ0gyXVtDSDJdMylOKFtDSF09QzRGKUMoPU8pW0NIMl1DNChGKUY=

>  <s_glide_docking_method>  (1) 
confgen

>  <s_i_glide_gridfile>  (1) 
gpcr_drd2_6luq_protein_autoprepared_prepared

>  <s_lp_Force_Field>  (1) 
S-OPLS

>  <s_lp_Variant>  (1) 
DiffSBDD_11_num_sample_50-2

>  <s_m_source_file>  (1) 
generated__ligand_DiffSBDD_2026-05-06_prepared.sdf

>  <GenAI_Model>  (1) 
DiffSBDD

>  <Protein>  (1) 
generic_title2

$$$$
DiffSBDD_1_num_sample_50
     RDKit          3D

  0  0  0  0  0  0  0  0  0  0999 V3000
M  V30 BEGIN CTAB
M  V30 COUNTS 72 77 0 0 1
M  V30 BEGIN ATOM
M  V30 1 N 8.234284 3.591462 -13.957116 0
M  V30 2 C 9.146039 3.841073 -20.538808 0
M  V30 3 C 9.794230 6.561682 -10.049229 0
M  V30 4 O 11.700231 8.014958 -9.992741 0
M  V30 5 C 7.362894 2.584355 -16.045468 0
M  V30 6 O 6.576659 1.902794 -13.346298 0
M  V30 7 C 7.822694 4.951185 -10.117420 0
M  V30 8 C 9.227328 4.503612 -13.375015 0
M  V30 9 C 12.234748 9.198553 -9.459187 0
M  V30 10 C 10.742837 7.295163 -9.309335 0
M  V30 11 C 7.054613 2.701289 -17.550606 0
M  V30 12 C 6.616651 5.684062 -19.961496 0
M  V30 13 C 8.191355 4.877624 -16.084700 0
M  V30 14 C 8.804851 5.743032 -7.976539 0
M  V30 15 O 10.952202 8.954567 -6.351866 0
M  V30 16 C 8.820816 5.769331 -9.386580 0
M  V30 17 C 7.037518 1.199767 -15.458004 0 CFG=2
M  V30 18 C 7.273642 0.886591 -14.002369 0
M  V30 19 N 7.262400 4.027762 -18.120256 0
M  V30 20 C 8.589595 5.550372 -12.453749 0 CFG=1
M  V30 21 O 11.635399 7.939994 -7.142057 0
M  V30 22 C 7.914173 3.643663 -15.342289 0
M  V30 23 C 7.707256 4.831069 -11.458710 0
M  V30 24 C 9.739904 6.479715 -7.232954 0
M  V30 25 C 5.969801 5.749104 -21.353866 0
M  V30 26 C 7.459674 2.862320 -12.940204 0 CFG=2
M  V30 27 O 7.684015 0.191873 -16.211916 0
M  V30 28 C 6.983967 3.485672 -21.923411 0 CFG=1
M  V30 29 S 9.845393 6.635307 -11.801414 0
M  V30 30 C 7.867159 5.017039 -17.373815 0
M  V30 31 C 10.713898 7.252828 -7.885454 0
M  V30 32 C 7.660693 3.416877 -20.531363 0 CFG=2
M  V30 33 C 6.689955 3.895047 -12.085768 0
M  V30 34 C 6.811548 4.214792 -19.507989 0 CFG=2
M  V30 35 C 6.771599 4.940592 -22.387241 0
M  V30 36 C 7.701839 2.639172 -22.984823 0
M  V30 37 H 9.280639 4.872199 -20.863668 0
M  V30 38 H 9.583323 3.752756 -19.544393 0
M  V30 39 H 9.739543 3.206346 -21.196051 0
M  V30 40 H 7.146813 4.379691 -9.497300 0
M  V30 41 H 9.872758 4.965015 -14.120014 0
M  V30 42 H 9.900591 3.892993 -12.772332 0
M  V30 43 H 12.634508 9.769198 -10.291197 0
M  V30 44 H 11.476075 9.800612 -8.961810 0
M  V30 45 H 13.061600 8.969824 -8.785904 0
M  V30 46 H 7.719476 2.008657 -18.065240 0
M  V30 47 H 6.041258 2.357511 -17.754492 0
M  V30 48 H 5.985483 6.216124 -19.248381 0
M  V30 49 H 7.567532 6.215531 -19.995517 0
M  V30 50 H 8.650385 5.710962 -15.578014 0
M  V30 51 H 8.065400 5.147672 -7.463526 0
M  V30 52 H 10.713383 8.452537 -5.588035 0
M  V30 53 H 5.971316 1.059901 -15.640488 0
M  V30 54 H 8.336355 0.805965 -13.755975 0
M  V30 55 H 6.817119 -0.071024 -13.747602 0
M  V30 56 H 7.932831 6.180435 -13.054478 0
M  V30 57 H 9.714761 6.442512 -6.154032 0
M  V30 58 H 4.951848 5.361783 -21.298404 0
M  V30 59 H 5.885990 6.786707 -21.678504 0
M  V30 60 H 8.193476 2.370429 -12.295124 0
M  V30 61 H 8.571264 0.101559 -15.899874 0
M  V30 62 H 5.992676 3.043299 -21.809789 0
M  V30 63 H 8.055790 5.930488 -17.912829 0
M  V30 64 H 7.639235 2.367204 -20.238405 0
M  V30 65 H 6.107311 3.371332 -11.326644 0
M  V30 66 H 5.996893 4.449108 -12.719969 0
M  V30 67 H 5.813199 3.775025 -19.526449 0
M  V30 68 H 6.243686 4.952218 -23.341618 0
M  V30 69 H 7.733479 5.422013 -22.567280 0
M  V30 70 H 8.653741 3.081095 -23.279984 0
M  V30 71 H 7.894099 1.629430 -22.621397 0
M  V30 72 H 7.087948 2.548745 -23.878838 0
M  V30 END ATOM
M  V30 BEGIN BOND
M  V30 1 1 8 1
M  V30 2 1 9 4
M  V30 3 1 10 3
M  V30 4 1 10 4
M  V30 5 1 11 5
M  V30 6 2 16 3
M  V30 7 1 16 7
M  V30 8 1 16 14
M  V30 9 1 17 5
M  V30 10 1 18 6
M  V30 11 1 18 17
M  V30 12 1 19 11
M  V30 13 1 20 8
M  V30 14 1 21 15
M  V30 15 1 22 1
M  V30 16 2 22 5
M  V30 17 1 22 13
M  V30 18 2 23 7
M  V30 19 1 23 20
M  V30 20 2 24 14
M  V30 21 1 25 12
M  V30 22 1 26 1
M  V30 23 1 26 6
M  V30 24 1 27 17
M  V30 25 1 29 3
M  V30 26 1 29 20
M  V30 27 2 30 13
M  V30 28 1 30 19
M  V30 29 2 31 10
M  V30 30 1 31 21
M  V30 31 1 31 24
M  V30 32 1 32 2
M  V30 33 1 32 28
M  V30 34 1 33 23
M  V30 35 1 33 26
M  V30 36 1 34 12
M  V30 37 1 34 19
M  V30 38 1 34 32
M  V30 39 1 35 25
M  V30 40 1 35 28
M  V30 41 1 36 28
M  V30 42 1 37 2
M  V30 43 1 38 2
M  V30 44 1 39 2
M  V30 45 1 40 7
M  V30 46 1 41 8
M  V30 47 1 42 8
M  V30 48 1 43 9
M  V30 49 1 44 9
M  V30 50 1 45 9
M  V30 51 1 46 11
M  V30 52 1 47 11
M  V30 53 1 48 12
M  V30 54 1 49 12
M  V30 55 1 50 13
M  V30 56 1 51 14
M  V30 57 1 52 15
M  V30 58 1 17 53 CFG=1
M  V30 59 1 54 18
M  V30 60 1 55 18
M  V30 61 1 20 56 CFG=3
M  V30 62 1 57 24
M  V30 63 1 58 25
M  V30 64 1 59 25
M  V30 65 1 26 60 CFG=1
M  V30 66 1 61 27
M  V30 67 1 28 62 CFG=1
M  V30 68 1 63 30
M  V30 69 1 32 64 CFG=1
M  V30 70 1 65 33
M  V30 71 1 66 33
M  V30 72 1 34 67 CFG=1
M  V30 73 1 68 35
M  V30 74 1 69 35
M  V30 75 1 70 36
M  V30 76 1 71 36
M  V30 77 1 72 36
M  V30 END BOND
M  V30 END CTAB
M  END
>  <i_epik_Tot_Q>  (1) 
0

>  <i_epik_Tot_abs_Q>  (1) 
0

>  <i_i_glide_confnum>  (1) 
2

>  <i_i_glide_lignum>  (1) 
5

>  <i_i_glide_posenum>  (1) 
184

>  <i_i_glide_rotatable_bonds>  (1) 
5

>  <i_lp_mmshare_version>  (1) 
72125

>  <i_m_source_file_index>  (1) 
2

>  <i_f3d_flags>  (1) 
0

>  <num_sample>  (1) 
50

>  <b_lp_Chiralities_Consistent>  (1) 
1

>  <r_epik_Charging_Adjusted_Penalty>  (1) 
1.7947178929853217e-12

>  <r_epik_Ionization_Penalty>  (1) 
2.2136665369831182e-05

>  <r_epik_Ionization_Penalty_Charging>  (1) 
1.7947178929853217e-12

>  <r_epik_Ionization_Penalty_Neutral>  (1) 
2.2136663575113287e-05

>  <r_epik_State_Penalty>  (1) 
-0

>  <r_glide_ring_energy>  (1) 
0

>  <r_i_docking_score>  (1) 
-4.453796877373863

>  <r_i_glide_ecoul>  (1) 
-1.9995967152503007

>  <r_i_glide_eff_state_penalty>  (1) 
-0

>  <r_i_glide_einternal>  (1) 
3.3004291996322817

>  <r_i_glide_emodel>  (1) 
-45.992062023375432

>  <r_i_glide_emodel_strain>  (1) 
0.63379609324368857

>  <r_i_glide_energy>  (1) 
-40.517528404673961

>  <r_i_glide_erotb>  (1) 
0.15600053340392078

>  <r_i_glide_esite>  (1) 
0

>  <r_i_glide_evdw>  (1) 
-38.517931689423662

>  <r_i_glide_gscore>  (1) 
-4.453796877373863

>  <r_i_glide_gscore_strain>  (1) 
0

>  <r_i_glide_hbond>  (1) 
0

>  <r_i_glide_ligand_efficiency>  (1) 
-0.12371657992705175

>  <r_i_glide_ligand_efficiency_ln>  (1) 
-0.97169815095692791

>  <r_i_glide_ligand_efficiency_sa>  (1) 
-0.40850314640118224

>  <r_i_glide_lipo>  (1) 
-1.4359181381595261

>  <r_i_glide_metal>  (1) 
-0

>  <r_i_glide_rewards>  (1) 
-0.94804318085952921

>  <r_lp_Energy>  (1) 
75.115066999999996

>  <r_lp_tautomer_probability>  (1) 
1

>  <s_epik_Chemistry_Notes>  (1) 
This compound has an imine and may undergo hydrolysis. This compound contains an acetal/aminal-like group ( X-CH(R)-Y where X, Y are N, S, or O) that may be acid/base labile, releasing an aldehyde.

>  <s_epik_cmdline>  (1) 
J2VwaWtfcHl0aG9uJywgJy1waHQnLCAnMS4wJywgJy1waCcsICc3LjQnLCAnLXRuJywgJzgnLCAnLW1hJywgJzUwMCcsICctaW1hZScsICc8aW5maWxlLm1hZT4nLCAnLW9tYWUnLCAnPG91dGZpbGUubWFlPic=

>  <s_epik_input>  (1) 
W0NIMl0xW0NIMl1bQ0gyXVtDQEBIXShbQ0BIXShbQ0gzXSlbQ0BASF0xW0NIM10pTihbQ0hdPVtDSF0yKVtDSDJdQyg9QzJOMzQpW0NAQEhdKFtPSF0pW0NIMl1PW0NAQEhdNFtDSDJdQzVbQ0BASF0oW0NIMl0zKVNjNmMoW0NIXT01KVtjSF1bY0hdYyhPW09IXSljNk9bQ0gzXQ==

>  <s_glide_docking_method>  (1) 
confgen

>  <s_i_glide_gridfile>  (1) 
gpcr_drd2_6luq_protein_autoprepared_prepared

>  <s_lp_Force_Field>  (1) 
S-OPLS

>  <s_lp_Variant>  (1) 
DiffSBDD_1_num_sample_50-2

>  <s_m_source_file>  (1) 
generated__ligand_DiffSBDD_2026-05-06_prepared.sdf

>  <GenAI_Model>  (1) 
DiffSBDD

>  <Protein>  (1) 
generic_title2

$$$$
DiffSBDD_35_num_sample_50
     RDKit          3D

  0  0  0  0  0  0  0  0  0  0999 V3000
M  V30 BEGIN CTAB
M  V30 COUNTS 55 58 0 0 1
M  V30 BEGIN ATOM
M  V30 1 C 8.348458 6.582421 -11.538243 0
M  V30 2 C 8.894170 8.472256 -6.803599 0
M  V30 3 C 10.589405 7.896989 -8.462071 0 CFG=1
M  V30 4 O 9.834797 4.638922 -11.551129 0
M  V30 5 C 11.269462 9.083513 -6.259149 0
M  V30 6 O 5.796696 0.458454 -16.534706 0
M  V30 7 O 10.120067 8.169586 -11.242259 0
M  V30 8 C 8.456676 2.519148 -13.352943 0 CFG=1
M  V30 9 C 6.008135 2.675359 -12.554064 0 CFG=1
M  V30 10 C 5.450380 3.722801 -13.490401 0
M  V30 11 C 9.675537 6.935616 -9.265585 0
M  V30 12 C 10.360418 8.019452 -6.929879 0
M  V30 13 C 5.861929 1.223128 -12.853867 0 CFG=1
M  V30 14 C 8.011508 1.250262 -13.890534 0 CFG=2
M  V30 15 C 11.304318 7.088333 -4.812269 0
M  V30 16 C 6.235657 0.742764 -15.419863 0
M  V30 17 C 8.608269 5.155432 -11.986591 0 CFG=2
M  V30 18 C 5.384255 0.561032 -14.145622 0
M  V30 19 C 9.444802 7.304028 -10.734908 0
M  V30 20 O 9.149235 5.941542 -8.759959 0
M  V30 21 C 8.489142 4.993553 -13.483660 0
M  V30 22 C 8.418035 3.803687 -14.084608 0
M  V30 23 Cl 12.299619 7.770730 -8.931619 0
M  V30 24 O 7.462040 1.242155 -15.188174 0
M  V30 25 C 7.264182 1.792005 -12.691473 0 CFG=2
M  V30 26 C 11.599224 8.594156 -4.843062 0
M  V30 27 O 8.762189 0.169251 -13.492148 0
M  V30 28 C 10.667683 6.709279 -6.158902 0
M  V30 29 H 8.210964 7.213922 -12.415344 0
M  V30 30 H 7.363770 6.623484 -11.091653 0
M  V30 31 H 8.650991 8.968784 -5.891564 0
M  V30 32 H 8.611426 9.195371 -7.570034 0
M  V30 33 H 8.235660 7.616067 -6.891617 0
M  V30 34 H 10.312871 8.875049 -8.852109 0
M  V30 35 H 10.393540 4.495174 -12.306682 0
M  V30 36 H 12.216433 9.194198 -6.782186 0
M  V30 37 H 10.821153 10.077522 -6.244043 0
M  V30 38 H 9.338057 2.471105 -12.717099 0
M  V30 39 H 5.836149 2.967651 -11.519576 0
M  V30 40 H 5.838522 3.616676 -14.498555 0
M  V30 41 H 4.365902 3.665390 -13.491976 0
M  V30 42 H 5.693965 4.720528 -13.132094 0
M  V30 43 H 5.534179 0.628196 -11.997713 0
M  V30 44 H 10.643813 6.824788 -3.989773 0
M  V30 45 H 12.228987 6.533380 -4.654691 0
M  V30 46 H 7.852744 4.525141 -11.522547 0
M  V30 47 H 4.354037 0.874480 -14.319690 0
M  V30 48 H 5.332772 -0.510202 -13.950506 0
M  V30 49 H 8.463321 5.897827 -14.073259 0
M  V30 50 H 8.332439 3.751020 -15.161624 0
M  V30 51 H 11.034297 9.137727 -4.086801 0
M  V30 52 H 12.643216 8.789889 -4.599113 0
M  V30 53 H 8.167506 -0.550300 -13.351742 0
M  V30 54 H 9.778313 6.090260 -6.020067 0
M  V30 55 H 11.375569 6.092119 -6.709812 0
M  V30 END ATOM
M  V30 BEGIN BOND
M  V30 1 1 10 9
M  V30 2 1 11 3
M  V30 3 1 12 2
M  V30 4 1 12 3
M  V30 5 1 12 5
M  V30 6 1 13 9
M  V30 7 1 14 8
M  V30 8 2 16 6
M  V30 9 1 17 1
M  V30 10 1 17 4
M  V30 11 1 18 13
M  V30 12 1 18 16
M  V30 13 1 19 1
M  V30 14 2 19 7
M  V30 15 1 19 11
M  V30 16 2 20 11
M  V30 17 1 21 17
M  V30 18 1 22 8
M  V30 19 2 22 21
M  V30 20 1 23 3
M  V30 21 1 24 14
M  V30 22 1 24 16
M  V30 23 1 25 8
M  V30 24 1 25 9
M  V30 25 1 25 13
M  V30 26 1 25 14 CFG=1
M  V30 27 1 26 5
M  V30 28 1 26 15
M  V30 29 1 14 27 CFG=1
M  V30 30 1 28 12
M  V30 31 1 28 15
M  V30 32 1 29 1
M  V30 33 1 30 1
M  V30 34 1 31 2
M  V30 35 1 32 2
M  V30 36 1 33 2
M  V30 37 1 3 34 CFG=3
M  V30 38 1 35 4
M  V30 39 1 36 5
M  V30 40 1 37 5
M  V30 41 1 8 38 CFG=1
M  V30 42 1 9 39 CFG=1
M  V30 43 1 40 10
M  V30 44 1 41 10
M  V30 45 1 42 10
M  V30 46 1 13 43 CFG=1
M  V30 47 1 44 15
M  V30 48 1 45 15
M  V30 49 1 17 46 CFG=1
M  V30 50 1 47 18
M  V30 51 1 48 18
M  V30 52 1 49 21
M  V30 53 1 50 22
M  V30 54 1 51 26
M  V30 55 1 52 26
M  V30 56 1 53 27
M  V30 57 1 54 28
M  V30 58 1 55 28
M  V30 END BOND
M  V30 END CTAB
M  END
>  <i_epik_Tot_Q>  (1) 
0

>  <i_epik_Tot_abs_Q>  (1) 
0

>  <i_i_glide_confnum>  (1) 
778

>  <i_i_glide_lignum>  (1) 
89

>  <i_i_glide_posenum>  (1) 
359

>  <i_i_glide_rotatable_bonds>  (1) 
9

>  <i_lp_mmshare_version>  (1) 
72125

>  <i_m_source_file_index>  (1) 
36

>  <i_f3d_flags>  (1) 
0

>  <num_sample>  (1) 
50

>  <b_lp_Chiralities_Consistent>  (1) 
1

>  <r_epik_Charging_Adjusted_Penalty>  (1) 
0

>  <r_epik_Ionization_Penalty>  (1) 
1.4539570635880344e-05

>  <r_epik_Ionization_Penalty_Charging>  (1) 
0

>  <r_epik_Ionization_Penalty_Neutral>  (1) 
1.4539570635880344e-05

>  <r_epik_State_Penalty>  (1) 
-0

>  <r_glide_ring_energy>  (1) 
0.0026967274923194477

>  <r_i_docking_score>  (1) 
-4.4529195554828247

>  <r_i_glide_ecoul>  (1) 
-2.9037054910555575

>  <r_i_glide_eff_state_penalty>  (1) 
-0

>  <r_i_glide_einternal>  (1) 
15.535376150550402

>  <r_i_glide_emodel>  (1) 
-15.388341298355925

>  <r_i_glide_emodel_strain>  (1) 
6.9561909641480639

>  <r_i_glide_energy>  (1) 
-24.672556930580349

>  <r_i_glide_erotb>  (1) 
0.81694813045343473

>  <r_i_glide_esite>  (1) 
-0.20000000000000001

>  <r_i_glide_evdw>  (1) 
-21.768851439524791

>  <r_i_glide_gscore>  (1) 
-4.4529195554828247

>  <r_i_glide_gscore_strain>  (1) 
0.73904774103701598

>  <r_i_glide_hbond>  (1) 
-0.13676660032039623

>  <r_i_glide_ligand_efficiency>  (1) 
-0.15903284126724374

>  <r_i_glide_ligand_efficiency_ln>  (1) 
-1.0278645768047405

>  <r_i_glide_ligand_efficiency_sa>  (1) 
-0.4829173719581652

>  <r_i_glide_lipo>  (1) 
-2.3940547508211156

>  <r_i_glide_metal>  (1) 
-0

>  <r_i_glide_rewards>  (1) 
-1.7540956801971894

>  <r_lp_Energy>  (1) 
34.744050999999999

>  <r_lp_tautomer_probability>  (1) 
1

>  <s_epik_Chemistry_Notes>  (1) 
This compound has an ester and may undergo hydrolysis at high or low pH.

>  <s_epik_cmdline>  (1) 
J2VwaWtfcHl0aG9uJywgJy1waHQnLCAnMS4wJywgJy1waCcsICc3LjQnLCAnLXRuJywgJzgnLCAnLW1hJywgJzUwMCcsICctaW1hZScsICc8aW5maWxlLm1hZT4nLCAnLW9tYWUnLCAnPG91dGZpbGUubWFlPic=

>  <s_epik_input>  (1) 
W0NIMl0xW0NIMl1bQ0gyXVtDSDJdQzEoW0NIM10pW0NAQEhdKENsKUMoPU8pQyg9TylbQ0gyXVtDQEhdKFtPSF0pL1tDSF09W0NIXVxbQ0BASF0yW0NAXTMoW09IXSlPQyg9TylbQ0gyXVtDQEBIXShDMjM0KVtDQEBIXTRbQ0gzXQ==

>  <s_glide_docking_method>  (1) 
confgen

>  <s_i_glide_gridfile>  (1) 
gpcr_drd2_6luq_protein_autoprepared_prepared

>  <s_lp_Force_Field>  (1) 
S-OPLS

>  <s_lp_Variant>  (1) 
DiffSBDD_35_num_sample_50-1

>  <s_m_source_file>  (1) 
generated__ligand_DiffSBDD_2026-05-06_prepared.sdf

>  <GenAI_Model>  (1) 
DiffSBDD

>  <Protein>  (1) 
generic_title2

$$$$
DiffSBDD_10_num_sample_50
     RDKit          3D

  0  0  0  0  0  0  0  0  0  0999 V3000
M  V30 BEGIN CTAB
M  V30 COUNTS 72 73 0 0 1
M  V30 BEGIN ATOM
M  V30 1 C 5.901098 6.914571 -21.938489 0 CFG=2
M  V30 2 C 8.438154 4.079926 -12.991336 0
M  V30 3 C 7.714476 0.380840 -15.465333 0
M  V30 4 C 7.164821 2.594469 -18.074089 0 CFG=1
M  V30 5 C 5.683704 6.332635 -20.534578 0 CFG=2
M  V30 6 N 6.144799 4.288823 -13.721466 0
M  V30 7 N 5.898077 2.926836 -20.049541 0
M  V30 8 C 6.136339 4.212646 -19.453322 0 CFG=1
M  V30 9 S 5.865504 8.804176 -22.057230 0
M  V30 10 C 8.394445 5.202645 -11.965968 0
M  V30 11 S 3.834841 9.353273 -21.746460 0 CHG=-1
M  V30 12 C 8.341419 6.706511 -22.690866 0
M  V30 13 O 9.034837 6.536503 -7.512412 0
M  V30 14 O 6.636292 9.369302 -20.942976 0
M  V30 15 C 4.589829 6.236059 -21.582705 0 CFG=2
M  V30 16 C 7.160879 0.914720 -13.023429 0
M  V30 17 C 6.760925 1.942113 -19.409370 0 CFG=1
M  V30 18 N 8.634838 5.769302 -9.552799 0 CHG=1
M  V30 19 N 7.508403 2.682825 -14.695383 0
M  V30 20 C 8.441794 4.677988 -10.526797 0
M  V30 21 C 8.623324 4.557324 -18.941761 0
M  V30 22 C 6.878306 6.313039 -22.944635 0
M  V30 23 C 5.548798 7.141038 -19.250536 0
M  V30 24 C 8.394465 1.984968 -17.368246 0
M  V30 25 C 7.466909 1.433103 -14.426985 0
M  V30 26 O 4.420222 4.893162 -21.989791 0
M  V30 27 C 7.394269 3.709364 -13.761391 0
M  V30 28 O 6.212460 9.195267 -23.431912 0
M  V30 29 F 7.815961 1.730675 -20.196433 0
M  V30 30 N 5.834834 0.331217 -12.931975 0
M  V30 31 C 8.672982 5.331851 -8.148859 0
M  V30 32 C 7.252089 4.090926 -18.397840 0 CFG=2
M  V30 33 O 6.498464 5.162589 -20.408656 0
M  V30 34 C 8.112220 0.619284 -16.747034 0
M  V30 35 H 9.382126 3.562247 -13.091640 0
M  V30 36 H 7.555323 -0.630797 -15.130819 0
M  V30 37 H 6.317860 2.469316 -17.400687 0
M  V30 38 H 5.932428 5.057828 -13.103570 0
M  V30 39 H 4.932955 2.647500 -19.945053 0
M  V30 40 H 5.203683 4.504034 -18.971002 0
M  V30 41 H 7.512950 5.828594 -12.104092 0
M  V30 42 H 9.254565 5.844270 -12.161544 0
M  V30 43 H 8.998638 6.236595 -23.422406 0
M  V30 44 H 8.492242 7.783679 -22.762821 0
M  V30 45 H 8.665911 6.389065 -21.699931 0
M  V30 46 H 8.221327 6.969210 -7.254628 0
M  V30 47 H 3.666336 6.783036 -21.491669 0
M  V30 48 H 7.905555 0.169306 -12.743459 0
M  V30 49 H 7.231319 1.711661 -12.291674 0
M  V30 50 H 6.255993 0.984945 -19.275648 0
M  V30 51 H 7.883699 6.459153 -9.632732 0
M  V30 52 H 9.255669 3.958778 -10.420879 0
M  V30 53 H 7.506413 4.169293 -10.295720 0
M  V30 54 H 8.901489 4.022368 -19.849835 0
M  V30 55 H 8.615582 5.622655 -19.173787 0
M  V30 56 H 9.416276 4.406413 -18.209872 0
M  V30 57 H 6.800776 5.226405 -22.940449 0
M  V30 58 H 6.575621 6.632935 -23.937849 0
M  V30 59 H 5.007588 8.070901 -19.416796 0
M  V30 60 H 4.998912 6.588831 -18.490082 0
M  V30 61 H 6.539266 7.369276 -18.859317 0
M  V30 62 H 8.852022 2.679459 -16.669826 0
M  V30 63 H 9.187001 1.830649 -18.100505 0
M  V30 64 H 5.204718 4.429781 -21.717212 0
M  V30 65 H 5.763531 -0.512179 -13.491714 0
M  V30 66 H 5.654093 0.032173 -11.984782 0
M  V30 67 H 9.435013 4.569287 -7.992482 0
M  V30 68 H 7.706956 4.966586 -7.801638 0
M  V30 69 H 6.990121 4.695196 -17.528138 0
M  V30 70 H 8.250263 -0.225669 -17.405873 0
M  V30 71 H 5.399523 3.984046 -14.330202 0
M  V30 72 H 9.503051 6.241813 -9.752312 0
M  V30 END ATOM
M  V30 BEGIN BOND
M  V30 1 1 5 1
M  V30 2 1 8 7
M  V30 3 1 9 1
M  V30 4 1 10 2
M  V30 5 1 11 9
M  V30 6 2 14 9
M  V30 7 1 15 1
M  V30 8 1 15 5
M  V30 9 1 17 4
M  V30 10 1 17 7
M  V30 11 1 20 10
M  V30 12 1 20 18
M  V30 13 1 1 22 CFG=3
M  V30 14 1 22 12
M  V30 15 1 23 5
M  V30 16 1 24 4
M  V30 17 1 25 3
M  V30 18 1 25 16
M  V30 19 2 25 19
M  V30 20 1 26 15
M  V30 21 2 27 2
M  V30 22 1 27 6
M  V30 23 1 27 19
M  V30 24 2 28 9
M  V30 25 1 29 17
M  V30 26 1 30 16
M  V30 27 1 31 13
M  V30 28 1 31 18
M  V30 29 1 32 4
M  V30 30 1 32 8
M  V30 31 1 32 21
M  V30 32 1 5 33 CFG=1
M  V30 33 1 33 8
M  V30 34 2 34 3
M  V30 35 1 34 24
M  V30 36 1 35 2
M  V30 37 1 36 3
M  V30 38 1 4 37 CFG=1
M  V30 39 1 38 6
M  V30 40 1 39 7
M  V30 41 1 8 40 CFG=1
M  V30 42 1 41 10
M  V30 43 1 42 10
M  V30 44 1 43 12
M  V30 45 1 44 12
M  V30 46 1 45 12
M  V30 47 1 46 13
M  V30 48 1 15 47 CFG=1
M  V30 49 1 48 16
M  V30 50 1 49 16
M  V30 51 1 17 50 CFG=1
M  V30 52 1 51 18
M  V30 53 1 52 20
M  V30 54 1 53 20
M  V30 55 1 54 21
M  V30 56 1 55 21
M  V30 57 1 56 21
M  V30 58 1 57 22
M  V30 59 1 58 22
M  V30 60 1 59 23
M  V30 61 1 60 23
M  V30 62 1 61 23
M  V30 63 1 62 24
M  V30 64 1 63 24
M  V30 65 1 64 26
M  V30 66 1 65 30
M  V30 67 1 66 30
M  V30 68 1 67 31
M  V30 69 1 68 31
M  V30 70 1 32 69 CFG=1
M  V30 71 1 70 34
M  V30 72 1 71 6
M  V30 73 1 72 18
M  V30 END BOND
M  V30 END CTAB
M  END
>  <i_epik_Tot_Q>  (1) 
0

>  <i_epik_Tot_abs_Q>  (1) 
2

>  <i_i_glide_confnum>  (1) 
3743

>  <i_i_glide_lignum>  (1) 
23

>  <i_i_glide_posenum>  (1) 
78

>  <i_i_glide_rotatable_bonds>  (1) 
15

>  <i_lp_mmshare_version>  (1) 
72125

>  <i_m_source_file_index>  (1) 
11

>  <i_f3d_flags>  (1) 
0

>  <num_sample>  (1) 
50

>  <b_lp_Chiralities_Consistent>  (1) 
1

>  <r_epik_Charging_Adjusted_Penalty>  (1) 
0.33639934582642134

>  <r_epik_Ionization_Penalty>  (1) 
0.23315943830934333

>  <r_epik_Ionization_Penalty_Charging>  (1) 
0.10316865490585193

>  <r_epik_Ionization_Penalty_Neutral>  (1) 
0.12999078340349141

>  <r_epik_State_Penalty>  (1) 
0.23323069092056939

>  <r_glide_ring_energy>  (1) 
0

>  <r_i_docking_score>  (1) 
-4.4416417597300679

>  <r_i_glide_ecoul>  (1) 
-10.801920349097438

>  <r_i_glide_eff_state_penalty>  (1) 
0.23323069092056939

>  <r_i_glide_einternal>  (1) 
22.230116406667971

>  <r_i_glide_emodel>  (1) 
-41.341337941865326

>  <r_i_glide_emodel_strain>  (1) 
4.484354007083553

>  <r_i_glide_energy>  (1) 
-42.583450292862693

>  <r_i_glide_erotb>  (1) 
0.82510599487301828

>  <r_i_glide_esite>  (1) 
-0.13398750511872123

>  <r_i_glide_evdw>  (1) 
-31.781529943765257

>  <r_i_glide_gscore>  (1) 
-4.6748724506506374

>  <r_i_glide_gscore_strain>  (1) 
0.12108850177088826

>  <r_i_glide_hbond>  (1) 
-0.43757325932850522

>  <r_i_glide_ligand_efficiency>  (1) 
-0.130636522345002

>  <r_i_glide_ligand_efficiency_ln>  (1) 
-0.98128324855579685

>  <r_i_glide_ligand_efficiency_sa>  (1) 
-0.4232116194667182

>  <r_i_glide_lipo>  (1) 
-1.235121777253493

>  <r_i_glide_metal>  (1) 
-0

>  <r_i_glide_rewards>  (1) 
-0.60501985604094477

>  <r_lp_Energy>  (1) 
24.577817

>  <s_epik_Chemistry_Notes>  (1) 
This compound has an imine and may undergo hydrolysis. This compound contains an acetal/aminal-like group ( X-CH(R)-Y where X, Y are N, S, or O) that may be acid/base labile, releasing an aldehyde.

>  <s_epik_cmdline>  (1) 
J2VwaWtfcHl0aG9uJywgJy1waHQnLCAnMS4wJywgJy1waCcsICc3LjQnLCAnLXRuJywgJzgnLCAnLW1hJywgJzUwMCcsICctaW1hZScsICc8aW5maWxlLm1hZT4nLCAnLW9tYWUnLCAnPG91dGZpbGUubWFlPic=

>  <s_epik_input>  (1) 
W1NIXVMoPU8pKD1PKVtDQEBdMShbQ0gyXVtDSDNdKVtDQEBdKFtDSDNdKShbQ0BASF0xW09IXSlPW0NASF0oW0NAQEhdMltDSDNdKVtOSF1bQ0BASF0oRilbQ0BIXTJbQ0gyXS9bQ0hdPVtDSF1cQyhbQ0gyXVtOSDJdKT1OXEMoPU5cW0hdKVxbQ0gyXVtDSDJdW0NIMl1bTkhdW0NIMl1bT0hd

>  <s_glide_docking_method>  (1) 
confgen

>  <s_i_glide_gridfile>  (1) 
gpcr_drd2_6luq_protein_autoprepared_prepared

>  <s_lp_Force_Field>  (1) 
S-OPLS

>  <s_lp_Variant>  (1) 
DiffSBDD_10_num_sample_50-3

>  <s_m_source_file>  (1) 
generated__ligand_DiffSBDD_2026-05-06_prepared.sdf

>  <GenAI_Model>  (1) 
DiffSBDD

>  <Protein>  (1) 
generic_title2

$$$$
DiffSBDD_10_num_sample_50
     RDKit          3D

  0  0  0  0  0  0  0  0  0  0999 V3000
M  V30 BEGIN CTAB
M  V30 COUNTS 73 74 0 0 1
M  V30 BEGIN ATOM
M  V30 1 C 13.235423 1.645338 -18.615494 0 CFG=2
M  V30 2 C 8.211347 4.614314 -11.464327 0
M  V30 3 C 7.017567 2.784202 -14.711286 0
M  V30 4 C 8.262153 3.169713 -17.447686 0 CFG=1
M  V30 5 C 12.051481 1.943512 -19.547197 0 CFG=2
M  V30 6 N 6.226765 5.396839 -12.602892 0
M  V30 7 N 9.162090 1.320158 -18.634612 0
M  V30 8 C 9.698140 2.476102 -19.266535 0 CFG=1
M  V30 9 S 14.912248 1.304239 -19.376089 0
M  V30 10 C 8.810013 5.988255 -11.207196 0
M  V30 11 S 15.433922 3.242146 -20.046606 0 CHG=-1
M  V30 12 C 13.966853 3.507387 -16.978924 0
M  V30 13 O 10.270160 6.169302 -7.144058 0
M  V30 14 O 15.834839 0.943050 -18.291668 0
M  V30 15 C 12.294570 0.530995 -19.046061 0 CFG=2
M  V30 16 C 5.682190 1.080406 -13.335467 0
M  V30 17 C 8.826462 1.737292 -17.290614 0 CFG=2
M  V30 18 N 8.634839 6.015734 -8.691902 0 CHG=1
M  V30 19 N 6.556939 3.115633 -12.306467 0
M  V30 20 C 9.532759 6.112985 -9.854417 0
M  V30 21 C 9.619232 4.999463 -18.843565 0
M  V30 22 C 13.312452 2.132503 -17.162083 0
M  V30 23 C 12.205880 2.364316 -21.004092 0
M  V30 24 C 8.535576 4.118169 -16.251491 0
M  V30 25 C 6.445932 2.402812 -13.373505 0
M  V30 26 O 11.545874 0.045927 -17.946284 0
M  V30 27 C 7.043365 4.401726 -12.103193 0
M  V30 28 O 14.797037 0.432974 -20.556040 0
M  V30 29 F 7.993046 0.851009 -16.746365 0
M  V30 30 N 6.467273 -0.058098 -13.853363 0 CHG=1
M  V30 31 C 9.034863 6.764601 -7.481250 0
M  V30 32 C 8.847724 3.662524 -18.796027 0 CFG=2
M  V30 33 O 11.027109 2.680069 -18.868491 0
M  V30 34 C 7.951516 3.742974 -14.897624 0
M  V30 35 H 8.781917 3.769103 -11.107244 0
M  V30 36 H 6.634883 2.222477 -15.545306 0
M  V30 37 H 7.182658 3.099342 -17.588558 0
M  V30 38 H 6.438304 6.375593 -12.466617 0
M  V30 39 H 9.859436 0.581338 -18.578423 0
M  V30 40 H 9.639206 2.374326 -20.348966 0
M  V30 41 H 8.056335 6.770070 -11.302080 0
M  V30 42 H 9.535717 6.167114 -12.001549 0
M  V30 43 H 13.869994 3.846858 -15.947634 0
M  V30 44 H 15.031128 3.479528 -17.210863 0
M  V30 45 H 13.498404 4.254095 -17.621015 0
M  V30 46 H 10.279598 5.990758 -6.213904 0
M  V30 47 H 12.585110 -0.230695 -19.762224 0
M  V30 48 H 5.434841 0.842678 -12.300953 0
M  V30 49 H 4.747411 1.163785 -13.889598 0
M  V30 50 H 9.736713 1.749647 -16.691675 0
M  V30 51 H 8.425164 5.053990 -8.475967 0
M  V30 52 H 10.085495 7.053190 -9.825860 0
M  V30 53 H 10.234837 5.298690 -9.740567 0
M  V30 54 H 10.457905 5.020476 -18.147182 0
M  V30 55 H 10.020841 5.176885 -19.841419 0
M  V30 56 H 8.968559 5.840521 -18.605151 0
M  V30 57 H 12.307923 2.196454 -16.747061 0
M  V30 58 H 13.845481 1.389683 -16.568706 0
M  V30 59 H 13.062223 1.892114 -21.477822 0
M  V30 60 H 11.331247 2.089010 -21.590481 0
M  V30 61 H 12.341733 3.444380 -21.064318 0
M  V30 62 H 8.175293 5.121008 -16.480899 0
M  V30 63 H 9.613786 4.203314 -16.110774 0
M  V30 64 H 11.771070 0.575647 -17.194709 0
M  V30 65 H 5.922804 -0.911960 -13.745828 0
M  V30 66 H 6.686946 0.073782 -14.831605 0
M  V30 67 H 8.300979 6.615819 -6.688575 0
M  V30 68 H 9.139754 7.831769 -7.679705 0
M  V30 69 H 8.018534 3.737286 -19.502007 0
M  V30 70 H 8.336639 4.294219 -14.065087 0
M  V30 71 H 5.336172 5.188752 -13.028167 0
M  V30 72 H 7.772589 6.486830 -8.980671 0
M  V30 73 H 7.325259 -0.145155 -13.329474 0
M  V30 END ATOM
M  V30 BEGIN BOND
M  V30 1 1 5 1
M  V30 2 1 8 7
M  V30 3 1 9 1
M  V30 4 1 10 2
M  V30 5 1 11 9
M  V30 6 2 14 9
M  V30 7 1 15 1
M  V30 8 1 15 5
M  V30 9 1 17 4
M  V30 10 1 17 7
M  V30 11 1 20 10
M  V30 12 1 20 18
M  V30 13 1 1 22 CFG=1
M  V30 14 1 22 12
M  V30 15 1 23 5
M  V30 16 1 24 4
M  V30 17 1 25 3
M  V30 18 1 25 16
M  V30 19 2 25 19
M  V30 20 1 26 15
M  V30 21 2 27 2
M  V30 22 1 27 6
M  V30 23 1 27 19
M  V30 24 2 28 9
M  V30 25 1 29 17
M  V30 26 1 30 16
M  V30 27 1 31 13
M  V30 28 1 31 18
M  V30 29 1 32 4
M  V30 30 1 32 8
M  V30 31 1 32 21
M  V30 32 1 5 33 CFG=1
M  V30 33 1 33 8
M  V30 34 2 34 3
M  V30 35 1 34 24
M  V30 36 1 35 2
M  V30 37 1 36 3
M  V30 38 1 4 37 CFG=3
M  V30 39 1 38 6
M  V30 40 1 39 7
M  V30 41 1 8 40 CFG=3
M  V30 42 1 41 10
M  V30 43 1 42 10
M  V30 44 1 43 12
M  V30 45 1 44 12
M  V30 46 1 45 12
M  V30 47 1 46 13
M  V30 48 1 15 47 CFG=3
M  V30 49 1 48 16
M  V30 50 1 49 16
M  V30 51 1 17 50 CFG=1
M  V30 52 1 51 18
M  V30 53 1 52 20
M  V30 54 1 53 20
M  V30 55 1 54 21
M  V30 56 1 55 21
M  V30 57 1 56 21
M  V30 58 1 57 22
M  V30 59 1 58 22
M  V30 60 1 59 23
M  V30 61 1 60 23
M  V30 62 1 61 23
M  V30 63 1 62 24
M  V30 64 1 63 24
M  V30 65 1 64 26
M  V30 66 1 65 30
M  V30 67 1 66 30
M  V30 68 1 67 31
M  V30 69 1 68 31
M  V30 70 1 32 69 CFG=3
M  V30 71 1 70 34
M  V30 72 1 71 6
M  V30 73 1 72 18
M  V30 74 1 73 30
M  V30 END BOND
M  V30 END CTAB
M  END
>  <i_epik_Tot_Q>  (1) 
1

>  <i_epik_Tot_abs_Q>  (1) 
3

>  <i_i_glide_confnum>  (1) 
4119

>  <i_i_glide_lignum>  (1) 
34

>  <i_i_glide_posenum>  (1) 
138

>  <i_i_glide_rotatable_bonds>  (1) 
15

>  <i_lp_mmshare_version>  (1) 
72125

>  <i_m_source_file_index>  (1) 
11

>  <i_f3d_flags>  (1) 
0

>  <num_sample>  (1) 
50

>  <b_lp_Chiralities_Consistent>  (1) 
1

>  <r_epik_Charging_Adjusted_Penalty>  (1) 
2.168687317063887

>  <r_epik_Ionization_Penalty>  (1) 
1.1047352072338965

>  <r_epik_Ionization_Penalty_Charging>  (1) 
1.0999234457570315

>  <r_epik_Ionization_Penalty_Neutral>  (1) 
0.0048117614768649203

>  <r_epik_State_Penalty>  (1) 
1.0687638713068555

>  <r_glide_ring_energy>  (1) 
0

>  <r_i_docking_score>  (1) 
-4.4234086647867521

>  <r_i_glide_ecoul>  (1) 
-11.377919312249002

>  <r_i_glide_eff_state_penalty>  (1) 
1.0687638713068555

>  <r_i_glide_einternal>  (1) 
11.406720603074186

>  <r_i_glide_emodel>  (1) 
-52.399915006387729

>  <r_i_glide_emodel_strain>  (1) 
2.9654310711476626

>  <r_i_glide_energy>  (1) 
-36.393388362901057

>  <r_i_glide_erotb>  (1) 
0.57553451871204087

>  <r_i_glide_esite>  (1) 
-0.27031399646776227

>  <r_i_glide_evdw>  (1) 
-25.015469050652055

>  <r_i_glide_gscore>  (1) 
-5.4921725360936078

>  <r_i_glide_gscore_strain>  (1) 
0

>  <r_i_glide_hbond>  (1) 
-0.42007032981185005

>  <r_i_glide_ligand_efficiency>  (1) 
-0.13010025484666918

>  <r_i_glide_ligand_efficiency_ln>  (1) 
-0.97725504646182826

>  <r_i_glide_ligand_efficiency_sa>  (1) 
-0.42147432095047765

>  <r_i_glide_lipo>  (1) 
-1.1046474481286852

>  <r_i_glide_metal>  (1) 
-0

>  <r_i_glide_rewards>  (1) 
-1.3152139310273974

>  <r_lp_Energy>  (1) 
23.104900000000001

>  <s_epik_Chemistry_Notes>  (1) 
This compound has an imine and may undergo hydrolysis. This compound contains an acetal/aminal-like group ( X-CH(R)-Y where X, Y are N, S, or O) that may be acid/base labile, releasing an aldehyde.

>  <s_epik_cmdline>  (1) 
J2VwaWtfcHl0aG9uJywgJy1waHQnLCAnMS4wJywgJy1waCcsICc3LjQnLCAnLXRuJywgJzgnLCAnLW1hJywgJzUwMCcsICctaW1hZScsICc8aW5maWxlLm1hZT4nLCAnLW9tYWUnLCAnPG91dGZpbGUubWFlPic=

>  <s_epik_input>  (1) 
W1NIXVMoPU8pKD1PKVtDQEBdMShbQ0gyXVtDSDNdKVtDQEBdKFtDSDNdKShbQ0BASF0xW09IXSlPW0NASF0oW0NAQEhdMltDSDNdKVtOSF1bQ0BASF0oRilbQ0BIXTJbQ0gyXVxbQ0hdPVtDSF1cQyhbQ0gyXVtOSDJdKT1OL0MoPU4vW0hdKS9bQ0gyXVtDSDJdW0NIMl1bTkhdW0NIMl1bT0hd

>  <s_glide_docking_method>  (1) 
confgen

>  <s_i_glide_gridfile>  (1) 
gpcr_drd2_6luq_protein_autoprepared_prepared

>  <s_lp_Force_Field>  (1) 
S-OPLS

>  <s_lp_Variant>  (1) 
DiffSBDD_10_num_sample_50-14

>  <s_m_source_file>  (1) 
generated__ligand_DiffSBDD_2026-05-06_prepared.sdf

>  <GenAI_Model>  (1) 
DiffSBDD

>  <Protein>  (1) 
generic_title2

$$$$
DiffSBDD_42_num_sample_50
     RDKit          3D

  0  0  0  0  0  0  0  0  0  0999 V3000
M  V30 BEGIN CTAB
M  V30 COUNTS 62 65 0 0 1
M  V30 BEGIN ATOM
M  V30 1 C 6.020731 6.351684 -18.583693 0 CFG=2
M  V30 2 S 8.619899 2.248124 -16.711293 0
M  V30 3 C 11.326784 7.910517 -9.259117 0
M  V30 4 O 10.181696 4.969213 -15.505933 0
M  V30 5 C 5.772971 7.659245 -17.874212 0
M  V30 6 O 7.563399 1.180409 -15.898538 0
M  V30 7 O 8.408699 2.056789 -18.213982 0
M  V30 8 C 9.417168 6.642327 -8.405751 0
M  V30 9 C 6.769255 4.764153 -14.365872 0 CFG=2
M  V30 10 N 9.949386 6.571407 -10.835893 0
M  V30 11 O 7.918081 3.738498 -16.240236 0
M  V30 12 C 3.369047 7.440526 -17.118754 0
M  V30 13 C 5.306839 6.103922 -16.167457 0 CFG=1
M  V30 14 F 11.055215 8.404787 -5.628810 0
M  V30 15 C 10.841692 6.682259 -11.891666 0
M  V30 16 C 5.075078 8.558288 -15.627712 0
M  V30 17 C 6.992954 4.885158 -12.832363 0
M  V30 18 C 5.583686 5.369302 -17.519244 0
M  V30 19 N 9.423930 5.553932 -13.436698 0
M  V30 20 C 10.629497 6.169346 -13.091641 0
M  V30 21 C 10.787802 7.962977 -6.881393 0
M  V30 22 C 8.715157 5.765013 -10.980575 0
M  V30 23 C 8.037199 4.090678 -14.875558 0 CFG=1
M  V30 24 C 10.224391 7.041625 -9.503982 0
M  V30 25 C 9.699677 7.105910 -7.105831 0
M  V30 26 C 8.287078 5.664317 -12.484018 0 CFG=2
M  V30 27 C 6.460493 6.102487 -15.103107 0
M  V30 28 F 7.328964 6.208059 -18.818826 0
M  V30 29 C 5.307246 6.210793 -19.933865 0
M  V30 30 C 9.305092 4.928343 -14.638736 0
M  V30 31 C 4.854484 7.469586 -16.677813 0
M  V30 32 C 11.600174 8.362672 -7.954018 0
M  V30 33 H 11.959748 8.238152 -10.063587 0
M  V30 34 H 5.454888 8.480877 -18.523362 0
M  V30 35 H 6.746860 7.769298 -17.419731 0
M  V30 36 H 7.335204 0.477366 -16.488281 0
M  V30 37 H 8.579204 5.983458 -8.552266 0
M  V30 38 H 5.928005 4.090891 -14.517797 0
M  V30 39 H 3.068390 6.479696 -17.531045 0
M  V30 40 H 2.692639 7.654324 -16.292485 0
M  V30 41 H 3.157354 8.169275 -17.896444 0
M  V30 42 H 4.429003 5.769301 -15.637959 0
M  V30 43 H 11.769035 7.160738 -11.648576 0
M  V30 44 H 6.139712 8.749537 -15.491598 0
M  V30 45 H 4.634802 9.497663 -15.891653 0
M  V30 46 H 4.635576 8.281217 -14.670655 0
M  V30 47 H 7.048522 3.887383 -12.394113 0
M  V30 48 H 6.129956 5.360020 -12.363420 0
M  V30 49 H 6.253764 4.528079 -17.491361 0
M  V30 50 H 4.654237 4.974305 -17.891693 0
M  V30 51 H 11.359769 6.206577 -13.888227 0
M  V30 52 H 8.914824 4.765008 -10.594790 0
M  V30 53 H 7.865172 6.169141 -10.434997 0
M  V30 54 H 8.173298 3.173183 -14.300099 0
M  V30 55 H 9.074767 6.802332 -6.279442 0
M  V30 56 H 7.981855 6.692328 -12.691334 0
M  V30 57 H 6.190422 6.780028 -14.297374 0
M  V30 58 H 7.357477 6.535874 -15.542306 0
M  V30 59 H 4.234811 6.338767 -19.831775 0
M  V30 60 H 5.661230 6.959806 -20.641727 0
M  V30 61 H 5.488397 5.228994 -20.370959 0
M  V30 62 H 12.437707 9.021351 -7.777636 0
M  V30 END ATOM
M  V30 BEGIN BOND
M  V30 1 1 5 1
M  V30 2 1 2 6 CFG=1
M  V30 3 2 7 2
M  V30 4 1 11 2
M  V30 5 1 15 10
M  V30 6 1 17 9
M  V30 7 1 18 1
M  V30 8 1 18 13
M  V30 9 2 20 15
M  V30 10 1 20 19
M  V30 11 1 21 14
M  V30 12 1 22 10
M  V30 13 1 23 9
M  V30 14 1 23 11
M  V30 15 2 24 3
M  V30 16 1 24 8
M  V30 17 1 24 10
M  V30 18 2 25 8
M  V30 19 1 25 21
M  V30 20 1 26 17
M  V30 21 1 26 19
M  V30 22 1 26 22
M  V30 23 1 27 9
M  V30 24 1 27 13
M  V30 25 1 1 28 CFG=3
M  V30 26 1 29 1
M  V30 27 2 30 4
M  V30 28 1 30 19
M  V30 29 1 30 23
M  V30 30 1 31 5
M  V30 31 1 31 12
M  V30 32 1 31 13
M  V30 33 1 31 16
M  V30 34 1 32 3
M  V30 35 2 32 21
M  V30 36 1 33 3
M  V30 37 1 34 5
M  V30 38 1 35 5
M  V30 39 1 36 6
M  V30 40 1 37 8
M  V30 41 1 9 38 CFG=1
M  V30 42 1 39 12
M  V30 43 1 40 12
M  V30 44 1 41 12
M  V30 45 1 13 42 CFG=1
M  V30 46 1 43 15
M  V30 47 1 44 16
M  V30 48 1 45 16
M  V30 49 1 46 16
M  V30 50 1 47 17
M  V30 51 1 48 17
M  V30 52 1 49 18
M  V30 53 1 50 18
M  V30 54 1 51 20
M  V30 55 1 52 22
M  V30 56 1 53 22
M  V30 57 1 23 54 CFG=1
M  V30 58 1 55 25
M  V30 59 1 26 56 CFG=3
M  V30 60 1 57 27
M  V30 61 1 58 27
M  V30 62 1 59 29
M  V30 63 1 60 29
M  V30 64 1 61 29
M  V30 65 1 62 32
M  V30 END BOND
M  V30 END CTAB
M  END
>  <i_epik_Tot_Q>  (1) 
0

>  <i_epik_Tot_abs_Q>  (1) 
0

>  <i_i_glide_confnum>  (1) 
167

>  <i_i_glide_lignum>  (1) 
105

>  <i_i_glide_posenum>  (1) 
180

>  <i_i_glide_rotatable_bonds>  (1) 
6

>  <i_lp_mmshare_version>  (1) 
72125

>  <i_m_source_file_index>  (1) 
43

>  <i_f3d_flags>  (1) 
0

>  <num_sample>  (1) 
50

>  <b_lp_Chiralities_Consistent>  (1) 
1

>  <r_epik_Charging_Adjusted_Penalty>  (1) 
7.4277235651080948e-06

>  <r_epik_Ionization_Penalty>  (1) 
7.4296713957726515e-06

>  <r_epik_Ionization_Penalty_Charging>  (1) 
7.4277235651080948e-06

>  <r_epik_Ionization_Penalty_Neutral>  (1) 
1.9478306645570326e-09

>  <r_epik_State_Penalty>  (1) 
-0

>  <r_glide_ring_energy>  (1) 
1.0716255147833267

>  <r_i_docking_score>  (1) 
-4.4207916020892499

>  <r_i_glide_ecoul>  (1) 
-0.67032172147743263

>  <r_i_glide_eff_state_penalty>  (1) 
-0

>  <r_i_glide_einternal>  (1) 
5.1435923193301747

>  <r_i_glide_emodel>  (1) 
-11.890247970837382

>  <r_i_glide_emodel_strain>  (1) 
3.6597232672256155

>  <r_i_glide_energy>  (1) 
-11.629943358527527

>  <r_i_glide_erotb>  (1) 
0.45981395595686525

>  <r_i_glide_esite>  (1) 
-0.045318531581513333

>  <r_i_glide_evdw>  (1) 
-10.959621637050095

>  <r_i_glide_gscore>  (1) 
-4.4207916020892499

>  <r_i_glide_gscore_strain>  (1) 
0

>  <r_i_glide_hbond>  (1) 
0

>  <r_i_glide_ligand_efficiency>  (1) 
-0.13814973756528906

>  <r_i_glide_ligand_efficiency_ln>  (1) 
-0.98993574593555789

>  <r_i_glide_ligand_efficiency_sa>  (1) 
-0.43859807748054114

>  <r_i_glide_lipo>  (1) 
-2.3023928485634313

>  <r_i_glide_metal>  (1) 
-0

>  <r_i_glide_rewards>  (1) 
-1.8843648378270508

>  <r_lp_Energy>  (1) 
34.324670999999995

>  <r_lp_tautomer_probability>  (1) 
1

>  <s_epik_Chemistry_Notes>  (1) 
This compound has an imine and may undergo hydrolysis.

>  <s_epik_cmdline>  (1) 
J2VwaWtfcHl0aG9uJywgJy1waHQnLCAnMS4wJywgJy1waCcsICc3LjQnLCAnLXRuJywgJzgnLCAnLW1hJywgJzUwMCcsICctaW1hZScsICc8aW5maWxlLm1hZT4nLCAnLW9tYWUnLCAnPG91dGZpbGUubWFlPic=

>  <s_epik_input>  (1) 
RltDQF0xKFtDSDNdKVtDSDJdQyhbQ0gzXSkoW0NIM10pW0NAQEhdKFtDSDJdMSlbQ0gyXVtDQEBIXShbQ0BIXShDMj1PKU9TKD1PKVtPSF0pW0NIMl1bQ0BIXShOMjMpW0NIMl1OKFtDSF09W0NIXTMpYyhbY0hdW2NIXTQpW2NIXVtjSF1jNEY=

>  <s_glide_docking_method>  (1) 
confgen

>  <s_i_glide_gridfile>  (1) 
gpcr_drd2_6luq_protein_autoprepared_prepared

>  <s_lp_Force_Field>  (1) 
S-OPLS

>  <s_lp_Variant>  (1) 
DiffSBDD_42_num_sample_50-1

>  <s_m_source_file>  (1) 
generated__ligand_DiffSBDD_2026-05-06_prepared.sdf

>  <GenAI_Model>  (1) 
DiffSBDD

>  <Protein>  (1) 
generic_title2

$$$$
DiffSBDD_22_num_sample_50
     RDKit          3D

  0  0  0  0  0  0  0  0  0  0999 V3000
M  V30 BEGIN CTAB
M  V30 COUNTS 53 56 0 0 1
M  V30 BEGIN ATOM
M  V30 1 C 7.734959 4.160875 -18.677741 0
M  V30 2 C 6.208264 6.251101 -14.712831 0
M  V30 3 O 5.789304 7.372198 -14.968142 0
M  V30 4 C 8.632240 2.800677 -16.906924 0 CFG=1
M  V30 5 C 6.584666 4.329707 -19.646276 0
M  V30 6 C 6.946463 5.435098 -15.759246 0
M  V30 7 C 5.969257 0.472464 -16.014537 0
M  V30 8 S 6.769259 1.440736 -13.577344 0
M  V30 9 C 6.831049 1.584479 -15.393490 0 CFG=1
M  V30 10 C 9.480282 4.034029 -16.422821 0 CFG=2
M  V30 11 C 8.879413 4.871320 -18.706878 0
M  V30 12 O 10.733496 5.857580 -17.511751 0
M  V30 13 C 8.260550 1.603693 -15.984740 0
M  V30 14 C 8.909171 4.937153 -13.558595 0 CFG=2
M  V30 15 C 6.004753 5.619379 -13.323825 0 CFG=1
M  V30 16 C 8.471750 6.103496 -12.646987 0
M  V30 17 S 8.686358 5.303917 -15.345850 0 CHG=1
M  V30 18 C 8.469742 3.562003 -13.023585 0
M  V30 19 C 5.621607 5.443805 -19.220179 0
M  V30 20 C 5.816680 4.086034 -13.338739 0
M  V30 21 C 10.010187 4.668690 -17.726015 0 CFG=1
M  V30 22 C 6.986645 6.126893 -12.255924 0
M  V30 23 C 6.984088 3.142454 -12.952536 0 CFG=1
M  V30 24 O 7.522068 3.176099 -17.734275 0
M  V30 25 H 9.307540 2.298331 -17.604327 0
M  V30 26 H 6.986174 4.542596 -20.639416 0
M  V30 27 H 6.049572 3.381518 -19.728408 0
M  V30 28 H 6.868720 5.945738 -16.718325 0
M  V30 29 H 6.494257 4.467869 -15.891456 0
M  V30 30 H 5.890637 0.595391 -17.095326 0
M  V30 31 H 4.956369 0.482982 -15.607567 0
M  V30 32 H 6.390563 -0.516049 -15.827772 0
M  V30 33 H 6.340657 2.501261 -15.666077 0
M  V30 34 H 10.386674 3.769503 -15.892712 0
M  V30 35 H 9.020710 5.630597 -19.462882 0
M  V30 36 H 11.616792 5.645899 -17.241445 0
M  V30 37 H 8.317250 0.725299 -16.630219 0
M  V30 38 H 9.031388 1.372175 -15.258303 0
M  V30 39 H 9.995782 4.938106 -13.475920 0
M  V30 40 H 5.035307 6.006813 -13.018564 0
M  V30 41 H 9.054115 6.065698 -11.725596 0
M  V30 42 H 8.735075 7.060259 -13.092552 0
M  V30 43 H 9.030967 2.771838 -13.494138 0
M  V30 44 H 8.851867 3.510632 -12.001242 0
M  V30 45 H 4.807343 5.548521 -19.937984 0
M  V30 46 H 6.131187 6.406186 -19.156152 0
M  V30 47 H 5.181981 5.230690 -18.246071 0
M  V30 48 H 4.990398 3.859394 -12.664204 0
M  V30 49 H 5.418066 3.794298 -14.291656 0
M  V30 50 H 10.710855 3.984720 -18.208458 0
M  V30 51 H 6.717193 7.145446 -11.971297 0
M  V30 52 H 6.847094 5.544355 -11.344623 0
M  V30 53 H 6.812103 3.009587 -11.891572 0
M  V30 END ATOM
M  V30 BEGIN BOND
M  V30 1 2 3 2
M  V30 2 1 5 1
M  V30 3 1 6 2
M  V30 4 1 9 7
M  V30 5 1 9 8
M  V30 6 1 10 4
M  V30 7 2 11 1
M  V30 8 1 13 4
M  V30 9 1 13 9
M  V30 10 1 15 2
M  V30 11 1 16 14
M  V30 12 1 17 6 CFG=3
M  V30 13 1 17 10
M  V30 14 1 17 14
M  V30 15 1 18 14
M  V30 16 1 19 5
M  V30 17 1 20 15
M  V30 18 1 21 10
M  V30 19 1 21 11
M  V30 20 1 21 12
M  V30 21 1 22 15
M  V30 22 1 22 16
M  V30 23 1 23 8
M  V30 24 1 23 18
M  V30 25 1 23 20
M  V30 26 1 24 1
M  V30 27 1 24 4
M  V30 28 1 4 25 CFG=3
M  V30 29 1 26 5
M  V30 30 1 27 5
M  V30 31 1 28 6
M  V30 32 1 29 6
M  V30 33 1 30 7
M  V30 34 1 31 7
M  V30 35 1 32 7
M  V30 36 1 9 33 CFG=1
M  V30 37 1 10 34 CFG=1
M  V30 38 1 35 11
M  V30 39 1 36 12
M  V30 40 1 37 13
M  V30 41 1 38 13
M  V30 42 1 14 39 CFG=3
M  V30 43 1 15 40 CFG=1
M  V30 44 1 41 16
M  V30 45 1 42 16
M  V30 46 1 43 18
M  V30 47 1 44 18
M  V30 48 1 45 19
M  V30 49 1 46 19
M  V30 50 1 47 19
M  V30 51 1 48 20
M  V30 52 1 49 20
M  V30 53 1 21 50 CFG=3
M  V30 54 1 51 22
M  V30 55 1 52 22
M  V30 56 1 23 53 CFG=1
M  V30 END BOND
M  V30 END CTAB
M  END
>  <i_epik_Tot_Q>  (1) 
1

>  <i_epik_Tot_abs_Q>  (1) 
1

>  <i_i_glide_confnum>  (1) 
1

>  <i_i_glide_lignum>  (1) 
60

>  <i_i_glide_posenum>  (1) 
22

>  <i_i_glide_rotatable_bonds>  (1) 
2

>  <i_lp_mmshare_version>  (1) 
72125

>  <i_m_source_file_index>  (1) 
23

>  <i_f3d_flags>  (1) 
0

>  <num_sample>  (1) 
50

>  <b_lp_Chiralities_Consistent>  (1) 
1

>  <r_epik_Charging_Adjusted_Penalty>  (1) 
0.074119830427950756

>  <r_epik_Ionization_Penalty>  (1) 
0.0741198432157502

>  <r_epik_Ionization_Penalty_Charging>  (1) 
0

>  <r_epik_Ionization_Penalty_Neutral>  (1) 
0.0741198432157502

>  <r_epik_State_Penalty>  (1) 
0.074119830427950756

>  <r_glide_ring_energy>  (1) 
0

>  <r_i_docking_score>  (1) 
-4.4171119797295884

>  <r_i_glide_ecoul>  (1) 
-1.8679789012041801

>  <r_i_glide_eff_state_penalty>  (1) 
0.074119830427950756

>  <r_i_glide_einternal>  (1) 
0.38057512039092856

>  <r_i_glide_emodel>  (1) 
-26.663618405725515

>  <r_i_glide_emodel_strain>  (1) 
0.0049400318365613316

>  <r_i_glide_energy>  (1) 
-20.871929870790972

>  <r_i_glide_erotb>  (1) 
0

>  <r_i_glide_esite>  (1) 
0

>  <r_i_glide_evdw>  (1) 
-19.003950969586793

>  <r_i_glide_gscore>  (1) 
-4.4912318101575393

>  <r_i_glide_gscore_strain>  (1) 
0

>  <r_i_glide_hbond>  (1) 
0

>  <r_i_glide_ligand_efficiency>  (1) 
-0.18404633248873284

>  <r_i_glide_ligand_efficiency_ln>  (1) 
-1.0572175848107095

>  <r_i_glide_ligand_efficiency_sa>  (1) 
-0.53088148789705869

>  <r_i_glide_lipo>  (1) 
-1.7226805520117119

>  <r_i_glide_metal>  (1) 
-0

>  <r_i_glide_rewards>  (1) 
-1.53815687448586

>  <r_lp_Energy>  (1) 
36.408808000000001

>  <s_epik_cmdline>  (1) 
J2VwaWtfcHl0aG9uJywgJy1waHQnLCAnMS4wJywgJy1waCcsICc3LjQnLCAnLXRuJywgJzgnLCAnLW1hJywgJzUwMCcsICctaW1hZScsICc8aW5maWxlLm1hZT4nLCAnLW9tYWUnLCAnPG91dGZpbGUubWFlPic=

>  <s_epik_input>  (1) 
W0NIM11bQ0gyXUMoTzEpPVtDSF1bQ0BASF0oW09IXSlbQ0BIXShbQ0BIXTEyKVtTK10zW0NASF00W0NIMl1bQ0gyXVtDQEBIXShDKD1PKVtDSDJdMylbQ0gyXVtDQEhdKFtDSDJdNClTW0NASF0oW0NIM10pW0NIMl0y

>  <s_glide_docking_method>  (1) 
confgen

>  <s_i_glide_gridfile>  (1) 
gpcr_drd2_6luq_protein_autoprepared_prepared

>  <s_lp_Force_Field>  (1) 
S-OPLS

>  <s_lp_Variant>  (1) 
DiffSBDD_22_num_sample_50-1

>  <s_m_source_file>  (1) 
generated__ligand_DiffSBDD_2026-05-06_prepared.sdf

>  <GenAI_Model>  (1) 
DiffSBDD

>  <Protein>  (1) 
generic_title2

$$$$
DiffSBDD_10_num_sample_50
     RDKit          3D

  0  0  0  0  0  0  0  0  0  0999 V3000
M  V30 BEGIN CTAB
M  V30 COUNTS 72 73 0 0 1
M  V30 BEGIN ATOM
M  V30 1 C 13.179414 1.633571 -19.781845 0 CFG=2
M  V30 2 C 8.188153 4.197110 -11.532506 0
M  V30 3 C 8.030699 3.474244 -14.698860 0
M  V30 4 C 9.134969 4.371640 -18.083997 0 CFG=1
M  V30 5 C 12.642910 2.944745 -20.391531 0 CFG=2
M  V30 6 N 6.004822 5.070441 -12.094928 0
M  V30 7 N 9.551318 3.417147 -20.244511 0
M  V30 8 C 10.650848 4.272385 -19.946820 0 CFG=1
M  V30 9 S 14.879907 1.026700 -20.291671 0
M  V30 10 C 8.661797 5.418869 -10.768675 0
M  V30 11 S 14.324978 -0.962289 -20.758261 0 CHG=-1
M  V30 12 C 13.445109 2.029129 -17.262911 0
M  V30 13 O 9.034810 7.638496 -6.703289 0
M  V30 14 O 15.326430 1.653905 -21.544152 0
M  V30 15 C 12.269884 1.600187 -20.996620 0 CFG=2
M  V30 16 C 6.644718 1.287753 -14.622263 0
M  V30 17 C 8.882255 3.143733 -18.985702 0 CFG=2
M  V30 18 N 9.034943 6.412918 -8.540964 0 CHG=1
M  V30 19 N 6.596875 2.944317 -12.807350 0
M  V30 20 C 8.777416 5.155084 -9.263295 0
M  V30 21 C 11.349434 5.860535 -18.065338 0
M  V30 22 C 12.788980 1.189664 -18.370663 0
M  V30 23 C 13.550805 3.971472 -21.055151 0
M  V30 24 C 9.548570 3.990084 -16.651624 0
M  V30 25 C 7.059764 2.608528 -13.955512 0
M  V30 26 O 10.986304 1.070848 -20.722033 0
M  V30 27 C 6.975854 4.091792 -12.117222 0
M  V30 28 O 15.778273 0.968517 -19.127452 0
M  V30 29 F 7.583852 2.926394 -19.193293 0
M  V30 30 N 5.608472 0.568920 -13.891426 0
M  V30 31 C 9.033698 6.281397 -7.076209 0
M  V30 32 C 10.178524 5.222061 -18.844937 0 CFG=2
M  V30 33 O 11.735495 3.536817 -19.455437 0
M  V30 34 C 8.544708 3.135046 -15.897374 0
M  V30 35 H 8.885194 3.371941 -11.598537 0
M  V30 36 H 8.311297 4.399208 -14.219751 0
M  V30 37 H 8.216553 4.957159 -18.019076 0
M  V30 38 H 6.133447 5.939867 -11.594470 0
M  V30 39 H 9.886274 2.533622 -20.628523 0
M  V30 40 H 10.943067 4.825520 -20.838348 0
M  V30 41 H 7.981444 6.251739 -10.943648 0
M  V30 42 H 9.626029 5.725058 -11.176101 0
M  V30 43 H 13.036402 1.767608 -16.291664 0
M  V30 44 H 14.521195 1.880166 -17.207090 0
M  V30 45 H 13.262755 3.092760 -17.407608 0
M  V30 46 H 8.129301 7.875320 -6.531894 0
M  V30 47 H 12.668513 1.314645 -21.968429 0
M  V30 48 H 6.274357 1.479959 -15.629606 0
M  V30 49 H 7.520580 0.643312 -14.709378 0
M  V30 50 H 9.308756 2.237391 -18.553327 0
M  V30 51 H 8.277212 7.049654 -8.798740 0
M  V30 52 H 9.573972 4.439235 -9.055961 0
M  V30 53 H 7.844321 4.725051 -8.893638 0
M  V30 54 H 11.955894 5.120285 -17.544800 0
M  V30 55 H 12.008307 6.408574 -18.738779 0
M  V30 56 H 10.995325 6.568083 -17.318127 0
M  V30 57 H 11.707128 1.255507 -18.256616 0
M  V30 58 H 13.045810 0.137436 -18.244793 0
M  V30 59 H 13.933176 3.600491 -22.004231 0
M  V30 60 H 13.023010 4.899292 -21.266561 0
M  V30 61 H 14.390272 4.205402 -20.399818 0
M  V30 62 H 9.747095 4.889287 -16.066583 0
M  V30 63 H 10.485692 3.433447 -16.690863 0
M  V30 64 H 11.085235 0.135354 -20.610748 0
M  V30 65 H 5.460529 -0.358886 -14.271852 0
M  V30 66 H 5.911523 0.427626 -12.937968 0
M  V30 67 H 9.930373 5.771771 -6.722988 0
M  V30 68 H 8.143156 5.773736 -6.701372 0
M  V30 69 H 9.637943 6.024743 -19.348574 0
M  V30 70 H 8.254308 2.208785 -16.369106 0
M  V30 71 H 5.101168 4.928445 -12.520092 0
M  V30 72 H 9.906827 6.820919 -8.841118 0
M  V30 END ATOM
M  V30 BEGIN BOND
M  V30 1 1 5 1
M  V30 2 1 8 7
M  V30 3 1 9 1
M  V30 4 1 10 2
M  V30 5 1 11 9
M  V30 6 2 14 9
M  V30 7 1 15 1
M  V30 8 1 15 5
M  V30 9 1 17 4
M  V30 10 1 17 7
M  V30 11 1 20 10
M  V30 12 1 20 18
M  V30 13 1 1 22 CFG=1
M  V30 14 1 22 12
M  V30 15 1 23 5
M  V30 16 1 24 4
M  V30 17 1 25 3
M  V30 18 1 25 16
M  V30 19 2 25 19
M  V30 20 1 26 15
M  V30 21 2 27 2
M  V30 22 1 27 6
M  V30 23 1 27 19
M  V30 24 2 28 9
M  V30 25 1 29 17
M  V30 26 1 30 16
M  V30 27 1 31 13
M  V30 28 1 31 18
M  V30 29 1 32 4
M  V30 30 1 32 8
M  V30 31 1 32 21
M  V30 32 1 5 33 CFG=1
M  V30 33 1 33 8
M  V30 34 2 34 3
M  V30 35 1 34 24
M  V30 36 1 35 2
M  V30 37 1 36 3
M  V30 38 1 4 37 CFG=1
M  V30 39 1 38 6
M  V30 40 1 39 7
M  V30 41 1 8 40 CFG=3
M  V30 42 1 41 10
M  V30 43 1 42 10
M  V30 44 1 43 12
M  V30 45 1 44 12
M  V30 46 1 45 12
M  V30 47 1 46 13
M  V30 48 1 15 47 CFG=3
M  V30 49 1 48 16
M  V30 50 1 49 16
M  V30 51 1 17 50 CFG=1
M  V30 52 1 51 18
M  V30 53 1 52 20
M  V30 54 1 53 20
M  V30 55 1 54 21
M  V30 56 1 55 21
M  V30 57 1 56 21
M  V30 58 1 57 22
M  V30 59 1 58 22
M  V30 60 1 59 23
M  V30 61 1 60 23
M  V30 62 1 61 23
M  V30 63 1 62 24
M  V30 64 1 63 24
M  V30 65 1 64 26
M  V30 66 1 65 30
M  V30 67 1 66 30
M  V30 68 1 67 31
M  V30 69 1 68 31
M  V30 70 1 32 69 CFG=3
M  V30 71 1 70 34
M  V30 72 1 71 6
M  V30 73 1 72 18
M  V30 END BOND
M  V30 END CTAB
M  END
>  <i_epik_Tot_Q>  (1) 
0

>  <i_epik_Tot_abs_Q>  (1) 
2

>  <i_i_glide_confnum>  (1) 
29

>  <i_i_glide_lignum>  (1) 
26

>  <i_i_glide_posenum>  (1) 
377

>  <i_i_glide_rotatable_bonds>  (1) 
15

>  <i_lp_mmshare_version>  (1) 
72125

>  <i_m_source_file_index>  (1) 
11

>  <i_f3d_flags>  (1) 
0

>  <num_sample>  (1) 
50

>  <b_lp_Chiralities_Consistent>  (1) 
1

>  <r_epik_Charging_Adjusted_Penalty>  (1) 
0.33639934582642134

>  <r_epik_Ionization_Penalty>  (1) 
0.23315943830934333

>  <r_epik_Ionization_Penalty_Charging>  (1) 
0.10316865490585193

>  <r_epik_Ionization_Penalty_Neutral>  (1) 
0.12999078340349141

>  <r_epik_State_Penalty>  (1) 
0.23323069092056939

>  <r_glide_ring_energy>  (1) 
0

>  <r_i_docking_score>  (1) 
-4.4123040362550503

>  <r_i_glide_ecoul>  (1) 
-8.4226542635283064

>  <r_i_glide_eff_state_penalty>  (1) 
0.23323069092056939

>  <r_i_glide_einternal>  (1) 
3.817703455116586

>  <r_i_glide_emodel>  (1) 
-50.22236910532343

>  <r_i_glide_emodel_strain>  (1) 
0.28741768253752298

>  <r_i_glide_energy>  (1) 
-37.103956355038932

>  <r_i_glide_erotb>  (1) 
0.57757419641111274

>  <r_i_glide_esite>  (1) 
-0.17908971452489306

>  <r_i_glide_evdw>  (1) 
-28.681302091510624

>  <r_i_glide_gscore>  (1) 
-4.6455347271756198

>  <r_i_glide_gscore_strain>  (1) 
0

>  <r_i_glide_hbond>  (1) 
-0.2941753863680221

>  <r_i_glide_ligand_efficiency>  (1) 
-0.12977364812514855

>  <r_i_glide_ligand_efficiency_ln>  (1) 
-0.97480172254489528

>  <r_i_glide_ligand_efficiency_sa>  (1) 
-0.42041624196106281

>  <r_i_glide_lipo>  (1) 
-0.86846885752733738

>  <r_i_glide_metal>  (1) 
-0

>  <r_i_glide_rewards>  (1) 
-1.1839117210617018

>  <r_lp_Energy>  (1) 
25.865628999999998

>  <s_epik_Chemistry_Notes>  (1) 
This compound has an imine and may undergo hydrolysis. This compound contains an acetal/aminal-like group ( X-CH(R)-Y where X, Y are N, S, or O) that may be acid/base labile, releasing an aldehyde.

>  <s_epik_cmdline>  (1) 
J2VwaWtfcHl0aG9uJywgJy1waHQnLCAnMS4wJywgJy1waCcsICc3LjQnLCAnLXRuJywgJzgnLCAnLW1hJywgJzUwMCcsICctaW1hZScsICc8aW5maWxlLm1hZT4nLCAnLW9tYWUnLCAnPG91dGZpbGUubWFlPic=

>  <s_epik_input>  (1) 
W1NIXVMoPU8pKD1PKVtDQEBdMShbQ0gyXVtDSDNdKVtDQEBdKFtDSDNdKShbQ0BASF0xW09IXSlPW0NASF0oW0NAQEhdMltDSDNdKVtOSF1bQ0BASF0oRilbQ0BIXTJbQ0gyXVxbQ0hdPVtDSF1cQyhbQ0gyXVtOSDJdKT1OL0MoPU4vW0hdKS9bQ0gyXVtDSDJdW0NIMl1bTkhdW0NIMl1bT0hd

>  <s_glide_docking_method>  (1) 
confgen

>  <s_i_glide_gridfile>  (1) 
gpcr_drd2_6luq_protein_autoprepared_prepared

>  <s_lp_Force_Field>  (1) 
S-OPLS

>  <s_lp_Variant>  (1) 
DiffSBDD_10_num_sample_50-6

>  <s_m_source_file>  (1) 
generated__ligand_DiffSBDD_2026-05-06_prepared.sdf

>  <GenAI_Model>  (1) 
DiffSBDD

>  <Protein>  (1) 
generic_title2

$$$$
DiffSBDD_43_num_sample_50
     RDKit          3D

  0  0  0  0  0  0  0  0  0  0999 V3000
M  V30 BEGIN CTAB
M  V30 COUNTS 59 59 0 0 1
M  V30 BEGIN ATOM
M  V30 1 C 7.372011 4.169394 -11.988999 0
M  V30 2 C 10.533166 7.283008 -6.243641 0
M  V30 3 N 5.034525 5.724011 -19.487044 0
M  V30 4 O 6.419416 6.667453 -15.650253 0
M  V30 5 C 8.625584 5.596375 -10.290420 0
M  V30 6 C 10.474106 6.798428 -8.840234 0 CFG=2
M  V30 7 C 6.770549 7.112474 -13.251431 0 CFG=1
M  V30 8 O 9.140259 8.569306 -7.769448 0
M  V30 9 O 11.434832 9.769344 -3.863775 0
M  V30 10 N 6.916612 6.532621 -11.891659 0 CHG=1
M  V30 11 C 11.434792 9.165878 -4.873711 0
M  V30 12 F 7.834841 7.873511 -13.481466 0
M  V30 13 O 6.233683 3.960660 -11.509874 0
M  V30 14 C 6.922855 6.162191 -21.052147 0
M  V30 15 C 5.422849 6.460789 -18.288626 0 CFG=1
M  V30 16 C 6.646189 6.068443 -14.386507 0
M  V30 17 C 8.001317 5.540099 -11.712598 0 CFG=2
M  V30 18 C 9.614092 6.772974 -10.138673 0
M  V30 19 O 7.098367 5.792563 -16.670387 0
M  V30 20 C 9.724503 7.301564 -7.570420 0 CFG=2
M  V30 21 F 4.748819 5.672038 -21.715962 0
M  V30 22 C 6.891270 6.278014 -17.931214 0
M  V30 23 C 11.438643 8.489650 -5.997332 0
M  V30 24 O 8.031661 3.370616 -12.689555 0 CHG=-1
M  V30 25 C 7.931262 6.529729 -18.747163 0
M  V30 26 C 7.800294 7.052565 -20.164245 0
M  V30 27 C 11.834805 7.487293 -9.113226 0
M  V30 28 C 11.753512 8.960615 -9.508267 0
M  V30 29 F 5.103656 7.748282 -18.422452 0
M  V30 30 C 5.422848 6.311329 -20.760786 0 CFG=1
M  V30 31 H 9.834428 7.201758 -5.410844 0
M  V30 32 H 11.139935 6.377649 -6.202783 0
M  V30 33 H 5.329606 4.760427 -19.426855 0
M  V30 34 H 9.170915 4.668459 -10.108920 0
M  V30 35 H 7.849580 5.641114 -9.524158 0
M  V30 36 H 10.723495 5.760317 -8.624960 0
M  V30 37 H 5.900490 7.769300 -13.250694 0
M  V30 38 H 8.409916 8.445520 -8.371758 0
M  V30 39 H 6.083285 6.009299 -11.649451 0
M  V30 40 H 7.093460 6.453360 -22.089403 0
M  V30 41 H 7.234355 5.119062 -20.981680 0
M  V30 42 H 4.813734 6.087170 -17.465034 0
M  V30 43 H 7.567616 5.489048 -14.447084 0
M  V30 44 H 5.836014 5.364110 -14.191578 0
M  V30 45 H 8.793889 5.717423 -12.441537 0
M  V30 46 H 9.084051 7.717286 -10.265158 0
M  V30 47 H 10.292546 6.718338 -10.990629 0
M  V30 48 H 8.885231 6.619624 -7.424112 0
M  V30 49 H 12.098923 8.769590 -6.795610 0
M  V30 50 H 8.936456 6.355534 -18.392060 0
M  V30 51 H 7.416570 8.073227 -20.153379 0
M  V30 52 H 8.803120 7.107437 -20.588501 0
M  V30 53 H 12.514135 7.369357 -8.273381 0
M  V30 54 H 12.324040 6.969259 -9.933620 0
M  V30 55 H 12.710143 9.327351 -9.873216 0
M  V30 56 H 11.034702 9.064049 -10.306072 0
M  V30 57 H 11.434762 9.605522 -8.693615 0
M  V30 58 H 5.109958 7.354727 -20.821813 0
M  V30 59 H 7.034647 7.268452 -11.199354 0
M  V30 END ATOM
M  V30 BEGIN BOND
M  V30 1 1 10 7
M  V30 2 2 11 9
M  V30 3 1 12 7
M  V30 4 2 13 1
M  V30 5 1 15 3
M  V30 6 1 16 4
M  V30 7 1 16 7
M  V30 8 1 17 1
M  V30 9 1 17 5
M  V30 10 1 17 10
M  V30 11 1 18 5
M  V30 12 1 18 6
M  V30 13 1 19 4
M  V30 14 1 20 2
M  V30 15 1 20 6
M  V30 16 1 20 8
M  V30 17 1 22 15
M  V30 18 1 22 19
M  V30 19 1 23 2
M  V30 20 2 23 11
M  V30 21 1 24 1
M  V30 22 2 25 22
M  V30 23 1 26 14
M  V30 24 1 26 25
M  V30 25 1 27 6
M  V30 26 1 28 27
M  V30 27 1 29 15
M  V30 28 1 30 3
M  V30 29 1 30 14
M  V30 30 1 30 21
M  V30 31 1 31 2
M  V30 32 1 32 2
M  V30 33 1 33 3
M  V30 34 1 34 5
M  V30 35 1 35 5
M  V30 36 1 6 36 CFG=1
M  V30 37 1 7 37 CFG=1
M  V30 38 1 38 8
M  V30 39 1 39 10
M  V30 40 1 40 14
M  V30 41 1 41 14
M  V30 42 1 15 42 CFG=1
M  V30 43 1 43 16
M  V30 44 1 44 16
M  V30 45 1 17 45 CFG=3
M  V30 46 1 46 18
M  V30 47 1 47 18
M  V30 48 1 20 48 CFG=1
M  V30 49 1 49 23
M  V30 50 1 50 25
M  V30 51 1 51 26
M  V30 52 1 52 26
M  V30 53 1 53 27
M  V30 54 1 54 27
M  V30 55 1 55 28
M  V30 56 1 56 28
M  V30 57 1 57 28
M  V30 58 1 30 58 CFG=1
M  V30 59 1 59 10
M  V30 END BOND
M  V30 END CTAB
M  END
>  <i_epik_Tot_Q>  (1) 
0

>  <i_epik_Tot_abs_Q>  (1) 
2

>  <i_i_glide_confnum>  (1) 
1905

>  <i_i_glide_lignum>  (1) 
109

>  <i_i_glide_posenum>  (1) 
232

>  <i_i_glide_rotatable_bonds>  (1) 
15

>  <i_lp_mmshare_version>  (1) 
72125

>  <i_m_source_file_index>  (1) 
44

>  <i_f3d_flags>  (1) 
0

>  <num_sample>  (1) 
50

>  <b_lp_Chiralities_Consistent>  (1) 
1

>  <r_epik_Charging_Adjusted_Penalty>  (1) 
2.1322098409762558

>  <r_epik_Ionization_Penalty>  (1) 
1.0661195873001319

>  <r_epik_Ionization_Penalty_Charging>  (1) 
1.0661068903442914

>  <r_epik_Ionization_Penalty_Neutral>  (1) 
1.2696955840525338e-05

>  <r_epik_State_Penalty>  (1) 
1.0661029506319644

>  <r_glide_ring_energy>  (1) 
0

>  <r_i_docking_score>  (1) 
-4.4097411004353608

>  <r_i_glide_ecoul>  (1) 
-7.4688772483279688

>  <r_i_glide_eff_state_penalty>  (1) 
1.0661029506319644

>  <r_i_glide_einternal>  (1) 
18.382927216909206

>  <r_i_glide_emodel>  (1) 
-40.071729377730598

>  <r_i_glide_emodel_strain>  (1) 
2.1767854204759232

>  <r_i_glide_energy>  (1) 
-37.449990474030628

>  <r_i_glide_erotb>  (1) 
1.1415552716364241

>  <r_i_glide_esite>  (1) 
-0.10288557986380026

>  <r_i_glide_evdw>  (1) 
-29.981113225702661

>  <r_i_glide_gscore>  (1) 
-5.475844051067325

>  <r_i_glide_gscore_strain>  (1) 
0

>  <r_i_glide_hbond>  (1) 
-0.35965609438285617

>  <r_i_glide_ligand_efficiency>  (1) 
-0.14699137001451204

>  <r_i_glide_ligand_efficiency_ln>  (1) 
-1.0019412259965441

>  <r_i_glide_ligand_efficiency_sa>  (1) 
-0.45673636300378317

>  <r_i_glide_lipo>  (1) 
-2.0851134662337123

>  <r_i_glide_metal>  (1) 
-0

>  <r_i_glide_rewards>  (1) 
-1.4503569336890521

>  <r_lp_Energy>  (1) 
6.4317659999999997

>  <s_epik_cmdline>  (1) 
J2VwaWtfcHl0aG9uJywgJy1waHQnLCAnMS4wJywgJy1waCcsICc3LjQnLCAnLXRuJywgJzgnLCAnLW1hJywgJzUwMCcsICctaW1hZScsICc8aW5maWxlLm1hZT4nLCAnLW9tYWUnLCAnPG91dGZpbGUubWFlPic=

>  <s_epik_input>  (1) 
Tz1DPVtDSF1bQ0gyXVtDQEBIXShbT0hdKVtDQEhdKFtDSDJdW0NIM10pW0NIMl1bQ0gyXVtDQEBIXShDKD1PKVtPSF0pW05IXVtDQEBIXShGKVtDSDJdT09DMT1bQ0hdW0NIMl1bQ0gyXVtDQEBIXShGKVtOSF1bQ0BIXTFG

>  <s_glide_docking_method>  (1) 
confgen

>  <s_i_glide_gridfile>  (1) 
gpcr_drd2_6luq_protein_autoprepared_prepared

>  <s_lp_Force_Field>  (1) 
S-OPLS

>  <s_lp_Variant>  (1) 
DiffSBDD_43_num_sample_50-4

>  <s_m_source_file>  (1) 
generated__ligand_DiffSBDD_2026-05-06_prepared.sdf

>  <GenAI_Model>  (1) 
DiffSBDD

>  <Protein>  (1) 
generic_title2

$$$$
DiffSBDD_8_num_sample_50
     RDKit          3D

  0  0  0  0  0  0  0  0  0  0999 V3000
M  V30 BEGIN CTAB
M  V30 COUNTS 63 68 0 0 1
M  V30 BEGIN ATOM
M  V30 1 C 8.808995 6.103478 -10.990602 0 CFG=2
M  V30 2 O 8.038031 6.319109 -19.129691 0 CHG=-1
M  V30 3 C 9.615666 6.484169 -8.483941 0 CFG=1
M  V30 4 N 10.955778 8.189725 -7.573842 0
M  V30 5 F 4.634331 6.400147 -18.453405 0
M  V30 6 C 5.700986 5.923819 -19.096717 0 CFG=2
M  V30 7 C 5.563133 6.300155 -20.587449 0
M  V30 8 C 8.149876 4.430811 -17.171151 0
M  V30 9 C 6.845730 5.002012 -14.734301 0
M  V30 10 C 6.114325 7.499566 -21.345264 0
M  V30 11 O 5.434841 2.476173 -21.992719 0
M  V30 12 C 10.949550 8.596468 -8.965421 0 CFG=2
M  V30 13 O 5.589593 1.838220 -19.636968 0 CHG=-1
M  V30 14 O 10.257537 6.569298 -6.170729 0
M  V30 15 O 5.651536 4.506344 -19.172911 0
M  V30 16 N 7.184879 5.555144 -17.076083 0
M  V30 17 C 6.420928 5.459508 -13.345154 0
M  V30 18 N 5.521548 2.788818 -20.692578 0 CHG=1
M  V30 19 N 5.459934 5.098570 -21.371061 0
M  V30 20 C 5.536919 4.168132 -20.485438 0
M  V30 21 C 6.550354 5.906153 -15.882999 0
M  V30 22 O 5.806814 6.895170 -15.789898 0
M  V30 23 C 10.312210 7.076598 -7.286202 0
M  V30 24 C 9.013222 4.743894 -10.328581 0
M  V30 25 C 10.517268 7.209049 -9.532320 0 CFG=2
M  V30 26 O 12.234830 8.910420 -9.449977 0
M  V30 27 C 4.634837 7.393335 -21.087367 0
M  V30 28 C 8.539351 6.603526 -12.413420 0 CFG=2
M  V30 29 C 9.243693 7.904706 -11.905247 0
M  V30 30 C 6.994617 6.371347 -18.332216 0 CFG=1
M  V30 31 C 7.834921 3.274613 -16.269289 0
M  V30 32 C 9.434850 4.969269 -8.819373 0
M  V30 33 C 7.095335 6.763507 -12.882223 0
M  V30 34 C 10.035017 7.001373 -10.961621 0 CFG=2
M  V30 35 C 7.434850 3.805191 -14.938184 0
M  V30 36 H 7.985365 6.543443 -10.452415 0
M  V30 37 H 8.634839 6.947664 -8.439059 0
M  V30 38 H 11.457651 8.719565 -6.877930 0
M  V30 39 H 9.135409 4.824661 -16.913310 0
M  V30 40 H 8.248104 4.007689 -18.174785 0
M  V30 41 H 6.661526 8.254981 -20.784721 0
M  V30 42 H 6.464234 7.338421 -22.362982 0
M  V30 43 H 10.208995 9.369286 -9.169440 0
M  V30 44 H 6.598771 4.671320 -12.612374 0
M  V30 45 H 5.340469 5.606302 -13.367060 0
M  V30 46 H 9.774565 4.169349 -10.856612 0
M  V30 47 H 8.089642 4.169310 -10.377099 0
M  V30 48 H 11.437143 6.621184 -9.491668 0
M  V30 49 H 12.885787 8.557150 -8.864582 0
M  V30 50 H 3.991191 7.174178 -21.937016 0
M  V30 51 H 4.217846 8.084424 -20.357285 0
M  V30 52 H 9.164062 6.080873 -13.141435 0
M  V30 53 H 9.834832 8.418332 -12.658944 0
M  V30 54 H 8.574761 8.594492 -11.384598 0
M  V30 55 H 6.728164 7.369243 -17.984375 0
M  V30 56 H 8.701186 2.621234 -16.171482 0
M  V30 57 H 7.019682 2.673518 -16.673225 0
M  V30 58 H 10.335005 4.407256 -8.591206 0
M  V30 59 H 8.659562 4.568309 -8.166235 0
M  V30 60 H 6.499182 7.171694 -12.064581 0
M  V30 61 H 7.046705 7.527904 -13.656453 0
M  V30 62 H 10.844952 6.569298 -11.553587 0
M  V30 63 H 7.621294 3.158107 -14.093579 0
M  V30 END ATOM
M  V30 BEGIN BOND
M  V30 1 1 6 5 CFG=1
M  V30 2 1 7 6
M  V30 3 1 10 7
M  V30 4 1 12 4
M  V30 5 1 15 6
M  V30 6 1 16 8
M  V30 7 1 17 9
M  V30 8 2 18 11
M  V30 9 1 18 13
M  V30 10 1 19 7
M  V30 11 1 20 15
M  V30 12 1 20 18
M  V30 13 2 20 19
M  V30 14 1 21 9
M  V30 15 1 21 16
M  V30 16 2 22 21
M  V30 17 1 23 3
M  V30 18 1 23 4
M  V30 19 2 23 14
M  V30 20 1 24 1
M  V30 21 1 25 3
M  V30 22 1 25 12
M  V30 23 1 26 12
M  V30 24 1 27 7
M  V30 25 1 27 10
M  V30 26 1 28 1
M  V30 27 1 29 28
M  V30 28 1 30 2
M  V30 29 1 30 6
M  V30 30 1 30 16
M  V30 31 1 31 8
M  V30 32 1 32 3
M  V30 33 1 32 24
M  V30 34 1 33 17
M  V30 35 1 33 28
M  V30 36 1 34 1
M  V30 37 1 34 25
M  V30 38 1 34 29
M  V30 39 2 35 9
M  V30 40 1 35 31
M  V30 41 1 1 36 CFG=1
M  V30 42 1 3 37 CFG=3
M  V30 43 1 38 4
M  V30 44 1 39 8
M  V30 45 1 40 8
M  V30 46 1 41 10
M  V30 47 1 42 10
M  V30 48 1 12 43 CFG=1
M  V30 49 1 44 17
M  V30 50 1 45 17
M  V30 51 1 46 24
M  V30 52 1 47 24
M  V30 53 1 25 48 CFG=3
M  V30 54 1 49 26
M  V30 55 1 50 27
M  V30 56 1 51 27
M  V30 57 1 28 52 CFG=3
M  V30 58 1 53 29
M  V30 59 1 54 29
M  V30 60 1 30 55 CFG=1
M  V30 61 1 56 31
M  V30 62 1 57 31
M  V30 63 1 58 32
M  V30 64 1 59 32
M  V30 65 1 60 33
M  V30 66 1 61 33
M  V30 67 1 34 62 CFG=3
M  V30 68 1 63 35
M  V30 END BOND
M  V30 END CTAB
M  END
>  <i_epik_Tot_Q>  (1) 
-1

>  <i_epik_Tot_abs_Q>  (1) 
3

>  <i_i_glide_confnum>  (1) 
339

>  <i_i_glide_lignum>  (1) 
18

>  <i_i_glide_posenum>  (1) 
85

>  <i_i_glide_rotatable_bonds>  (1) 
7

>  <i_lp_mmshare_version>  (1) 
72125

>  <i_m_source_file_index>  (1) 
9

>  <i_f3d_flags>  (1) 
0

>  <num_sample>  (1) 
50

>  <b_lp_Chiralities_Consistent>  (1) 
1

>  <r_epik_Charging_Adjusted_Penalty>  (1) 
0.25838740980645414

>  <r_epik_Ionization_Penalty>  (1) 
0.12923734989215022

>  <r_epik_Ionization_Penalty_Charging>  (1) 
0.12919370490322707

>  <r_epik_Ionization_Penalty_Neutral>  (1) 
4.364498892313774e-05

>  <r_epik_State_Penalty>  (1) 
0.1291937049032271

>  <r_glide_ring_energy>  (1) 
0

>  <r_i_docking_score>  (1) 
-4.4025236428165977

>  <r_i_glide_ecoul>  (1) 
1.9607553691793154

>  <r_i_glide_eff_state_penalty>  (1) 
0.1291937049032271

>  <r_i_glide_einternal>  (1) 
8.136043624733766

>  <r_i_glide_emodel>  (1) 
-41.838437182953413

>  <r_i_glide_emodel_strain>  (1) 
0.22335224349180294

>  <r_i_glide_energy>  (1) 
-38.894447795534667

>  <r_i_glide_erotb>  (1) 
0.42136342035921531

>  <r_i_glide_esite>  (1) 
-0.00061596918277496168

>  <r_i_glide_evdw>  (1) 
-40.855203164713984

>  <r_i_glide_gscore>  (1) 
-4.5317173477198249

>  <r_i_glide_gscore_strain>  (1) 
0

>  <r_i_glide_hbond>  (1) 
0

>  <r_i_glide_ligand_efficiency>  (1) 
-0.12578638979475992

>  <r_i_glide_ligand_efficiency_ln>  (1) 
-0.96645164834608754

>  <r_i_glide_ligand_efficiency_sa>  (1) 
-0.41145562193788909

>  <r_i_glide_lipo>  (1) 
-1.1550506891328094

>  <r_i_glide_metal>  (1) 
-0

>  <r_i_glide_rewards>  (1) 
-2.0487672569046547

>  <r_lp_Energy>  (1) 
83.181056999999996

>  <s_epik_Chemistry_Notes>  (1) 
This compound has an imine and may undergo hydrolysis. This compound contains an acetal/aminal-like group ( X-CH(R)-Y where X, Y are N, S, or O) that may be acid/base labile, releasing an aldehyde.

>  <s_epik_cmdline>  (1) 
J2VwaWtfcHl0aG9uJywgJy1waHQnLCAnMS4wJywgJy1waCcsICc3LjQnLCAnLXRuJywgJzgnLCAnLW1hJywgJzUwMCcsICctaW1hZScsICc8aW5maWxlLm1hZT4nLCAnLW9tYWUnLCAnPG91dGZpbGUubWFlPic=

>  <s_epik_input>  (1) 
W09IXVtDQEBIXTFbTkhdQyg9TylbQ0BIXShbQ0gyXVtDSDJdMilbQ0BIXTFbQ0BASF0oW0NASF0yMylbQ0gyXVtDQEBIXTNbQ0gyXVtDSDJdQzQ9W0NIXVtDSDJdW0NIMl1OKEM0PU8pW0NAQEhdKFtPSF0pW0NAQF0oRikoQzU2W0NIMl1bQ0gyXTYpT0MoPU41KVtOK10oPU8pW08tXQ==

>  <s_glide_docking_method>  (1) 
confgen

>  <s_i_glide_gridfile>  (1) 
gpcr_drd2_6luq_protein_autoprepared_prepared

>  <s_lp_Force_Field>  (1) 
S-OPLS

>  <s_lp_Variant>  (1) 
DiffSBDD_8_num_sample_50-1

>  <s_m_source_file>  (1) 
generated__ligand_DiffSBDD_2026-05-06_prepared.sdf

>  <GenAI_Model>  (1) 
DiffSBDD

>  <Protein>  (1) 
generic_title2

$$$$
DiffSBDD_24_num_sample_50
     RDKit          3D

  0  0  0  0  0  0  0  0  0  0999 V3000
M  V30 BEGIN CTAB
M  V30 COUNTS 85 91 0 0 1
M  V30 BEGIN ATOM
M  V30 1 N 8.685379 3.931319 -17.162477 0
M  V30 2 C 9.502169 6.011964 -8.704356 0
M  V30 3 O 5.431451 3.309833 -13.376328 0
M  V30 4 C 8.234758 1.699801 -15.583550 0 CFG=2
M  V30 5 C 8.179819 5.857987 -21.235763 0 CFG=1
M  V30 6 C 11.235606 7.536635 -7.461163 0 CFG=2
M  V30 7 C 6.350563 5.399519 -12.755262 0 CFG=2
M  V30 8 C 7.633765 3.800212 -14.311441 0
M  V30 9 N 8.799037 7.125737 -20.851977 0
M  V30 10 N 8.722474 5.996802 -12.450583 0 CFG=2 CHG=1
M  V30 11 C 7.584555 6.263022 -14.698203 0
M  V30 12 C 7.337869 3.359577 -17.275961 0
M  V30 13 C 8.119171 4.933616 -20.017893 0
M  V30 14 C 8.053308 4.869740 -15.048737 0
M  V30 15 C 8.531882 8.033008 -21.966745 0
M  V30 16 C 9.596286 3.660153 -18.291255 0
M  V30 17 C 10.213694 6.880878 -20.533380 0 CFG=2
M  V30 18 O 10.171153 5.284372 -16.090871 0
M  V30 19 C 10.484419 8.757966 -6.966412 0
M  V30 20 F 6.087941 5.490332 -11.453583 0
M  V30 21 C 10.256164 5.996737 -19.260047 0
M  V30 22 C 8.714343 0.169572 -13.557475 0
M  V30 23 C 7.020699 7.942740 -22.215889 0 CFG=1
M  V30 24 C 5.434838 1.889300 -13.384585 0
M  V30 25 C 9.535898 4.652864 -19.484762 0 CFG=2
M  V30 26 C 7.220672 1.958489 -16.688951 0
M  V30 27 F 11.434643 9.212733 -9.167986 0
M  V30 28 C 10.709317 6.927519 -8.746391 0 CFG=2
M  V30 29 C 9.077136 4.723331 -16.111878 0
M  V30 30 C 8.142001 0.277527 -14.994410 0
M  V30 31 C 6.674051 3.925373 -13.126658 0 CFG=2
M  V30 32 C 7.464895 6.386021 -13.160040 0 CFG=1
M  V30 33 C 11.016354 8.171573 -20.322701 0
M  V30 34 S 6.545966 6.236951 -21.905549 0
M  V30 35 C 8.913481 6.550219 -11.124224 0 CFG=1
M  V30 36 O 8.146368 2.534582 -14.439664 0
M  V30 37 C 10.572097 8.410311 -8.442582 0 CFG=1
M  V30 38 Cl 6.141220 9.008846 -21.091381 0
M  V30 39 C 9.108526 5.461304 -10.084034 0
M  V30 40 C 9.839085 6.910064 -12.253628 0
M  V30 41 H 9.715705 5.182415 -8.029602 0
M  V30 42 H 8.660910 6.553593 -8.267963 0
M  V30 43 H 9.235786 1.769621 -16.000834 0
M  V30 44 H 8.758158 5.392182 -22.035009 0
M  V30 45 H 12.319241 7.595176 -7.393483 0
M  V30 46 H 5.427579 5.705363 -13.251502 0
M  V30 47 H 8.234835 7.011259 -15.091022 0
M  V30 48 H 6.624641 6.441949 -15.183956 0
M  V30 49 H 7.020992 3.295089 -18.312919 0
M  V30 50 H 6.634865 4.056746 -16.846028 0
M  V30 51 H 7.506682 5.398886 -19.243895 0
M  V30 52 H 7.635150 4.001450 -20.307768 0
M  V30 53 H 8.832388 9.058570 -21.751011 0
M  V30 54 H 9.079837 7.702360 -22.852586 0
M  V30 55 H 10.625289 3.571651 -17.940144 0
M  V30 56 H 9.357444 2.666388 -18.672938 0
M  V30 57 H 10.675652 6.343890 -21.364067 0
M  V30 58 H 9.534100 8.589192 -6.463088 0
M  V30 59 H 11.064792 9.605399 -6.606605 0
M  V30 60 H 11.291766 5.813240 -18.975036 0
M  V30 61 H 9.798793 6.537972 -18.431079 0
M  V30 62 H 9.434859 -0.630707 -13.492497 0
M  V30 63 H 7.920414 0.022528 -12.825590 0
M  V30 64 H 9.287790 1.028973 -13.215133 0
M  V30 65 H 6.757446 8.243046 -23.229866 0
M  V30 66 H 4.414762 1.522717 -13.491676 0
M  V30 67 H 5.862881 1.471198 -12.473209 0
M  V30 68 H 5.960116 1.496621 -14.234026 0
M  V30 69 H 10.077132 4.159297 -20.293552 0
M  V30 70 H 6.201237 1.769966 -16.364439 0
M  V30 71 H 7.408029 1.234248 -17.481980 0
M  V30 72 H 11.456607 6.656549 -9.486233 0
M  V30 73 H 7.114816 -0.082712 -14.980468 0
M  V30 74 H 8.634853 -0.424903 -15.663911 0
M  V30 75 H 7.158177 3.451049 -12.270520 0
M  V30 76 H 7.175817 7.407600 -12.900303 0
M  V30 77 H 12.057348 7.942082 -20.095421 0
M  V30 78 H 10.634937 8.757578 -19.491159 0
M  V30 79 H 11.018205 8.801718 -21.210950 0
M  V30 80 H 8.234852 7.346854 -10.880645 0
M  V30 81 H 8.172504 4.912820 -9.975260 0
M  V30 82 H 9.834887 4.734148 -10.438071 0
M  V30 83 H 10.783690 6.388011 -12.394441 0
M  V30 84 H 9.709511 7.894548 -12.691631 0
M  V30 85 H 9.010396 5.031114 -12.527491 0
M  V30 END ATOM
M  V30 BEGIN BOND
M  V30 1 1 9 5
M  V30 2 1 12 1
M  V30 3 1 13 5
M  V30 4 2 14 8
M  V30 5 1 14 11
M  V30 6 1 15 9
M  V30 7 1 16 1
M  V30 8 1 17 9
M  V30 9 1 19 6
M  V30 10 1 20 7
M  V30 11 1 21 17
M  V30 12 1 23 15
M  V30 13 1 24 3
M  V30 14 1 25 13
M  V30 15 1 25 16
M  V30 16 1 25 21
M  V30 17 1 26 4
M  V30 18 1 26 12
M  V30 19 1 28 2
M  V30 20 1 28 6
M  V30 21 1 29 1
M  V30 22 1 29 14
M  V30 23 2 29 18
M  V30 24 1 30 4
M  V30 25 1 30 22
M  V30 26 1 31 3
M  V30 27 1 31 7
M  V30 28 1 31 8
M  V30 29 1 32 7
M  V30 30 1 32 10
M  V30 31 1 32 11
M  V30 32 1 33 17
M  V30 33 1 34 5
M  V30 34 1 34 23
M  V30 35 1 35 10
M  V30 36 1 36 4
M  V30 37 1 36 8
M  V30 38 1 37 6
M  V30 39 1 37 19
M  V30 40 1 37 27 CFG=3
M  V30 41 1 37 28
M  V30 42 1 38 23
M  V30 43 1 39 2
M  V30 44 1 39 35
M  V30 45 1 40 10
M  V30 46 1 40 35
M  V30 47 1 41 2
M  V30 48 1 42 2
M  V30 49 1 4 43 CFG=3
M  V30 50 1 5 44 CFG=3
M  V30 51 1 6 45 CFG=3
M  V30 52 1 7 46 CFG=3
M  V30 53 1 47 11
M  V30 54 1 48 11
M  V30 55 1 49 12
M  V30 56 1 50 12
M  V30 57 1 51 13
M  V30 58 1 52 13
M  V30 59 1 53 15
M  V30 60 1 54 15
M  V30 61 1 55 16
M  V30 62 1 56 16
M  V30 63 1 17 57 CFG=3
M  V30 64 1 58 19
M  V30 65 1 59 19
M  V30 66 1 60 21
M  V30 67 1 61 21
M  V30 68 1 62 22
M  V30 69 1 63 22
M  V30 70 1 64 22
M  V30 71 1 23 65 CFG=3
M  V30 72 1 66 24
M  V30 73 1 67 24
M  V30 74 1 68 24
M  V30 75 1 25 69 CFG=3
M  V30 76 1 70 26
M  V30 77 1 71 26
M  V30 78 1 28 72 CFG=3
M  V30 79 1 73 30
M  V30 80 1 74 30
M  V30 81 1 31 75 CFG=1
M  V30 82 1 32 76 CFG=3
M  V30 83 1 77 33
M  V30 84 1 78 33
M  V30 85 1 79 33
M  V30 86 1 35 80 CFG=1
M  V30 87 1 81 39
M  V30 88 1 82 39
M  V30 89 1 83 40
M  V30 90 1 84 40
M  V30 91 1 10 85 CFG=1
M  V30 END BOND
M  V30 END CTAB
M  END
>  <i_epik_Tot_Q>  (1) 
1

>  <i_epik_Tot_abs_Q>  (1) 
1

>  <i_i_glide_confnum>  (1) 
40

>  <i_i_glide_lignum>  (1) 
64

>  <i_i_glide_posenum>  (1) 
281

>  <i_i_glide_rotatable_bonds>  (1) 
8

>  <i_lp_mmshare_version>  (1) 
72125

>  <i_m_source_file_index>  (1) 
25

>  <i_f3d_flags>  (1) 
0

>  <num_sample>  (1) 
50

>  <b_lp_Chiralities_Consistent>  (1) 
1

>  <r_epik_Charging_Adjusted_Penalty>  (1) 
0.63439585009227506

>  <r_epik_Ionization_Penalty>  (1) 
0.31719815469996288

>  <r_epik_Ionization_Penalty_Charging>  (1) 
0.31719792504613759

>  <r_epik_Ionization_Penalty_Neutral>  (1) 
2.2965382529121371e-07

>  <r_epik_State_Penalty>  (1) 
0.31719792504613753

>  <r_glide_ring_energy>  (1) 
0

>  <r_i_docking_score>  (1) 
-4.401423720852863

>  <r_i_glide_ecoul>  (1) 
-2.9820938789336511

>  <r_i_glide_eff_state_penalty>  (1) 
0.31719792504613753

>  <r_i_glide_einternal>  (1) 
9.659093570075715

>  <r_i_glide_emodel>  (1) 
-30.064510513392868

>  <r_i_glide_emodel_strain>  (1) 
3.919748568333091

>  <r_i_glide_energy>  (1) 
-30.891409813826524

>  <r_i_glide_erotb>  (1) 
0.23102689348128655

>  <r_i_glide_esite>  (1) 
-0.064032175019894666

>  <r_i_glide_evdw>  (1) 
-27.909315934892874

>  <r_i_glide_gscore>  (1) 
-4.7186216458990007

>  <r_i_glide_gscore_strain>  (1) 
0

>  <r_i_glide_hbond>  (1) 
0

>  <r_i_glide_ligand_efficiency>  (1) 
-0.11003559302132157

>  <r_i_glide_ligand_efficiency_ln>  (1) 
-0.93869415154000935

>  <r_i_glide_ligand_efficiency_sa>  (1) 
-0.3763164346895323

>  <r_i_glide_lipo>  (1) 
-1.8812136543256011

>  <r_i_glide_metal>  (1) 
-0

>  <r_i_glide_rewards>  (1) 
-1.1616228314501007

>  <r_lp_Energy>  (1) 
54.516613999999997

>  <s_epik_Chemistry_Notes>  (1) 
This compound contains an acetal/aminal-like group ( X-CH(R)-Y where X, Y are N, S, or O) that may be acid/base labile, releasing an aldehyde.

>  <s_epik_cmdline>  (1) 
J2VwaWtfcHl0aG9uJywgJy1waHQnLCAnMS4wJywgJy1waCcsICc3LjQnLCAnLXRuJywgJzgnLCAnLW1hJywgJzUwMCcsICctaW1hZScsICc8aW5maWxlLm1hZT4nLCAnLW9tYWUnLCAnPG91dGZpbGUubWFlPic=

>  <s_epik_input>  (1) 
UzFbQ0BASF0oQ2wpW0NIMl1OKFtDQEhdMTIpW0NAQEhdKFtDSDNdKVtDSDJdW0NASF0oW0NIMl0yKVtDSDJdTihbQ0gyXVtDSDJdW0NAQEhdKE8zKVtDSDJdW0NIM10pQyg9TylDKD1DMzQpW0NIMl1bQ0BASF0oW0NASF0oRilbQ0BIXTRPW0NIM10pTjVbQ0BIXShbQ0gyXTUpW0NIMl1bQ0gyXVtDQEBIXTZbQ0hdKFtDSDJdNylDNjdG

>  <s_glide_docking_method>  (1) 
confgen

>  <s_i_glide_gridfile>  (1) 
gpcr_drd2_6luq_protein_autoprepared_prepared

>  <s_lp_Force_Field>  (1) 
S-OPLS

>  <s_lp_Variant>  (1) 
DiffSBDD_24_num_sample_50-1

>  <s_m_source_file>  (1) 
generated__ligand_DiffSBDD_2026-05-06_prepared.sdf

>  <GenAI_Model>  (1) 
DiffSBDD

>  <Protein>  (1) 
generic_title2

$$$$
DiffSBDD_10_num_sample_50
     RDKit          3D

  0  0  0  0  0  0  0  0  0  0999 V3000
M  V30 BEGIN CTAB
M  V30 COUNTS 72 73 0 0 1
M  V30 BEGIN ATOM
M  V30 1 C 5.749456 5.507064 -21.483917 0 CFG=2
M  V30 2 C 7.819778 4.250679 -11.678306 0
M  V30 3 C 7.539932 2.795243 -14.903233 0
M  V30 4 C 8.408021 4.659044 -17.096336 0 CFG=1
M  V30 5 C 7.053532 6.194942 -21.040734 0 CFG=2
M  V30 6 N 5.655461 4.564654 -12.692719 0
M  V30 7 N 7.034857 6.458785 -17.891377 0
M  V30 8 C 8.041595 6.242113 -18.867674 0 CFG=1
M  V30 9 S 5.412259 5.452715 -23.316824 0
M  V30 10 C 7.984354 5.685904 -11.237883 0
M  V30 11 S 3.434850 6.169300 -23.246018 0 CHG=-1
M  V30 12 C 5.766532 3.005347 -20.815199 0
M  V30 13 O 11.639911 7.769512 -10.147027 0
M  V30 14 O 6.205180 6.464709 -24.026391 0
M  V30 15 C 5.730729 6.949811 -21.018077 0 CFG=2
M  V30 16 C 6.726475 0.479149 -14.113998 0
M  V30 17 C 6.973426 5.251037 -17.093887 0 CFG=2
M  V30 18 N 9.434837 7.447692 -10.301544 0 CHG=1
M  V30 19 N 6.624103 2.461048 -12.691665 0
M  V30 20 C 9.388557 6.033075 -10.733561 0
M  V30 21 C 10.038534 4.675439 -19.205494 0
M  V30 22 C 5.074331 4.372326 -20.700274 0
M  V30 23 C 8.209474 6.581322 -21.952078 0
M  V30 24 C 8.456322 3.115768 -17.247319 0
M  V30 25 C 6.945793 1.963772 -13.821172 0
M  V30 26 O 5.109540 7.170605 -19.764420 0
M  V30 27 C 6.739531 3.792270 -12.331735 0
M  V30 28 O 5.362370 4.062922 -23.794135 0
M  V30 29 F 6.530550 5.550763 -15.873638 0
M  V30 30 N 6.231507 -0.230699 -12.945161 0
M  V30 31 C 10.488607 7.783533 -9.326234 0
M  V30 32 C 9.156355 5.440848 -18.197641 0 CFG=2
M  V30 33 O 7.514416 5.479856 -19.901662 0
M  V30 34 C 7.849930 2.297360 -16.116760 0
M  V30 35 H 8.626829 3.571343 -11.435310 0
M  V30 36 H 7.711384 3.830912 -14.663154 0
M  V30 37 H 8.901831 4.924006 -16.160425 0
M  V30 38 H 5.605189 5.548973 -12.472756 0
M  V30 39 H 6.144110 6.671638 -18.340270 0
M  V30 40 H 8.410463 7.195247 -19.250045 0
M  V30 41 H 7.269389 5.801020 -10.422934 0
M  V30 42 H 7.679076 6.357444 -12.042044 0
M  V30 43 H 5.272500 2.274419 -20.174968 0
M  V30 44 H 5.742974 2.609965 -21.828658 0
M  V30 45 H 6.809470 3.060633 -20.503619 0
M  V30 46 H 12.235466 8.445715 -9.854266 0
M  V30 47 H 5.558751 7.751680 -21.734312 0
M  V30 48 H 5.995504 0.375650 -14.916797 0
M  V30 49 H 7.656707 0.013976 -14.441198 0
M  V30 50 H 6.263560 4.569300 -17.560134 0
M  V30 51 H 8.517665 7.646537 -9.881902 0
M  V30 52 H 10.132391 5.868015 -11.514462 0
M  V30 53 H 9.641380 5.378331 -9.898002 0
M  V30 54 H 9.482042 3.913936 -19.752248 0
M  V30 55 H 10.469077 5.358342 -19.938364 0
M  V30 56 H 10.867359 4.182855 -18.698025 0
M  V30 57 H 5.034689 4.636543 -19.644536 0
M  V30 58 H 4.037334 4.290128 -21.024498 0
M  V30 59 H 7.938530 7.413521 -22.600170 0
M  V30 60 H 9.074210 6.900818 -21.372887 0
M  V30 61 H 8.507844 5.729246 -22.563672 0
M  V30 62 H 9.488847 2.780518 -17.346691 0
M  V30 63 H 7.947312 2.830750 -18.168459 0
M  V30 64 H 4.184598 7.290502 -19.924711 0
M  V30 65 H 5.868329 -1.162250 -13.172852 0
M  V30 66 H 6.959656 -0.343457 -12.257437 0
M  V30 67 H 10.550318 7.068451 -8.504380 0
M  V30 68 H 10.319738 8.782645 -8.923237 0
M  V30 69 H 9.793873 6.169279 -17.696800 0
M  V30 70 H 7.670279 1.255019 -16.332640 0
M  V30 71 H 4.859764 4.170710 -13.172148 0
M  V30 72 H 9.525885 8.038367 -11.113681 0
M  V30 END ATOM
M  V30 BEGIN BOND
M  V30 1 1 5 1
M  V30 2 1 8 7
M  V30 3 1 9 1
M  V30 4 1 10 2
M  V30 5 1 11 9
M  V30 6 2 14 9
M  V30 7 1 15 1
M  V30 8 1 15 5
M  V30 9 1 17 4
M  V30 10 1 17 7
M  V30 11 1 20 10
M  V30 12 1 20 18
M  V30 13 1 1 22 CFG=1
M  V30 14 1 22 12
M  V30 15 1 23 5
M  V30 16 1 24 4
M  V30 17 1 25 3
M  V30 18 1 25 16
M  V30 19 2 25 19
M  V30 20 1 26 15
M  V30 21 2 27 2
M  V30 22 1 27 6
M  V30 23 1 27 19
M  V30 24 2 28 9
M  V30 25 1 29 17
M  V30 26 1 30 16
M  V30 27 1 31 13
M  V30 28 1 31 18
M  V30 29 1 32 4
M  V30 30 1 32 8
M  V30 31 1 32 21
M  V30 32 1 5 33 CFG=1
M  V30 33 1 33 8
M  V30 34 2 34 3
M  V30 35 1 34 24
M  V30 36 1 35 2
M  V30 37 1 36 3
M  V30 38 1 4 37 CFG=1
M  V30 39 1 38 6
M  V30 40 1 39 7
M  V30 41 1 8 40 CFG=3
M  V30 42 1 41 10
M  V30 43 1 42 10
M  V30 44 1 43 12
M  V30 45 1 44 12
M  V30 46 1 45 12
M  V30 47 1 46 13
M  V30 48 1 15 47 CFG=3
M  V30 49 1 48 16
M  V30 50 1 49 16
M  V30 51 1 17 50 CFG=3
M  V30 52 1 51 18
M  V30 53 1 52 20
M  V30 54 1 53 20
M  V30 55 1 54 21
M  V30 56 1 55 21
M  V30 57 1 56 21
M  V30 58 1 57 22
M  V30 59 1 58 22
M  V30 60 1 59 23
M  V30 61 1 60 23
M  V30 62 1 61 23
M  V30 63 1 62 24
M  V30 64 1 63 24
M  V30 65 1 64 26
M  V30 66 1 65 30
M  V30 67 1 66 30
M  V30 68 1 67 31
M  V30 69 1 68 31
M  V30 70 1 32 69 CFG=1
M  V30 71 1 70 34
M  V30 72 1 71 6
M  V30 73 1 72 18
M  V30 END BOND
M  V30 END CTAB
M  END
>  <i_epik_Tot_Q>  (1) 
0

>  <i_epik_Tot_abs_Q>  (1) 
2

>  <i_i_glide_confnum>  (1) 
2324

>  <i_i_glide_lignum>  (1) 
26

>  <i_i_glide_posenum>  (1) 
300

>  <i_i_glide_rotatable_bonds>  (1) 
15

>  <i_lp_mmshare_version>  (1) 
72125

>  <i_m_source_file_index>  (1) 
11

>  <i_f3d_flags>  (1) 
0

>  <num_sample>  (1) 
50

>  <b_lp_Chiralities_Consistent>  (1) 
1

>  <r_epik_Charging_Adjusted_Penalty>  (1) 
0.33639934582642134

>  <r_epik_Ionization_Penalty>  (1) 
0.23315943830934333

>  <r_epik_Ionization_Penalty_Charging>  (1) 
0.10316865490585193

>  <r_epik_Ionization_Penalty_Neutral>  (1) 
0.12999078340349141

>  <r_epik_State_Penalty>  (1) 
0.23323069092056939

>  <r_glide_ring_energy>  (1) 
0

>  <r_i_docking_score>  (1) 
-4.392429901864169

>  <r_i_glide_ecoul>  (1) 
-8.578718835254536

>  <r_i_glide_eff_state_penalty>  (1) 
0.23323069092056939

>  <r_i_glide_einternal>  (1) 
8.4782551040405671

>  <r_i_glide_emodel>  (1) 
-49.07792580599866

>  <r_i_glide_emodel_strain>  (1) 
0.16939733868895246

>  <r_i_glide_energy>  (1) 
-38.237286516341491

>  <r_i_glide_erotb>  (1) 
0.82510599487301828

>  <r_i_glide_esite>  (1) 
-0.13655002939815467

>  <r_i_glide_evdw>  (1) 
-29.658567681086954

>  <r_i_glide_gscore>  (1) 
-4.6256605927847385

>  <r_i_glide_gscore_strain>  (1) 
0

>  <r_i_glide_hbond>  (1) 
-0.41557770208377154

>  <r_i_glide_ligand_efficiency>  (1) 
-0.12918911476071085

>  <r_i_glide_ligand_efficiency_ln>  (1) 
-0.97041096880736211

>  <r_i_glide_ligand_efficiency_sa>  (1) 
-0.41852258077539006

>  <r_i_glide_lipo>  (1) 
-1.2631699680372905

>  <r_i_glide_metal>  (1) 
-0

>  <r_i_glide_rewards>  (1) 
-0.8657326787960129

>  <r_lp_Energy>  (1) 
25.865628999999998

>  <s_epik_Chemistry_Notes>  (1) 
This compound has an imine and may undergo hydrolysis. This compound contains an acetal/aminal-like group ( X-CH(R)-Y where X, Y are N, S, or O) that may be acid/base labile, releasing an aldehyde.

>  <s_epik_cmdline>  (1) 
J2VwaWtfcHl0aG9uJywgJy1waHQnLCAnMS4wJywgJy1waCcsICc3LjQnLCAnLXRuJywgJzgnLCAnLW1hJywgJzUwMCcsICctaW1hZScsICc8aW5maWxlLm1hZT4nLCAnLW9tYWUnLCAnPG91dGZpbGUubWFlPic=

>  <s_epik_input>  (1) 
W1NIXVMoPU8pKD1PKVtDQEBdMShbQ0gyXVtDSDNdKVtDQEBdKFtDSDNdKShbQ0BASF0xW09IXSlPW0NASF0oW0NAQEhdMltDSDNdKVtOSF1bQ0BASF0oRilbQ0BIXTJbQ0gyXVxbQ0hdPVtDSF1cQyhbQ0gyXVtOSDJdKT1OL0MoPU4vW0hdKS9bQ0gyXVtDSDJdW0NIMl1bTkhdW0NIMl1bT0hd

>  <s_glide_docking_method>  (1) 
confgen

>  <s_i_glide_gridfile>  (1) 
gpcr_drd2_6luq_protein_autoprepared_prepared

>  <s_lp_Force_Field>  (1) 
S-OPLS

>  <s_lp_Variant>  (1) 
DiffSBDD_10_num_sample_50-6

>  <s_m_source_file>  (1) 
generated__ligand_DiffSBDD_2026-05-06_prepared.sdf

>  <GenAI_Model>  (1) 
DiffSBDD

>  <Protein>  (1) 
generic_title2

$$$$
DiffSBDD_13_num_sample_50
     RDKit          3D

  0  0  0  0  0  0  0  0  0  0999 V3000
M  V30 BEGIN CTAB
M  V30 COUNTS 46 50 0 0 1
M  V30 BEGIN ATOM
M  V30 1 C 9.236387 5.767372 -10.651719 0
M  V30 2 N 6.732332 6.076890 -12.635256 0 CFG=2 CHG=1
M  V30 3 C 12.305696 9.129415 -3.442779 0
M  V30 4 C 11.484925 8.604583 -5.703979 0
M  V30 5 C 9.211521 8.159561 -11.089580 0
M  V30 6 C 11.434856 7.227480 -5.293871 0
M  V30 7 C 9.833804 6.003850 -9.404560 0
M  V30 8 C 7.327678 4.299848 -15.512620 0
M  V30 9 C 11.927097 9.535501 -4.734692 0
M  V30 10 C 7.817122 3.499669 -14.300824 0
M  V30 11 O 7.834793 7.741891 -13.373987 0 CHG=-1
M  V30 12 C 6.098607 4.745308 -12.792157 0 CFG=1
M  V30 13 O 12.634387 7.393664 -1.846680 0
M  V30 14 C 9.834030 8.387646 -9.840761 0
M  V30 15 S 10.901727 6.248703 -6.589446 0
M  V30 16 C 5.916338 5.783149 -13.851294 0 CFG=2
M  V30 17 C 8.130813 6.584001 -12.834958 0 CFG=1
M  V30 18 C 11.063874 8.773897 -7.094361 0
M  V30 19 C 8.881712 6.841528 -11.492134 0
M  V30 20 C 12.254128 7.779725 -3.084638 0
M  V30 21 C 10.687742 7.566494 -7.647318 0
M  V30 22 C 6.637924 5.653558 -15.212030 0
M  V30 23 C 10.123026 7.315861 -8.978051 0
M  V30 24 C 6.763154 3.431155 -13.191808 0
M  V30 25 Cl 8.950143 4.169312 -11.135159 0
M  V30 26 C 11.815608 6.829478 -4.005199 0
M  V30 27 H 12.642475 9.865290 -2.725512 0
M  V30 28 H 8.968879 8.995957 -11.719853 0
M  V30 29 H 10.067392 5.163234 -8.770791 0
M  V30 30 H 6.636285 3.663876 -16.061091 0
M  V30 31 H 8.161154 4.458029 -16.199027 0
M  V30 32 H 11.981168 10.574134 -4.998756 0
M  V30 33 H 8.038893 2.483501 -14.628611 0
M  V30 34 H 8.769801 3.864587 -13.930826 0
M  V30 35 H 5.315397 4.650121 -12.043199 0
M  V30 36 H 12.912618 8.116546 -1.303825 0
M  V30 37 H 10.053529 9.391297 -9.529305 0
M  V30 38 H 5.050335 6.440920 -13.830062 0
M  V30 39 H 8.737997 5.865102 -13.370577 0
M  V30 40 H 11.034839 9.716928 -7.590714 0
M  V30 41 H 7.329847 6.474364 -15.386223 0
M  V30 42 H 5.880485 5.799872 -15.982510 0
M  V30 43 H 7.109895 2.893109 -12.313420 0
M  V30 44 H 5.954912 2.798790 -13.561031 0
M  V30 45 H 11.777501 5.786001 -3.729152 0
M  V30 46 H 6.219019 6.695357 -12.025333 0
M  V30 END ATOM
M  V30 BEGIN BOND
M  V30 1 2 6 4
M  V30 2 1 7 1
M  V30 3 2 9 3
M  V30 4 1 9 4
M  V30 5 1 10 8
M  V30 6 1 12 2
M  V30 7 2 14 5
M  V30 8 1 15 6
M  V30 9 1 16 2
M  V30 10 1 16 12
M  V30 11 1 17 2
M  V30 12 1 17 11
M  V30 13 1 18 4
M  V30 14 2 19 1
M  V30 15 1 19 5
M  V30 16 1 19 17
M  V30 17 1 20 3
M  V30 18 1 20 13
M  V30 19 1 21 15
M  V30 20 2 21 18
M  V30 21 1 22 8
M  V30 22 1 22 16
M  V30 23 2 23 7
M  V30 24 1 23 14
M  V30 25 1 23 21
M  V30 26 1 24 10
M  V30 27 1 24 12
M  V30 28 1 25 1
M  V30 29 1 26 6
M  V30 30 2 26 20
M  V30 31 1 27 3
M  V30 32 1 28 5
M  V30 33 1 29 7
M  V30 34 1 30 8
M  V30 35 1 31 8
M  V30 36 1 32 9
M  V30 37 1 33 10
M  V30 38 1 34 10
M  V30 39 1 12 35 CFG=1
M  V30 40 1 36 13
M  V30 41 1 37 14
M  V30 42 1 16 38 CFG=3
M  V30 43 1 17 39 CFG=3
M  V30 44 1 40 18
M  V30 45 1 41 22
M  V30 46 1 42 22
M  V30 47 1 43 24
M  V30 48 1 44 24
M  V30 49 1 45 26
M  V30 50 1 2 46 CFG=1
M  V30 END BOND
M  V30 END CTAB
M  END
>  <i_epik_Tot_Q>  (1) 
0

>  <i_epik_Tot_abs_Q>  (1) 
2

>  <i_i_glide_confnum>  (1) 
14

>  <i_i_glide_lignum>  (1) 
49

>  <i_i_glide_posenum>  (1) 
2

>  <i_i_glide_rotatable_bonds>  (1) 
4

>  <i_lp_mmshare_version>  (1) 
72125

>  <i_m_source_file_index>  (1) 
14

>  <i_f3d_flags>  (1) 
0

>  <num_sample>  (1) 
50

>  <b_lp_Chiralities_Consistent>  (1) 
1

>  <r_epik_Charging_Adjusted_Penalty>  (1) 
0.011735890959206876

>  <r_epik_Ionization_Penalty>  (1) 
0.011735890959206876

>  <r_epik_Ionization_Penalty_Charging>  (1) 
0.0019353161310539371

>  <r_epik_Ionization_Penalty_Neutral>  (1) 
0.009800574828152938

>  <r_epik_State_Penalty>  (1) 
0.0098005748281529397

>  <r_glide_ring_energy>  (1) 
0

>  <r_i_docking_score>  (1) 
-4.3886912436565018

>  <r_i_glide_ecoul>  (1) 
-0.31579558646378414

>  <r_i_glide_eff_state_penalty>  (1) 
0.0098005748281529397

>  <r_i_glide_einternal>  (1) 
13.385376628418761

>  <r_i_glide_emodel>  (1) 
-21.393460827454387

>  <r_i_glide_emodel_strain>  (1) 
9.2585352732649255

>  <r_i_glide_energy>  (1) 
-30.206389485261976

>  <r_i_glide_erotb>  (1) 
0.39195233306171845

>  <r_i_glide_esite>  (1) 
-0.041588711548011768

>  <r_i_glide_evdw>  (1) 
-29.890593898798191

>  <r_i_glide_gscore>  (1) 
-4.3984918184846551

>  <r_i_glide_gscore_strain>  (1) 
1.3146338183162314

>  <r_i_glide_hbond>  (1) 
0

>  <r_i_glide_ligand_efficiency>  (1) 
-0.16879581706371161

>  <r_i_glide_ligand_efficiency_ln>  (1) 
-1.0306697381022039

>  <r_i_glide_ligand_efficiency_sa>  (1) 
-0.50005694441485549

>  <r_i_glide_lipo>  (1) 
-3.0298353802748474

>  <r_i_glide_metal>  (1) 
-0

>  <r_i_glide_rewards>  (1) 
-1.4917548451302691

>  <r_lp_Energy>  (1) 
50.308721999999996

>  <s_epik_Chemistry_Notes>  (1) 
This compound contains an acetal/aminal-like group ( X-CH(R)-Y where X, Y are N, S, or O) that may be acid/base labile, releasing an aldehyde.

>  <s_epik_cmdline>  (1) 
J2VwaWtfcHl0aG9uJywgJy1waHQnLCAnMS4wJywgJy1waCcsICc3LjQnLCAnLXRuJywgJzgnLCAnLW1hJywgJzUwMCcsICctaW1hZScsICc8aW5maWxlLm1hZT4nLCAnLW9tYWUnLCAnPG91dGZpbGUubWFlPic=

>  <s_epik_input>  (1) 
W2NIXTFbY0hdYyhbT0hdKVtjSF1jKGMxMilzYyhbY0hdMiktYyhbY0hdYzNDbClbY0hdW2NIXWMzW0NASF0oW09IXSlONFtDQEhdKFtDQEhdNDUpW0NIMl1bQ0gyXVtDSDJdW0NIMl01

>  <s_glide_docking_method>  (1) 
confgen

>  <s_i_glide_gridfile>  (1) 
gpcr_drd2_6luq_protein_autoprepared_prepared

>  <s_lp_Force_Field>  (1) 
S-OPLS

>  <s_lp_Variant>  (1) 
DiffSBDD_13_num_sample_50-2

>  <s_m_source_file>  (1) 
generated__ligand_DiffSBDD_2026-05-06_prepared.sdf

>  <GenAI_Model>  (1) 
DiffSBDD

>  <Protein>  (1) 
generic_title2

$$$$
DiffSBDD_8_num_sample_50
     RDKit          3D

  0  0  0  0  0  0  0  0  0  0999 V3000
M  V30 BEGIN CTAB
M  V30 COUNTS 63 68 0 0 1
M  V30 BEGIN ATOM
M  V30 1 C 9.840189 6.093549 -11.152143 0 CFG=2
M  V30 2 O 7.020217 2.550573 -18.273543 0 CHG=-1
M  V30 3 C 11.261822 7.319749 -9.217288 0 CFG=1
M  V30 4 N 10.888596 7.754735 -6.967172 0
M  V30 5 F 10.059869 1.016381 -17.555908 0
M  V30 6 C 9.341655 2.080934 -17.922469 0 CFG=2
M  V30 7 C 9.700900 2.419619 -19.385478 0
M  V30 8 C 7.394157 0.399829 -15.527744 0
M  V30 9 C 7.048500 2.719864 -13.940725 0
M  V30 10 C 9.007623 2.028113 -20.682880 0
M  V30 11 O 11.457139 6.014264 -18.590892 0
M  V30 12 C 9.597237 7.202596 -7.333728 0 CFG=2
M  V30 13 O 10.919393 5.505213 -16.266052 0 CHG=-1
M  V30 14 O 12.836732 8.470490 -7.848395 0
M  V30 15 O 9.838668 3.232266 -17.260734 0
M  V30 16 N 7.518681 1.750559 -16.124085 0
M  V30 17 C 7.116321 3.922739 -13.009650 0
M  V30 18 N 10.927944 5.216072 -17.652584 0 CHG=1
M  V30 19 N 10.368868 3.692174 -19.433339 0
M  V30 20 C 10.388569 4.049296 -18.197275 0
M  V30 21 C 7.435780 2.926360 -15.366111 0
M  V30 22 O 7.653460 4.048067 -15.846393 0
M  V30 23 C 11.747015 7.911996 -7.944059 0
M  V30 24 C 10.928598 6.986129 -11.750674 0
M  V30 25 C 9.758345 7.443930 -8.904260 0 CFG=2
M  V30 26 O 8.636650 8.011983 -6.691486 0
M  V30 27 C 10.329414 1.403150 -20.319510 0
M  V30 28 C 8.533625 5.607621 -11.772900 0 CFG=2
M  V30 29 C 8.040637 5.597251 -10.285450 0
M  V30 30 C 7.833230 1.768845 -17.600318 0 CFG=1
M  V30 31 C 6.450050 0.311915 -14.370135 0
M  V30 32 C 11.647724 7.812930 -10.625408 0
M  V30 33 C 8.541311 4.349490 -12.634996 0
M  V30 34 C 9.019060 6.793574 -10.096197 0 CFG=2
M  V30 35 C 6.602985 1.518260 -13.512930 0
M  V30 36 H 10.233809 5.177840 -10.738322 0
M  V30 37 H 11.457926 6.262896 -9.094265 0
M  V30 38 H 11.058516 8.098397 -6.035528 0
M  V30 39 H 8.387956 0.109486 -15.186955 0
M  V30 40 H 7.086201 -0.388352 -16.221209 0
M  V30 41 H 8.128912 1.389502 -20.624093 0
M  V30 42 H 8.989584 2.756707 -21.491336 0
M  V30 43 H 9.509145 6.145242 -7.072773 0
M  V30 44 H 6.551733 3.707691 -12.102560 0
M  V30 45 H 6.599632 4.756881 -13.489956 0
M  V30 46 H 10.492238 7.672726 -12.475233 0
M  V30 47 H 11.646034 6.382510 -12.304482 0
M  V30 48 H 9.521045 8.509219 -9.012980 0
M  V30 49 H 7.747887 7.769172 -6.979944 0
M  V30 50 H 11.206687 1.694337 -20.893766 0
M  V30 51 H 10.306381 0.361230 -20.008234 0
M  V30 52 H 8.054424 6.422625 -12.323962 0
M  V30 53 H 6.968809 5.769786 -10.219019 0
M  V30 54 H 8.321673 4.704606 -9.718996 0
M  V30 55 H 7.792670 0.719881 -17.890228 0
M  V30 56 H 6.651326 -0.590514 -13.791300 0
M  V30 57 H 5.417409 0.252855 -14.719151 0
M  V30 58 H 11.344707 8.855004 -10.686809 0
M  V30 59 H 12.724914 7.806350 -10.760578 0
M  V30 60 H 9.107923 4.554952 -13.545469 0
M  V30 61 H 9.063233 3.531515 -12.134260 0
M  V30 62 H 8.634839 7.655380 -10.647084 0
M  V30 63 H 6.306611 1.405973 -12.480381 0
M  V30 END ATOM
M  V30 BEGIN BOND
M  V30 1 1 6 5 CFG=1
M  V30 2 1 7 6
M  V30 3 1 10 7
M  V30 4 1 12 4
M  V30 5 1 15 6
M  V30 6 1 16 8
M  V30 7 1 17 9
M  V30 8 2 18 11
M  V30 9 1 18 13
M  V30 10 1 19 7
M  V30 11 1 20 15
M  V30 12 1 20 18
M  V30 13 2 20 19
M  V30 14 1 21 9
M  V30 15 1 21 16
M  V30 16 2 22 21
M  V30 17 1 23 3
M  V30 18 1 23 4
M  V30 19 2 23 14
M  V30 20 1 24 1
M  V30 21 1 25 3
M  V30 22 1 25 12
M  V30 23 1 26 12
M  V30 24 1 27 7
M  V30 25 1 27 10
M  V30 26 1 28 1
M  V30 27 1 29 28
M  V30 28 1 30 2
M  V30 29 1 30 6
M  V30 30 1 30 16
M  V30 31 1 31 8
M  V30 32 1 32 3
M  V30 33 1 32 24
M  V30 34 1 33 17
M  V30 35 1 33 28
M  V30 36 1 34 1
M  V30 37 1 34 25
M  V30 38 1 34 29
M  V30 39 2 35 9
M  V30 40 1 35 31
M  V30 41 1 1 36 CFG=1
M  V30 42 1 3 37 CFG=3
M  V30 43 1 38 4
M  V30 44 1 39 8
M  V30 45 1 40 8
M  V30 46 1 41 10
M  V30 47 1 42 10
M  V30 48 1 12 43 CFG=3
M  V30 49 1 44 17
M  V30 50 1 45 17
M  V30 51 1 46 24
M  V30 52 1 47 24
M  V30 53 1 25 48 CFG=1
M  V30 54 1 49 26
M  V30 55 1 50 27
M  V30 56 1 51 27
M  V30 57 1 28 52 CFG=3
M  V30 58 1 53 29
M  V30 59 1 54 29
M  V30 60 1 30 55 CFG=3
M  V30 61 1 56 31
M  V30 62 1 57 31
M  V30 63 1 58 32
M  V30 64 1 59 32
M  V30 65 1 60 33
M  V30 66 1 61 33
M  V30 67 1 34 62 CFG=3
M  V30 68 1 63 35
M  V30 END BOND
M  V30 END CTAB
M  END
>  <i_epik_Tot_Q>  (1) 
-1

>  <i_epik_Tot_abs_Q>  (1) 
3

>  <i_i_glide_confnum>  (1) 
269

>  <i_i_glide_lignum>  (1) 
18

>  <i_i_glide_posenum>  (1) 
338

>  <i_i_glide_rotatable_bonds>  (1) 
7

>  <i_lp_mmshare_version>  (1) 
72125

>  <i_m_source_file_index>  (1) 
9

>  <i_f3d_flags>  (1) 
0

>  <num_sample>  (1) 
50

>  <b_lp_Chiralities_Consistent>  (1) 
1

>  <r_epik_Charging_Adjusted_Penalty>  (1) 
0.25838740980645414

>  <r_epik_Ionization_Penalty>  (1) 
0.12923734989215022

>  <r_epik_Ionization_Penalty_Charging>  (1) 
0.12919370490322707

>  <r_epik_Ionization_Penalty_Neutral>  (1) 
4.364498892313774e-05

>  <r_epik_State_Penalty>  (1) 
0.1291937049032271

>  <r_glide_ring_energy>  (1) 
0

>  <r_i_docking_score>  (1) 
-4.3689487897077397

>  <r_i_glide_ecoul>  (1) 
-2.6383730734741828

>  <r_i_glide_eff_state_penalty>  (1) 
0.1291937049032271

>  <r_i_glide_einternal>  (1) 
3.0446341115060171

>  <r_i_glide_emodel>  (1) 
-37.42647550795035

>  <r_i_glide_emodel_strain>  (1) 
0.55247431930160928

>  <r_i_glide_energy>  (1) 
-32.319509224501267

>  <r_i_glide_erotb>  (1) 
0.42136342035921531

>  <r_i_glide_esite>  (1) 
-0.057634709904067161

>  <r_i_glide_evdw>  (1) 
-29.681136151027083

>  <r_i_glide_gscore>  (1) 
-4.4981424946109669

>  <r_i_glide_gscore_strain>  (1) 
0

>  <r_i_glide_hbond>  (1) 
-0.16

>  <r_i_glide_ligand_efficiency>  (1) 
-0.12482710827736399

>  <r_i_glide_ligand_efficiency_ln>  (1) 
-0.95908122293497622

>  <r_i_glide_ligand_efficiency_sa>  (1) 
-0.40831774848434865

>  <r_i_glide_lipo>  (1) 
-1.1011619342686592

>  <r_i_glide_metal>  (1) 
-0

>  <r_i_glide_rewards>  (1) 
-1.7208965022249747

>  <r_lp_Energy>  (1) 
83.181056999999996

>  <s_epik_Chemistry_Notes>  (1) 
This compound has an imine and may undergo hydrolysis. This compound contains an acetal/aminal-like group ( X-CH(R)-Y where X, Y are N, S, or O) that may be acid/base labile, releasing an aldehyde.

>  <s_epik_cmdline>  (1) 
J2VwaWtfcHl0aG9uJywgJy1waHQnLCAnMS4wJywgJy1waCcsICc3LjQnLCAnLXRuJywgJzgnLCAnLW1hJywgJzUwMCcsICctaW1hZScsICc8aW5maWxlLm1hZT4nLCAnLW9tYWUnLCAnPG91dGZpbGUubWFlPic=

>  <s_epik_input>  (1) 
W09IXVtDQEBIXTFbTkhdQyg9TylbQ0BIXShbQ0gyXVtDSDJdMilbQ0BIXTFbQ0BASF0oW0NASF0yMylbQ0gyXVtDQEBIXTNbQ0gyXVtDSDJdQzQ9W0NIXVtDSDJdW0NIMl1OKEM0PU8pW0NAQEhdKFtPSF0pW0NAQF0oRikoQzU2W0NIMl1bQ0gyXTYpT0MoPU41KVtOK10oPU8pW08tXQ==

>  <s_glide_docking_method>  (1) 
confgen

>  <s_i_glide_gridfile>  (1) 
gpcr_drd2_6luq_protein_autoprepared_prepared

>  <s_lp_Force_Field>  (1) 
S-OPLS

>  <s_lp_Variant>  (1) 
DiffSBDD_8_num_sample_50-1

>  <s_m_source_file>  (1) 
generated__ligand_DiffSBDD_2026-05-06_prepared.sdf

>  <GenAI_Model>  (1) 
DiffSBDD

>  <Protein>  (1) 
generic_title2

$$$$
DiffSBDD_1_num_sample_50
     RDKit          3D

  0  0  0  0  0  0  0  0  0  0999 V3000
M  V30 BEGIN CTAB
M  V30 COUNTS 72 77 0 0 1
M  V30 BEGIN ATOM
M  V30 1 N 8.233814 3.680506 -14.342452 0
M  V30 2 C 4.963168 3.978091 -20.291742 0
M  V30 3 C 9.687925 6.402790 -10.198263 0
M  V30 4 O 11.581583 7.872784 -9.984138 0
M  V30 5 C 7.435518 2.794674 -16.528761 0
M  V30 6 O 6.516864 1.993196 -13.890956 0
M  V30 7 C 7.722549 4.792739 -10.424952 0
M  V30 8 C 9.213401 4.543423 -13.663419 0
M  V30 9 C 11.860292 9.161455 -9.477271 0
M  V30 10 C 10.603657 7.104542 -9.384649 0
M  V30 11 C 7.239953 2.983287 -18.048267 0
M  V30 12 C 8.075447 3.395952 -20.896300 0
M  V30 13 C 8.411863 5.026576 -16.425942 0
M  V30 14 C 8.634852 5.464082 -8.208807 0
M  V30 15 O 10.681145 8.578887 -6.316546 0
M  V30 16 C 8.695512 5.569474 -9.614717 0
M  V30 17 C 6.985264 1.414097 -16.021502 0 CFG=2
M  V30 18 C 7.194820 0.997856 -14.590916 0
M  V30 19 N 7.650552 4.287348 -18.567044 0
M  V30 20 C 8.558571 5.537446 -12.695389 0 CFG=1
M  V30 21 O 11.413426 7.652114 -7.169763 0
M  V30 22 C 8.005403 3.793065 -15.748538 0
M  V30 23 C 7.646905 4.757816 -11.774002 0
M  V30 24 C 9.538958 6.170511 -7.395642 0
M  V30 25 C 8.131772 3.840647 -22.366172 0
M  V30 26 C 7.415390 2.893569 -13.400608 0 CFG=2
M  V30 27 O 7.556791 0.396633 -16.822214 0
M  V30 28 C 6.220362 5.480816 -21.953101 0 CFG=1
M  V30 29 S 9.804763 6.569065 -11.936068 0
M  V30 30 C 8.226279 5.214811 -17.734867 0
M  V30 31 C 10.525579 6.987881 -7.973582 0
M  V30 32 C 6.099816 5.004037 -20.480668 0 CFG=2
M  V30 33 C 6.644397 3.871556 -12.487680 0
M  V30 34 C 7.503183 4.522055 -20.010782 0 CFG=2
M  V30 35 C 6.771347 4.360957 -22.859984 0
M  V30 36 C 4.927267 6.093217 -22.520724 0
M  V30 37 H 5.180306 3.019900 -20.761932 0
M  V30 38 H 4.775543 3.802158 -19.239705 0
M  V30 39 H 4.016978 4.337537 -20.691553 0
M  V30 40 H 7.028209 4.186121 -9.861448 0
M  V30 41 H 9.912731 5.032151 -14.338078 0
M  V30 42 H 9.842946 3.877384 -13.076072 0
M  V30 43 H 12.238812 9.775318 -10.291551 0
M  V30 44 H 10.968947 9.647004 -9.091679 0
M  V30 45 H 12.631647 9.123359 -8.709222 0
M  V30 46 H 7.846876 2.225947 -18.542944 0
M  V30 47 H 6.210250 2.748847 -18.290917 0
M  V30 48 H 9.078904 3.130754 -20.561639 0
M  V30 49 H 7.470290 2.493492 -20.813215 0
M  V30 50 H 8.864821 5.819135 -15.856196 0
M  V30 51 H 7.884014 4.837151 -7.751257 0
M  V30 52 H 10.577541 9.314327 -6.900012 0
M  V30 53 H 5.913706 1.369324 -16.220144 0
M  V30 54 H 8.250755 0.869481 -14.337993 0
M  V30 55 H 6.703066 0.042709 -14.400396 0
M  V30 56 H 7.923408 6.210392 -13.272223 0
M  V30 57 H 9.478236 6.079788 -6.320926 0
M  V30 58 H 8.878990 4.627482 -22.475898 0
M  V30 59 H 8.464715 3.012938 -22.993304 0
M  V30 60 H 8.117333 2.336704 -12.773972 0
M  V30 61 H 8.460802 0.285431 -16.571622 0
M  V30 62 H 6.955537 6.287302 -21.962915 0
M  V30 63 H 8.520783 6.129061 -18.229867 0
M  V30 64 H 5.839743 5.876856 -19.879791 0
M  V30 65 H 6.045511 3.303418 -11.775649 0
M  V30 66 H 5.964840 4.473644 -13.091997 0
M  V30 67 H 8.165410 5.366614 -20.206622 0
M  V30 68 H 6.884319 4.738775 -23.874357 0
M  V30 69 H 6.059356 3.536804 -22.920034 0
M  V30 70 H 4.158380 5.340003 -22.692335 0
M  V30 71 H 4.519226 6.848899 -21.849045 0
M  V30 72 H 5.118637 6.576987 -23.479137 0
M  V30 END ATOM
M  V30 BEGIN BOND
M  V30 1 1 8 1
M  V30 2 1 9 4
M  V30 3 1 10 3
M  V30 4 1 10 4
M  V30 5 1 11 5
M  V30 6 2 16 3
M  V30 7 1 16 7
M  V30 8 1 16 14
M  V30 9 1 17 5
M  V30 10 1 18 6
M  V30 11 1 18 17
M  V30 12 1 19 11
M  V30 13 1 20 8
M  V30 14 1 21 15
M  V30 15 1 22 1
M  V30 16 2 22 5
M  V30 17 1 22 13
M  V30 18 2 23 7
M  V30 19 1 23 20
M  V30 20 2 24 14
M  V30 21 1 25 12
M  V30 22 1 26 1
M  V30 23 1 26 6
M  V30 24 1 27 17
M  V30 25 1 29 3
M  V30 26 1 29 20
M  V30 27 2 30 13
M  V30 28 1 30 19
M  V30 29 2 31 10
M  V30 30 1 31 21
M  V30 31 1 31 24
M  V30 32 1 32 2
M  V30 33 1 32 28
M  V30 34 1 33 23
M  V30 35 1 33 26
M  V30 36 1 34 12
M  V30 37 1 34 19
M  V30 38 1 34 32
M  V30 39 1 35 25
M  V30 40 1 35 28
M  V30 41 1 36 28
M  V30 42 1 37 2
M  V30 43 1 38 2
M  V30 44 1 39 2
M  V30 45 1 40 7
M  V30 46 1 41 8
M  V30 47 1 42 8
M  V30 48 1 43 9
M  V30 49 1 44 9
M  V30 50 1 45 9
M  V30 51 1 46 11
M  V30 52 1 47 11
M  V30 53 1 48 12
M  V30 54 1 49 12
M  V30 55 1 50 13
M  V30 56 1 51 14
M  V30 57 1 52 15
M  V30 58 1 17 53 CFG=3
M  V30 59 1 54 18
M  V30 60 1 55 18
M  V30 61 1 20 56 CFG=3
M  V30 62 1 57 24
M  V30 63 1 58 25
M  V30 64 1 59 25
M  V30 65 1 26 60 CFG=1
M  V30 66 1 61 27
M  V30 67 1 28 62 CFG=1
M  V30 68 1 63 30
M  V30 69 1 32 64 CFG=1
M  V30 70 1 65 33
M  V30 71 1 66 33
M  V30 72 1 34 67 CFG=3
M  V30 73 1 68 35
M  V30 74 1 69 35
M  V30 75 1 70 36
M  V30 76 1 71 36
M  V30 77 1 72 36
M  V30 END BOND
M  V30 END CTAB
M  END
>  <i_epik_Tot_Q>  (1) 
0

>  <i_epik_Tot_abs_Q>  (1) 
0

>  <i_i_glide_confnum>  (1) 
4

>  <i_i_glide_lignum>  (1) 
5

>  <i_i_glide_posenum>  (1) 
369

>  <i_i_glide_rotatable_bonds>  (1) 
5

>  <i_lp_mmshare_version>  (1) 
72125

>  <i_m_source_file_index>  (1) 
2

>  <i_f3d_flags>  (1) 
0

>  <num_sample>  (1) 
50

>  <b_lp_Chiralities_Consistent>  (1) 
1

>  <r_epik_Charging_Adjusted_Penalty>  (1) 
1.7947178929853217e-12

>  <r_epik_Ionization_Penalty>  (1) 
2.2136665369831182e-05

>  <r_epik_Ionization_Penalty_Charging>  (1) 
1.7947178929853217e-12

>  <r_epik_Ionization_Penalty_Neutral>  (1) 
2.2136663575113287e-05

>  <r_epik_State_Penalty>  (1) 
-0

>  <r_glide_ring_energy>  (1) 
0

>  <r_i_docking_score>  (1) 
-4.3616849524076269

>  <r_i_glide_ecoul>  (1) 
-1.4635070720433507

>  <r_i_glide_eff_state_penalty>  (1) 
-0

>  <r_i_glide_einternal>  (1) 
0.086430221505767069

>  <r_i_glide_emodel>  (1) 
-47.27955227781753

>  <r_i_glide_emodel_strain>  (1) 
0.080515071288502327

>  <r_i_glide_energy>  (1) 
-39.805197744969391

>  <r_i_glide_erotb>  (1) 
0.15600053340392078

>  <r_i_glide_esite>  (1) 
0

>  <r_i_glide_evdw>  (1) 
-38.341690672926042

>  <r_i_glide_gscore>  (1) 
-4.3616849524076269

>  <r_i_glide_gscore_strain>  (1) 
0

>  <r_i_glide_hbond>  (1) 
0

>  <r_i_glide_ligand_efficiency>  (1) 
-0.12115791534465631

>  <r_i_glide_ligand_efficiency_ln>  (1) 
-0.95160181750591732

>  <r_i_glide_ligand_efficiency_sa>  (1) 
-0.40005462209578913

>  <r_i_glide_lipo>  (1) 
-1.48542378721169

>  <r_i_glide_metal>  (1) 
-0

>  <r_i_glide_rewards>  (1) 
-0.89565110414705273

>  <r_lp_Energy>  (1) 
75.115066999999996

>  <r_lp_tautomer_probability>  (1) 
1

>  <s_epik_Chemistry_Notes>  (1) 
This compound has an imine and may undergo hydrolysis. This compound contains an acetal/aminal-like group ( X-CH(R)-Y where X, Y are N, S, or O) that may be acid/base labile, releasing an aldehyde.

>  <s_epik_cmdline>  (1) 
J2VwaWtfcHl0aG9uJywgJy1waHQnLCAnMS4wJywgJy1waCcsICc3LjQnLCAnLXRuJywgJzgnLCAnLW1hJywgJzUwMCcsICctaW1hZScsICc8aW5maWxlLm1hZT4nLCAnLW9tYWUnLCAnPG91dGZpbGUubWFlPic=

>  <s_epik_input>  (1) 
W0NIMl0xW0NIMl1bQ0gyXVtDQEBIXShbQ0BIXShbQ0gzXSlbQ0BASF0xW0NIM10pTihbQ0hdPVtDSF0yKVtDSDJdQyg9QzJOMzQpW0NAQEhdKFtPSF0pW0NIMl1PW0NAQEhdNFtDSDJdQzVbQ0BASF0oW0NIMl0zKVNjNmMoW0NIXT01KVtjSF1bY0hdYyhPW09IXSljNk9bQ0gzXQ==

>  <s_glide_docking_method>  (1) 
confgen

>  <s_i_glide_gridfile>  (1) 
gpcr_drd2_6luq_protein_autoprepared_prepared

>  <s_lp_Force_Field>  (1) 
S-OPLS

>  <s_lp_Variant>  (1) 
DiffSBDD_1_num_sample_50-2

>  <s_m_source_file>  (1) 
generated__ligand_DiffSBDD_2026-05-06_prepared.sdf

>  <GenAI_Model>  (1) 
DiffSBDD

>  <Protein>  (1) 
generic_title2

$$$$
DiffSBDD_43_num_sample_50
     RDKit          3D

  0  0  0  0  0  0  0  0  0  0999 V3000
M  V30 BEGIN CTAB
M  V30 COUNTS 58 58 0 0 1
M  V30 BEGIN ATOM
M  V30 1 C 8.154734 4.970379 -9.460093 0
M  V30 2 C 10.992216 7.002870 -4.867008 0
M  V30 3 N 6.655051 1.368057 -16.586511 0
M  V30 4 O 7.914066 5.119163 -13.988550 0
M  V30 5 C 9.739644 7.005603 -9.424966 0
M  V30 6 C 11.447421 7.218667 -7.410057 0 CFG=2
M  V30 7 C 9.128878 6.701248 -12.616000 0 CFG=1
M  V30 8 O 9.434919 8.144574 -6.354316 0
M  V30 9 O 13.034838 8.489327 -2.376488 0
M  V30 10 N 8.343689 6.456049 -11.423451 0
M  V30 11 C 12.294530 8.415833 -3.288003 0
M  V30 12 F 10.351747 7.128113 -12.291959 0
M  V30 13 O 8.504686 4.681758 -8.292356 0
M  V30 14 C 6.427581 0.339869 -14.323251 0
M  V30 15 C 7.835664 2.208899 -16.415337 0 CFG=1
M  V30 16 C 9.210701 5.440929 -13.501455 0
M  V30 17 C 9.080509 5.882302 -10.287419 0 CFG=2
M  V30 18 C 11.004250 6.528674 -8.707358 0
M  V30 19 O 8.057570 4.331155 -15.266166 0
M  V30 20 C 10.393202 7.106522 -6.284100 0 CFG=2
M  V30 21 F 5.623698 -0.603531 -16.283482 0
M  V30 22 C 7.897621 2.973687 -15.095506 0
M  V30 23 C 11.452681 8.333184 -4.291219 0
M  V30 24 O 7.109492 4.568926 -10.018896 0 CHG=-1
M  V30 25 C 7.813140 2.418610 -13.865461 0
M  V30 26 C 7.645589 0.936423 -13.610543 0
M  V30 27 C 12.081057 8.609137 -7.623334 0
M  V30 28 C 13.302486 8.569222 -8.553860 0
M  V30 29 F 8.937193 1.488311 -16.627790 0
M  V30 30 C 6.641402 0.124872 -15.828161 0 CFG=1
M  V30 31 H 10.235454 6.569371 -4.211085 0
M  V30 32 H 11.813647 6.284323 -4.850561 0
M  V30 33 H 5.811269 1.895622 -16.419946 0
M  V30 34 H 9.032946 7.364104 -8.691504 0
M  V30 35 H 9.984578 7.884853 -10.019362 0
M  V30 36 H 12.261534 6.581412 -7.071831 0
M  V30 37 H 8.634811 7.511647 -13.148741 0
M  V30 38 H 8.758939 7.874681 -6.965206 0
M  V30 39 H 7.779180 7.240035 -11.108765 0
M  V30 40 H 6.230657 -0.630699 -13.869865 0
M  V30 41 H 5.535541 0.938583 -14.134748 0
M  V30 42 H 7.821165 2.947129 -17.217810 0
M  V30 43 H 9.873540 5.635055 -14.344980 0
M  V30 44 H 9.635733 4.595443 -12.959807 0
M  V30 45 H 9.835593 5.211693 -10.686213 0
M  V30 46 H 11.810283 6.569351 -9.433549 0
M  V30 47 H 10.870137 5.480493 -8.445093 0
M  V30 48 H 9.844092 6.174949 -6.434696 0
M  V30 49 H 11.045002 9.224305 -4.745056 0
M  V30 50 H 7.870242 3.043903 -12.987521 0
M  V30 51 H 8.560994 0.410138 -13.884722 0
M  V30 52 H 7.527887 0.802488 -12.534754 0
M  V30 53 H 11.346775 9.319439 -8.001917 0
M  V30 54 H 12.415276 9.002249 -6.666033 0
M  V30 55 H 14.018191 9.348058 -8.291759 0
M  V30 56 H 13.834826 7.625471 -8.483535 0
M  V30 57 H 13.010762 8.705033 -9.595513 0
M  V30 58 H 7.540973 -0.462061 -16.019813 0
M  V30 END ATOM
M  V30 BEGIN BOND
M  V30 1 1 10 7
M  V30 2 2 11 9
M  V30 3 1 12 7
M  V30 4 2 13 1
M  V30 5 1 15 3
M  V30 6 1 16 4
M  V30 7 1 16 7
M  V30 8 1 17 1
M  V30 9 1 17 5
M  V30 10 1 17 10
M  V30 11 1 18 5
M  V30 12 1 18 6
M  V30 13 1 19 4
M  V30 14 1 20 2
M  V30 15 1 20 6
M  V30 16 1 20 8
M  V30 17 1 22 15
M  V30 18 1 22 19
M  V30 19 1 23 2
M  V30 20 2 23 11
M  V30 21 1 24 1
M  V30 22 2 25 22
M  V30 23 1 26 14
M  V30 24 1 26 25
M  V30 25 1 27 6
M  V30 26 1 28 27
M  V30 27 1 29 15
M  V30 28 1 30 3
M  V30 29 1 30 14
M  V30 30 1 30 21
M  V30 31 1 31 2
M  V30 32 1 32 2
M  V30 33 1 33 3
M  V30 34 1 34 5
M  V30 35 1 35 5
M  V30 36 1 6 36 CFG=1
M  V30 37 1 7 37 CFG=3
M  V30 38 1 38 8
M  V30 39 1 39 10
M  V30 40 1 40 14
M  V30 41 1 41 14
M  V30 42 1 15 42 CFG=3
M  V30 43 1 43 16
M  V30 44 1 44 16
M  V30 45 1 17 45 CFG=3
M  V30 46 1 46 18
M  V30 47 1 47 18
M  V30 48 1 20 48 CFG=3
M  V30 49 1 49 23
M  V30 50 1 50 25
M  V30 51 1 51 26
M  V30 52 1 52 26
M  V30 53 1 53 27
M  V30 54 1 54 27
M  V30 55 1 55 28
M  V30 56 1 56 28
M  V30 57 1 57 28
M  V30 58 1 30 58 CFG=1
M  V30 END BOND
M  V30 END CTAB
M  END
>  <i_epik_Tot_Q>  (1) 
-1

>  <i_epik_Tot_abs_Q>  (1) 
1

>  <i_i_glide_confnum>  (1) 
1356

>  <i_i_glide_lignum>  (1) 
107

>  <i_i_glide_posenum>  (1) 
341

>  <i_i_glide_rotatable_bonds>  (1) 
15

>  <i_lp_mmshare_version>  (1) 
72125

>  <i_m_source_file_index>  (1) 
44

>  <i_f3d_flags>  (1) 
0

>  <num_sample>  (1) 
50

>  <b_lp_Chiralities_Consistent>  (1) 
1

>  <r_epik_Charging_Adjusted_Penalty>  (1) 
0.10859487374936995

>  <r_epik_Ionization_Penalty>  (1) 
0.10861046635066096

>  <r_epik_Ionization_Penalty_Charging>  (1) 
0.0014700329650535538

>  <r_epik_Ionization_Penalty_Neutral>  (1) 
0.10714043338560741

>  <r_epik_State_Penalty>  (1) 
0.1071248407843164

>  <r_glide_ring_energy>  (1) 
0

>  <r_i_docking_score>  (1) 
-4.3589634393555903

>  <r_i_glide_ecoul>  (1) 
-2.2214860140345323

>  <r_i_glide_eff_state_penalty>  (1) 
0.1071248407843164

>  <r_i_glide_einternal>  (1) 
14.72316199390035

>  <r_i_glide_emodel>  (1) 
-31.703457235483235

>  <r_i_glide_emodel_strain>  (1) 
3.1540531407878802

>  <r_i_glide_energy>  (1) 
-34.188243929871447

>  <r_i_glide_erotb>  (1) 
1.1463316203487632

>  <r_i_glide_esite>  (1) 
-0.076029346432538919

>  <r_i_glide_evdw>  (1) 
-31.966757915836912

>  <r_i_glide_gscore>  (1) 
-4.4660882801399069

>  <r_i_glide_gscore_strain>  (1) 
0

>  <r_i_glide_hbond>  (1) 
-0.12279364060705966

>  <r_i_glide_ligand_efficiency>  (1) 
-0.145298781311853

>  <r_i_glide_ligand_efficiency_ln>  (1) 
-0.99040398813228969

>  <r_i_glide_ligand_efficiency_sa>  (1) 
-0.4514770963676708

>  <r_i_glide_lipo>  (1) 
-2.3095015181473859

>  <r_i_glide_metal>  (1) 
-0

>  <r_i_glide_rewards>  (1) 
-1.172534597404661

>  <r_lp_Energy>  (1) 
15.498576999999999

>  <s_epik_cmdline>  (1) 
J2VwaWtfcHl0aG9uJywgJy1waHQnLCAnMS4wJywgJy1waCcsICc3LjQnLCAnLXRuJywgJzgnLCAnLW1hJywgJzUwMCcsICctaW1hZScsICc8aW5maWxlLm1hZT4nLCAnLW9tYWUnLCAnPG91dGZpbGUubWFlPic=

>  <s_epik_input>  (1) 
Tz1DPVtDSF1bQ0gyXVtDQEBIXShbT0hdKVtDQEhdKFtDSDJdW0NIM10pW0NIMl1bQ0gyXVtDQEBIXShDKD1PKVtPSF0pW05IXVtDQEBIXShGKVtDSDJdT09DMT1bQ0hdW0NIMl1bQ0gyXVtDQEBIXShGKVtOSF1bQ0BIXTFG

>  <s_glide_docking_method>  (1) 
confgen

>  <s_i_glide_gridfile>  (1) 
gpcr_drd2_6luq_protein_autoprepared_prepared

>  <s_lp_Force_Field>  (1) 
S-OPLS

>  <s_lp_Variant>  (1) 
DiffSBDD_43_num_sample_50-2

>  <s_m_source_file>  (1) 
generated__ligand_DiffSBDD_2026-05-06_prepared.sdf

>  <GenAI_Model>  (1) 
DiffSBDD

>  <Protein>  (1) 
generic_title2

$$$$
DiffSBDD_31_num_sample_50
     RDKit          3D

  0  0  0  0  0  0  0  0  0  0999 V3000
M  V30 BEGIN CTAB
M  V30 COUNTS 71 76 0 0 1
M  V30 BEGIN ATOM
M  V30 1 C 10.467597 6.923075 -6.310615 0
M  V30 2 C 10.103499 6.862147 -9.115816 0
M  V30 3 C 12.081006 4.970746 -16.657485 0
M  V30 4 C 6.977433 5.196925 -16.045678 0
M  V30 5 C 9.300390 4.258177 -16.243900 0
M  V30 6 C 8.973664 4.286894 -12.790656 0
M  V30 7 C 9.310349 3.409647 -18.621437 0 CFG=2
M  V30 8 C 11.079454 6.969299 -11.584824 0
M  V30 9 F 10.639550 6.953316 -4.969533 0
M  V30 10 C 11.391016 7.560819 -7.148514 0
M  V30 11 C 9.896878 6.865263 -10.627108 0
M  V30 12 C 7.600968 3.133865 -14.676486 0
M  V30 13 C 6.545366 6.048110 -12.370737 0
M  V30 14 C 7.799665 6.840283 -11.975803 0
M  V30 15 C 8.919955 4.689281 -11.304590 0
M  V30 16 C 11.216073 7.531749 -8.542092 0
M  V30 17 F 8.163240 4.007895 -18.949459 0
M  V30 18 C 9.364467 6.253428 -6.863388 0
M  V30 19 C 9.181708 6.216992 -8.256184 0
M  V30 20 C 11.316406 4.400036 -17.613193 0
M  V30 21 N 8.715601 6.119874 -11.089934 0
M  V30 22 C 7.140130 6.035296 -14.789223 0
M  V30 23 C 9.106334 1.874509 -18.518080 0
M  V30 24 C 7.831876 3.918587 -15.983917 0 CFG=1
M  V30 25 O 10.318004 1.187653 -18.273880 0
M  V30 26 C 10.234813 8.169309 -11.306367 0
M  V30 27 C 8.116261 1.709320 -14.561171 0
M  V30 28 C 9.959315 4.033825 -17.414950 0
M  V30 29 C 10.441810 3.829559 -19.678661 0 CFG=2
M  V30 30 O 10.592830 2.937646 -20.767204 0
M  V30 31 C 6.646697 1.949404 -14.732448 0
M  V30 32 C 7.575104 4.009153 -13.403814 0 CFG=2
M  V30 33 N 6.752543 5.236961 -13.598109 0 CFG=1 CHG=1
M  V30 34 C 11.837713 4.124447 -18.975952 0
M  V30 35 H 13.107447 5.237064 -16.862920 0
M  V30 36 H 11.704698 5.178695 -15.672108 0
M  V30 37 H 7.241641 5.782787 -16.927425 0
M  V30 38 H 5.922067 4.969303 -16.151522 0
M  V30 39 H 9.817110 4.718170 -15.427136 0
M  V30 40 H 9.542222 5.015388 -13.360533 0
M  V30 41 H 9.556746 3.368491 -12.831983 0
M  V30 42 H 12.084945 6.969365 -11.177791 0
M  V30 43 H 10.994414 6.543567 -12.581203 0
M  V30 44 H 12.234690 8.079779 -6.722774 0
M  V30 45 H 5.743240 6.757517 -12.578578 0
M  V30 46 H 6.182813 5.435065 -11.544520 0
M  V30 47 H 8.335115 7.167023 -12.859268 0
M  V30 48 H 7.485469 7.762115 -11.491651 0
M  V30 49 H 9.834831 4.381652 -10.799549 0
M  V30 50 H 8.119535 4.153180 -10.795218 0
M  V30 51 H 11.932482 8.031304 -9.174720 0
M  V30 52 H 8.650246 5.769300 -6.216804 0
M  V30 53 H 8.322190 5.707417 -8.665148 0
M  V30 54 H 8.172758 6.373736 -14.735006 0
M  V30 55 H 6.514540 6.925897 -14.863466 0
M  V30 56 H 8.683757 1.497126 -19.450258 0
M  V30 57 H 8.399689 1.604442 -17.736786 0
M  V30 58 H 7.463853 3.289578 -16.786412 0
M  V30 59 H 10.893143 1.365161 -19.005775 0
M  V30 60 H 9.681255 8.561872 -12.153504 0
M  V30 61 H 10.693650 8.938934 -10.691715 0
M  V30 62 H 8.634823 1.277548 -15.412823 0
M  V30 63 H 8.454210 1.359829 -13.587013 0
M  V30 64 H 10.116594 4.777517 -20.112357 0
M  V30 65 H 11.124759 3.356002 -21.428029 0
M  V30 66 H 6.004657 1.752171 -13.875590 0
M  V30 67 H 6.234774 1.653843 -15.695127 0
M  V30 68 H 7.040062 3.422229 -12.656134 0
M  V30 69 H 12.365842 4.973749 -19.410405 0
M  V30 70 H 12.488128 3.249518 -18.952524 0
M  V30 71 H 5.833471 4.883071 -13.820150 0
M  V30 END ATOM
M  V30 BEGIN BOND
M  V30 1 1 9 1
M  V30 2 1 10 1
M  V30 3 1 11 2
M  V30 4 1 11 8
M  V30 5 1 14 13
M  V30 6 1 15 6
M  V30 7 1 16 2
M  V30 8 2 16 10
M  V30 9 1 7 17 CFG=3
M  V30 10 2 18 1
M  V30 11 2 19 2
M  V30 12 1 19 18
M  V30 13 2 20 3
M  V30 14 1 21 11
M  V30 15 1 21 14
M  V30 16 1 21 15
M  V30 17 1 22 4
M  V30 18 1 23 7
M  V30 19 1 24 4
M  V30 20 1 24 5
M  V30 21 1 24 12
M  V30 22 1 25 23
M  V30 23 1 26 8
M  V30 24 1 26 11
M  V30 25 1 27 12
M  V30 26 2 28 5
M  V30 27 1 28 7
M  V30 28 1 28 20
M  V30 29 1 29 7
M  V30 30 1 30 29
M  V30 31 1 31 12
M  V30 32 1 31 27
M  V30 33 1 32 6
M  V30 34 1 32 12
M  V30 35 1 33 13
M  V30 36 1 33 22
M  V30 37 1 33 32
M  V30 38 1 34 20
M  V30 39 1 34 29
M  V30 40 1 35 3
M  V30 41 1 36 3
M  V30 42 1 37 4
M  V30 43 1 38 4
M  V30 44 1 39 5
M  V30 45 1 40 6
M  V30 46 1 41 6
M  V30 47 1 42 8
M  V30 48 1 43 8
M  V30 49 1 44 10
M  V30 50 1 45 13
M  V30 51 1 46 13
M  V30 52 1 47 14
M  V30 53 1 48 14
M  V30 54 1 49 15
M  V30 55 1 50 15
M  V30 56 1 51 16
M  V30 57 1 52 18
M  V30 58 1 53 19
M  V30 59 1 54 22
M  V30 60 1 55 22
M  V30 61 1 56 23
M  V30 62 1 57 23
M  V30 63 1 24 58 CFG=3
M  V30 64 1 59 25
M  V30 65 1 60 26
M  V30 66 1 61 26
M  V30 67 1 62 27
M  V30 68 1 63 27
M  V30 69 1 29 64 CFG=3
M  V30 70 1 65 30
M  V30 71 1 66 31
M  V30 72 1 67 31
M  V30 73 1 32 68 CFG=1
M  V30 74 1 69 34
M  V30 75 1 70 34
M  V30 76 1 33 71 CFG=3
M  V30 END BOND
M  V30 END CTAB
M  END
>  <i_epik_Tot_Q>  (1) 
1

>  <i_epik_Tot_abs_Q>  (1) 
1

>  <i_i_glide_confnum>  (1) 
205

>  <i_i_glide_lignum>  (1) 
78

>  <i_i_glide_posenum>  (1) 
396

>  <i_i_glide_rotatable_bonds>  (1) 
6

>  <i_lp_mmshare_version>  (1) 
72125

>  <i_m_source_file_index>  (1) 
32

>  <i_f3d_flags>  (1) 
0

>  <num_sample>  (1) 
50

>  <b_lp_Chiralities_Consistent>  (1) 
1

>  <r_epik_Charging_Adjusted_Penalty>  (1) 
0.0036996964664751512

>  <r_epik_Ionization_Penalty>  (1) 
0.0040620325304727405

>  <r_epik_Ionization_Penalty_Charging>  (1) 
0.0036996964664751512

>  <r_epik_Ionization_Penalty_Neutral>  (1) 
0.00036233606399758918

>  <r_epik_State_Penalty>  (1) 
-0

>  <r_glide_ring_energy>  (1) 
0

>  <r_i_docking_score>  (1) 
-4.3555933103059319

>  <r_i_glide_ecoul>  (1) 
-1.8643911984506423

>  <r_i_glide_eff_state_penalty>  (1) 
-0

>  <r_i_glide_einternal>  (1) 
10.623786717203117

>  <r_i_glide_emodel>  (1) 
-32.15737446407649

>  <r_i_glide_emodel_strain>  (1) 
0.096814375718309975

>  <r_i_glide_energy>  (1) 
-29.098890805386084

>  <r_i_glide_erotb>  (1) 
0.36352394052346937

>  <r_i_glide_esite>  (1) 
0

>  <r_i_glide_evdw>  (1) 
-27.23449960693544

>  <r_i_glide_gscore>  (1) 
-4.3555933103059319

>  <r_i_glide_gscore_strain>  (1) 
0

>  <r_i_glide_hbond>  (1) 
0

>  <r_i_glide_ligand_efficiency>  (1) 
-0.12810568559723329

>  <r_i_glide_ligand_efficiency_ln>  (1) 
-0.96227273250075218

>  <r_i_glide_ligand_efficiency_sa>  (1) 
-0.41501269087153997

>  <r_i_glide_lipo>  (1) 
-1.8929001491684394

>  <r_i_glide_metal>  (1) 
-0

>  <r_i_glide_rewards>  (1) 
-1.1848334415465938

>  <r_lp_Energy>  (1) 
29.781917

>  <r_lp_tautomer_probability>  (1) 
1

>  <s_epik_cmdline>  (1) 
J2VwaWtfcHl0aG9uJywgJy1waHQnLCAnMS4wJywgJy1waCcsICc3LjQnLCAnLXRuJywgJzgnLCAnLW1hJywgJzUwMCcsICctaW1hZScsICc8aW5maWxlLm1hZT4nLCAnLW9tYWUnLCAnPG91dGZpbGUubWFlPic=

>  <s_epik_input>  (1) 
RmMxW2NIXVtjSF1jKFtjSF1bY0hdMSlDMihbQ0gyXVtDSDJdMilOKFtDSDJdW0NIMl0zKVtDSDJdW0NIMl1OKFtDQEhdM0M0NVtDSDJdW0NIMl01KVtDSDJdW0NIMl1bQ0BIXTQvW0NIXT1DKFxbQ0BdNihGKVtDSDJdW09IXSlDKD1bQ0gyXSlbQ0gyXVtDQEhdNltPSF0=

>  <s_glide_docking_method>  (1) 
confgen

>  <s_i_glide_gridfile>  (1) 
gpcr_drd2_6luq_protein_autoprepared_prepared

>  <s_lp_Force_Field>  (1) 
S-OPLS

>  <s_lp_Variant>  (1) 
DiffSBDD_31_num_sample_50-1

>  <s_m_source_file>  (1) 
generated__ligand_DiffSBDD_2026-05-06_prepared.sdf

>  <GenAI_Model>  (1) 
DiffSBDD

>  <Protein>  (1) 
generic_title2

$$$$
DiffSBDD_21_num_sample_50
     RDKit          3D

  0  0  0  0  0  0  0  0  0  0999 V3000
M  V30 BEGIN CTAB
M  V30 COUNTS 58 61 0 0 1
M  V30 BEGIN ATOM
M  V30 1 C 12.246943 7.873761 -7.832064 0 CFG=2
M  V30 2 C 7.177223 1.784838 -16.248893 0 CFG=2
M  V30 3 C 10.467349 6.277404 -6.255557 0
M  V30 4 O 8.045075 1.354600 -15.210788 0
M  V30 5 C 6.098187 0.978798 -13.663269 0
M  V30 6 N 8.906597 2.966266 -12.573779 0
M  V30 7 C 10.030380 6.920051 -8.773152 0
M  V30 8 C 8.771189 6.523177 -12.379833 0
M  V30 9 O 6.962406 3.698142 -13.491153 0
M  V30 10 C 6.479852 0.524121 -16.796327 0
M  V30 11 C 10.935496 7.369310 -11.410150 0
M  V30 12 C 7.561824 1.404334 -13.869606 0 CFG=2
M  V30 13 F 7.322899 2.845032 -18.356150 0
M  V30 14 F 10.691725 9.369264 -6.808140 0
M  V30 15 C 11.663575 8.512307 -6.553835 0 CFG=1
M  V30 16 C 9.223994 6.582201 -9.881968 0
M  V30 17 C 11.758193 7.713731 -10.325472 0
M  V30 18 C 9.668676 6.831056 -11.193001 0
M  V30 19 C 11.130157 7.470453 -5.569947 0
M  V30 20 C 7.782510 2.798397 -13.286763 0
M  V30 21 C 9.645688 4.210939 -12.388221 0 CFG=1
M  V30 22 F 8.661063 3.530773 -16.798413 0
M  V30 23 C 9.348789 5.415480 -13.258981 0
M  V30 24 C 9.485722 6.673622 -7.362363 0
M  V30 25 O 13.387124 8.569287 -8.272562 0
M  V30 26 O 8.682940 3.846080 -11.490944 0
M  V30 27 C 5.355526 -0.044494 -15.917609 0
M  V30 28 C 8.058247 2.458567 -17.312677 0
M  V30 29 C 11.318821 7.499995 -8.995610 0
M  V30 30 C 5.706256 -0.259516 -14.445683 0
M  V30 31 H 12.711157 6.969334 -7.491681 0
M  V30 32 H 6.455544 2.517085 -15.893206 0
M  V30 33 H 9.906177 5.769382 -5.474980 0
M  V30 34 H 11.198920 5.559358 -6.631437 0
M  V30 35 H 5.957014 0.768974 -12.600174 0
M  V30 36 H 5.400689 1.778330 -13.891129 0
M  V30 37 H 7.779288 6.239483 -12.023708 0
M  V30 38 H 8.629162 7.432249 -12.964628 0
M  V30 39 H 6.050566 0.741353 -17.774870 0
M  V30 40 H 7.228340 -0.250556 -16.964136 0
M  V30 41 H 11.277492 7.528467 -12.420145 0
M  V30 42 H 8.189584 0.709586 -13.307517 0
M  V30 43 H 12.426989 9.095269 -6.036230 0
M  V30 44 H 8.241201 6.161770 -9.721405 0
M  V30 45 H 12.731854 8.138020 -10.517554 0
M  V30 46 H 10.418141 7.954333 -4.909075 0
M  V30 47 H 11.916905 7.097104 -4.916651 0
M  V30 48 H 10.634818 4.170250 -11.952204 0
M  V30 49 H 8.710562 5.201411 -14.110753 0
M  V30 50 H 10.288789 5.745218 -13.696622 0
M  V30 51 H 8.885296 7.531733 -7.055845 0
M  V30 52 H 8.766295 5.860112 -7.448576 0
M  V30 53 H 13.117193 9.347169 -8.740108 0
M  V30 54 H 4.464252 0.569169 -15.961030 0
M  V30 55 H 5.043621 -1.002631 -16.335961 0
M  V30 56 H 8.832266 1.784968 -17.682559 0
M  V30 57 H 4.797176 -0.630568 -13.978754 0
M  V30 58 H 6.467144 -1.030626 -14.333411 0
M  V30 END ATOM
M  V30 BEGIN BOND
M  V30 1 1 4 2
M  V30 2 1 10 2
M  V30 3 1 12 4
M  V30 4 1 12 5
M  V30 5 1 15 1
M  V30 6 1 15 14
M  V30 7 1 16 7
M  V30 8 2 17 11
M  V30 9 1 18 8
M  V30 10 1 18 11
M  V30 11 2 18 16
M  V30 12 1 19 3
M  V30 13 1 19 15
M  V30 14 1 20 6
M  V30 15 2 20 9
M  V30 16 1 20 12
M  V30 17 1 21 6
M  V30 18 1 23 8
M  V30 19 1 23 21
M  V30 20 1 24 3
M  V30 21 1 24 7
M  V30 22 1 25 1
M  V30 23 1 26 6
M  V30 24 1 26 21
M  V30 25 1 27 10
M  V30 26 1 28 2
M  V30 27 1 28 13
M  V30 28 1 28 22
M  V30 29 1 29 1
M  V30 30 2 29 7
M  V30 31 1 29 17
M  V30 32 1 30 5
M  V30 33 1 30 27
M  V30 34 1 1 31 CFG=1
M  V30 35 1 2 32 CFG=1
M  V30 36 1 33 3
M  V30 37 1 34 3
M  V30 38 1 35 5
M  V30 39 1 36 5
M  V30 40 1 37 8
M  V30 41 1 38 8
M  V30 42 1 39 10
M  V30 43 1 40 10
M  V30 44 1 41 11
M  V30 45 1 12 42 CFG=1
M  V30 46 1 15 43 CFG=1
M  V30 47 1 44 16
M  V30 48 1 45 17
M  V30 49 1 46 19
M  V30 50 1 47 19
M  V30 51 1 21 48 CFG=1
M  V30 52 1 49 23
M  V30 53 1 50 23
M  V30 54 1 51 24
M  V30 55 1 52 24
M  V30 56 1 53 25
M  V30 57 1 54 27
M  V30 58 1 55 27
M  V30 59 1 56 28
M  V30 60 1 57 30
M  V30 61 1 58 30
M  V30 END BOND
M  V30 END CTAB
M  END
>  <i_epik_Tot_Q>  (1) 
0

>  <i_epik_Tot_abs_Q>  (1) 
0

>  <i_i_glide_confnum>  (1) 
480

>  <i_i_glide_lignum>  (1) 
59

>  <i_i_glide_posenum>  (1) 
197

>  <i_i_glide_rotatable_bonds>  (1) 
7

>  <i_lp_mmshare_version>  (1) 
72125

>  <i_m_source_file_index>  (1) 
22

>  <i_f3d_flags>  (1) 
0

>  <num_sample>  (1) 
50

>  <b_lp_Chiralities_Consistent>  (1) 
1

>  <r_epik_Charging_Adjusted_Penalty>  (1) 
0

>  <r_epik_Ionization_Penalty>  (1) 
2.1179066564973658e-05

>  <r_epik_Ionization_Penalty_Charging>  (1) 
0

>  <r_epik_Ionization_Penalty_Neutral>  (1) 
2.1179066564973658e-05

>  <r_epik_State_Penalty>  (1) 
-0

>  <r_glide_ring_energy>  (1) 
1.8322332347215613

>  <r_i_docking_score>  (1) 
-4.3472900068372491

>  <r_i_glide_ecoul>  (1) 
-2.7120208346003274

>  <r_i_glide_eff_state_penalty>  (1) 
-0

>  <r_i_glide_einternal>  (1) 
2.281043192859272

>  <r_i_glide_emodel>  (1) 
-27.188369713946759

>  <r_i_glide_emodel_strain>  (1) 
0.087893744152694353

>  <r_i_glide_energy>  (1) 
-22.349143816259392

>  <r_i_glide_erotb>  (1) 
0.54329591006541389

>  <r_i_glide_esite>  (1) 
-0.0031540771486207528

>  <r_i_glide_evdw>  (1) 
-19.637122981659065

>  <r_i_glide_gscore>  (1) 
-4.3472900068372491

>  <r_i_glide_gscore_strain>  (1) 
0

>  <r_i_glide_hbond>  (1) 
-0.057136246641725265

>  <r_i_glide_ligand_efficiency>  (1) 
-0.14490966689457496

>  <r_i_glide_ligand_efficiency_ln>  (1) 
-0.98775165707188795

>  <r_i_glide_ligand_efficiency_sa>  (1) 
-0.45026802740176919

>  <r_i_glide_lipo>  (1) 
-1.942825872473563

>  <r_i_glide_metal>  (1) 
-0

>  <r_i_glide_rewards>  (1) 
-1.4988104463657517

>  <r_lp_Energy>  (1) 
33.981971000000001

>  <r_lp_tautomer_probability>  (1) 
1

>  <s_epik_Chemistry_Notes>  (1) 
This compound contains an acetal/aminal-like group ( X-CH(R)-Y where X, Y are N, S, or O) that may be acid/base labile, releasing an aldehyde. This compound has a N-S or N-O group and may undergo hydrolysis at high or low pH.

>  <s_epik_cmdline>  (1) 
J2VwaWtfcHl0aG9uJywgJy1waHQnLCAnMS4wJywgJy1waCcsICc3LjQnLCAnLXRuJywgJzgnLCAnLW1hJywgJzUwMCcsICctaW1hZScsICc8aW5maWxlLm1hZT4nLCAnLW9tYWUnLCAnPG91dGZpbGUubWFlPic=

>  <s_epik_input>  (1) 
W0NIMl0xW0NIMl1bQ0gyXVtDQEhdKEYpW0NASF0oW09IXSljKGMxMilbY0hdW2NIXWMoW2NIXTIpW0NIMl1bQ0gyXVtDQEBIXShPMylOM0MoPU8pW0NASF0oT1tDQEhdNFtDSF0oRilGKVtDSDJdW0NIMl1bQ0gyXVtDSDJdNA==

>  <s_glide_docking_method>  (1) 
confgen

>  <s_i_glide_gridfile>  (1) 
gpcr_drd2_6luq_protein_autoprepared_prepared

>  <s_lp_Force_Field>  (1) 
S-OPLS

>  <s_lp_Variant>  (1) 
DiffSBDD_21_num_sample_50-1

>  <s_m_source_file>  (1) 
generated__ligand_DiffSBDD_2026-05-06_prepared.sdf

>  <GenAI_Model>  (1) 
DiffSBDD

>  <Protein>  (1) 
generic_title2

$$$$
DiffSBDD_2_num_sample_50
     RDKit          3D

  0  0  0  0  0  0  0  0  0  0999 V3000
M  V30 BEGIN CTAB
M  V30 COUNTS 54 57 0 0 1
M  V30 BEGIN ATOM
M  V30 1 C 9.552720 5.952222 -7.785687 0 CFG=1
M  V30 2 C 9.737543 7.060491 -10.708768 0
M  V30 3 O 11.237178 7.769354 -9.064075 0 CHG=-1
M  V30 4 C 6.762240 1.799766 -13.546981 0
M  V30 5 O 8.138861 4.622247 -16.563922 0
M  V30 6 C 7.949600 3.356371 -16.756922 0
M  V30 7 C 11.133438 6.456887 -4.451216 0
M  V30 8 C 7.395710 5.546068 -15.995852 0
M  V30 9 C 11.434834 7.419257 -5.605216 0
M  V30 10 O 6.270557 6.539485 -14.303784 0 CHG=-1
M  V30 11 C 7.516852 2.529153 -15.839786 0
M  V30 12 C 7.238734 0.169310 -15.269369 0
M  V30 13 C 6.780825 5.489047 -14.759058 0
M  V30 14 C 8.890188 4.827032 -9.937524 0
M  V30 15 N 9.112732 7.226448 -8.292175 0 CFG=2 CHG=1
M  V30 16 C 9.957929 7.840651 -9.365772 0 CFG=2
M  V30 17 C 10.232562 8.110575 -6.237416 0
M  V30 18 C 6.864625 0.518751 -13.930303 0
M  V30 19 C 7.793000 6.013081 -11.906172 0
M  V30 20 N 8.634840 6.078782 -10.678774 0
M  V30 21 C 6.717097 4.228213 -14.002901 0
M  V30 22 C 6.488441 5.176851 -11.725897 0
M  V30 23 N 6.147562 4.281023 -12.692925 0
M  V30 24 C 7.547216 1.107849 -16.167725 0
M  V30 25 C 7.034853 2.930097 -14.477573 0
M  V30 26 C 9.246866 7.131217 -6.852333 0 CFG=2
M  V30 27 O 5.836139 5.284680 -10.691670 0
M  V30 28 C 8.601689 4.969274 -8.416257 0
M  V30 29 H 10.604806 5.717885 -7.929037 0
M  V30 30 H 10.642683 6.569295 -11.060661 0
M  V30 31 H 9.527699 7.805771 -11.477173 0
M  V30 32 H 6.466745 1.997282 -12.530630 0
M  V30 33 H 8.307926 3.042641 -17.726498 0
M  V30 34 H 11.958610 5.762008 -4.327818 0
M  V30 35 H 10.234928 5.868492 -4.627761 0
M  V30 36 H 11.034841 6.969313 -3.498785 0
M  V30 37 H 7.434834 6.460845 -16.564218 0
M  V30 38 H 12.125330 8.185128 -5.250724 0
M  V30 39 H 11.933169 6.863421 -6.399054 0
M  V30 40 H 7.281111 -0.870382 -15.554382 0
M  V30 41 H 8.278120 4.018970 -10.320930 0
M  V30 42 H 9.902942 4.487812 -10.114867 0
M  V30 43 H 9.473343 8.808016 -9.503686 0
M  V30 44 H 9.709802 8.689987 -5.491668 0
M  V30 45 H 10.558689 8.862262 -6.953665 0
M  V30 46 H 6.650149 -0.266368 -13.218919 0
M  V30 47 H 8.426677 5.629189 -12.704377 0
M  V30 48 H 7.503083 7.031396 -12.163761 0
M  V30 49 H 5.431032 3.604086 -12.486088 0
M  V30 50 H 7.837446 0.802794 -17.162940 0
M  V30 51 H 8.257424 7.140872 -6.400648 0
M  V30 52 H 8.722755 4.022433 -7.891664 0
M  V30 53 H 7.566337 5.274756 -8.252206 0
M  V30 54 H 8.130102 7.223100 -8.591668 0
M  V30 END ATOM
M  V30 BEGIN BOND
M  V30 1 1 6 5
M  V30 2 1 8 5
M  V30 3 1 9 7
M  V30 4 2 11 6
M  V30 5 2 13 8
M  V30 6 1 13 10
M  V30 7 1 15 1
M  V30 8 1 16 2
M  V30 9 1 16 3
M  V30 10 1 16 15
M  V30 11 1 17 9
M  V30 12 2 18 4
M  V30 13 1 18 12
M  V30 14 1 20 2
M  V30 15 1 20 14
M  V30 16 1 20 19
M  V30 17 1 21 13
M  V30 18 1 22 19
M  V30 19 1 23 21
M  V30 20 1 23 22
M  V30 21 1 24 11
M  V30 22 2 24 12
M  V30 23 1 25 4
M  V30 24 1 25 11
M  V30 25 2 25 21
M  V30 26 1 26 1
M  V30 27 1 26 15
M  V30 28 1 26 17
M  V30 29 2 27 22
M  V30 30 1 28 1
M  V30 31 1 28 14
M  V30 32 1 1 29 CFG=3
M  V30 33 1 30 2
M  V30 34 1 31 2
M  V30 35 1 32 4
M  V30 36 1 33 6
M  V30 37 1 34 7
M  V30 38 1 35 7
M  V30 39 1 36 7
M  V30 40 1 37 8
M  V30 41 1 38 9
M  V30 42 1 39 9
M  V30 43 1 40 12
M  V30 44 1 41 14
M  V30 45 1 42 14
M  V30 46 1 16 43 CFG=3
M  V30 47 1 44 17
M  V30 48 1 45 17
M  V30 49 1 46 18
M  V30 50 1 47 19
M  V30 51 1 48 19
M  V30 52 1 49 23
M  V30 53 1 50 24
M  V30 54 1 26 51 CFG=1
M  V30 55 1 52 28
M  V30 56 1 53 28
M  V30 57 1 15 54 CFG=1
M  V30 END BOND
M  V30 END CTAB
M  END
>  <i_epik_Tot_Q>  (1) 
-1

>  <i_epik_Tot_abs_Q>  (1) 
3

>  <i_i_glide_confnum>  (1) 
5

>  <i_i_glide_lignum>  (1) 
7

>  <i_i_glide_posenum>  (1) 
97

>  <i_i_glide_rotatable_bonds>  (1) 
6

>  <i_lp_mmshare_version>  (1) 
72125

>  <i_m_source_file_index>  (1) 
3

>  <i_f3d_flags>  (1) 
0

>  <num_sample>  (1) 
50

>  <b_lp_Chiralities_Consistent>  (1) 
1

>  <r_epik_Charging_Adjusted_Penalty>  (1) 
0.20824401478555332

>  <r_epik_Ionization_Penalty>  (1) 
0.10900575238268746

>  <r_epik_Ionization_Penalty_Charging>  (1) 
0.10898275236366674

>  <r_epik_Ionization_Penalty_Neutral>  (1) 
2.3000019020727684e-05

>  <r_epik_State_Penalty>  (1) 
0.099261262421886584

>  <r_glide_ring_energy>  (1) 
0

>  <r_i_docking_score>  (1) 
-4.3454216357637039

>  <r_i_glide_ecoul>  (1) 
-2.3452700067212446

>  <r_i_glide_eff_state_penalty>  (1) 
0.099261262421886584

>  <r_i_glide_einternal>  (1) 
14.515900255646727

>  <r_i_glide_emodel>  (1) 
-36.623633040688915

>  <r_i_glide_emodel_strain>  (1) 
2.8816814879149319

>  <r_i_glide_energy>  (1) 
-34.537823819624585

>  <r_i_glide_erotb>  (1) 
0.36831288593105843

>  <r_i_glide_esite>  (1) 
-0.23338333819586163

>  <r_i_glide_evdw>  (1) 
-32.192553812903341

>  <r_i_glide_gscore>  (1) 
-4.4446828981855901

>  <r_i_glide_gscore_strain>  (1) 
0

>  <r_i_glide_hbond>  (1) 
-0.26004727676965861

>  <r_i_glide_ligand_efficiency>  (1) 
-0.15519362984870372

>  <r_i_glide_ligand_efficiency_ln>  (1) 
-1.0030509006574957

>  <r_i_glide_ligand_efficiency_sa>  (1) 
-0.47125926490392739

>  <r_i_glide_lipo>  (1) 
-2.031604478880924

>  <r_i_glide_metal>  (1) 
-0

>  <r_i_glide_rewards>  (1) 
-0.32654249861685081

>  <r_lp_Energy>  (1) 
97.502589999999998

>  <s_epik_Chemistry_Notes>  (1) 
This compound contains an acetal/aminal-like group ( X-CH(R)-Y where X, Y are N, S, or O) that may be acid/base labile, releasing an aldehyde.

>  <s_epik_cmdline>  (1) 
J2VwaWtfcHl0aG9uJywgJy1waHQnLCAnMS4wJywgJy1waCcsICc3LjQnLCAnLXRuJywgJzgnLCAnLW1hJywgJzUwMCcsICctaW1hZScsICc8aW5maWxlLm1hZT4nLCAnLW9tYWUnLCAnPG91dGZpbGUubWFlPic=

>  <s_epik_input>  (1) 
W0NIM11bQ0gyXVtDSDJdW0NIXTFOKFtDQEBIXTEyKVtDQEBIXShbT0hdKVtDSDJdTihbQ0gyXVtDSDJdMilbQ0gyXUMoPU8pW05IXUMoQyhbT0hdKT1bQ0hdT1tDSF09Myk9YyhjMzQpW2NIXVtjSF1bY0hdW2NIXTQ=

>  <s_glide_docking_method>  (1) 
confgen

>  <s_i_glide_gridfile>  (1) 
gpcr_drd2_6luq_protein_autoprepared_prepared

>  <s_lp_Force_Field>  (1) 
S-OPLS

>  <s_lp_Variant>  (1) 
DiffSBDD_2_num_sample_50-2

>  <s_m_source_file>  (1) 
generated__ligand_DiffSBDD_2026-05-06_prepared.sdf

>  <GenAI_Model>  (1) 
DiffSBDD

>  <Protein>  (1) 
generic_title2

$$$$
DiffSBDD_1_num_sample_50
     RDKit          3D

  0  0  0  0  0  0  0  0  0  0999 V3000
M  V30 BEGIN CTAB
M  V30 COUNTS 72 77 0 0 1
M  V30 BEGIN ATOM
M  V30 1 N 8.234636 3.666733 -14.015729 0
M  V30 2 C 8.930016 5.056503 -20.557858 0
M  V30 3 C 9.809803 6.568397 -10.044815 0
M  V30 4 O 11.712581 8.035010 -9.928513 0
M  V30 5 C 7.353143 2.699349 -16.117774 0
M  V30 6 O 6.573027 1.973641 -13.428809 0
M  V30 7 C 7.833596 4.964505 -10.151567 0
M  V30 8 C 9.235265 4.567648 -13.424213 0
M  V30 9 C 11.912917 9.353607 -9.476739 0
M  V30 10 C 10.749743 7.292753 -9.281187 0
M  V30 11 C 7.036923 2.847120 -17.620589 0
M  V30 12 C 5.963965 5.803872 -19.667386 0
M  V30 13 C 8.163735 4.998968 -16.110671 0
M  V30 14 C 8.801828 5.719267 -7.991952 0
M  V30 15 O 10.923381 8.867999 -6.257228 0
M  V30 16 C 8.829016 5.767670 -9.402073 0
M  V30 17 C 7.040419 1.301125 -15.557802 0 CFG=2
M  V30 18 C 7.263159 0.963953 -14.103606 0
M  V30 19 N 7.184183 4.201188 -18.136801 0
M  V30 20 C 8.610866 5.600978 -12.475308 0 CFG=1
M  V30 21 O 11.620985 7.912088 -7.106706 0
M  V30 22 C 7.903941 3.746753 -15.395419 0
M  V30 23 C 7.722541 4.867267 -11.494225 0
M  V30 24 C 9.730508 6.444235 -7.229702 0
M  V30 25 C 5.241250 5.844120 -21.021924 0
M  V30 26 C 7.463411 2.922492 -13.008592 0 CFG=2
M  V30 27 O 7.713823 0.321649 -16.323209 0
M  V30 28 C 6.939396 4.176044 -21.955598 0 CFG=1
M  V30 29 S 9.877209 6.666695 -11.797169 0
M  V30 30 C 7.804076 5.171327 -17.384411 0
M  V30 31 C 10.707307 7.228301 -7.862607 0
M  V30 32 C 7.685092 4.140904 -20.600065 0 CFG=2
M  V30 33 C 6.701764 3.946115 -12.138078 0
M  V30 34 C 6.662605 4.439945 -19.481829 0 CFG=2
M  V30 35 C 6.198960 5.513854 -22.179165 0
M  V30 36 C 7.842499 3.822071 -23.141458 0
M  V30 37 H 8.679960 6.104468 -20.720241 0
M  V30 38 H 9.438374 4.985069 -19.597462 0
M  V30 39 H 9.664501 4.770979 -21.310062 0
M  V30 40 H 7.152692 4.386316 -9.544356 0
M  V30 41 H 9.871843 5.039516 -14.170203 0
M  V30 42 H 9.919090 3.948165 -12.843016 0
M  V30 43 H 12.234960 9.991161 -10.291154 0
M  V30 44 H 10.988890 9.769058 -9.095519 0
M  V30 45 H 12.684863 9.369280 -8.710748 0
M  V30 46 H 7.736129 2.213116 -18.165670 0
M  V30 47 H 6.044772 2.461107 -17.857820 0
M  V30 48 H 5.240807 5.962167 -18.865095 0
M  V30 49 H 6.674259 6.628133 -19.613501 0
M  V30 50 H 8.633184 5.819250 -15.594193 0
M  V30 51 H 8.057763 5.117090 -7.493057 0
M  V30 52 H 10.846617 9.603877 -6.843746 0
M  V30 53 H 5.978085 1.148204 -15.753097 0
M  V30 54 H 8.321955 0.869165 -13.849604 0
M  V30 55 H 6.798160 0.004011 -13.870821 0
M  V30 56 H 7.956830 6.247710 -13.060953 0
M  V30 57 H 9.695916 6.392500 -6.151419 0
M  V30 58 H 4.419407 5.128187 -21.015945 0
M  V30 59 H 4.792076 6.826413 -21.174855 0
M  V30 60 H 8.197277 2.418492 -12.373889 0
M  V30 61 H 8.633818 0.357348 -16.112207 0
M  V30 62 H 6.178167 3.394951 -21.912669 0
M  V30 63 H 7.973618 6.099789 -17.908760 0
M  V30 64 H 8.039560 3.119795 -20.452536 0
M  V30 65 H 6.117795 3.416786 -11.384277 0
M  V30 66 H 6.007630 4.509858 -12.762758 0
M  V30 67 H 5.866563 3.704011 -19.604323 0
M  V30 68 H 5.635495 5.472082 -23.112118 0
M  V30 69 H 6.918949 6.324794 -22.295327 0
M  V30 70 H 8.535456 4.629348 -23.379895 0
M  V30 71 H 8.420161 2.917418 -22.951536 0
M  V30 72 H 7.229383 3.639079 -24.016977 0
M  V30 END ATOM
M  V30 BEGIN BOND
M  V30 1 1 8 1
M  V30 2 1 9 4
M  V30 3 1 10 3
M  V30 4 1 10 4
M  V30 5 1 11 5
M  V30 6 2 16 3
M  V30 7 1 16 7
M  V30 8 1 16 14
M  V30 9 1 17 5
M  V30 10 1 18 6
M  V30 11 1 18 17
M  V30 12 1 19 11
M  V30 13 1 20 8
M  V30 14 1 21 15
M  V30 15 1 22 1
M  V30 16 2 22 5
M  V30 17 1 22 13
M  V30 18 2 23 7
M  V30 19 1 23 20
M  V30 20 2 24 14
M  V30 21 1 25 12
M  V30 22 1 26 1
M  V30 23 1 26 6
M  V30 24 1 27 17
M  V30 25 1 29 3
M  V30 26 1 29 20
M  V30 27 2 30 13
M  V30 28 1 30 19
M  V30 29 2 31 10
M  V30 30 1 31 21
M  V30 31 1 31 24
M  V30 32 1 32 2
M  V30 33 1 32 28
M  V30 34 1 33 23
M  V30 35 1 33 26
M  V30 36 1 34 12
M  V30 37 1 34 19
M  V30 38 1 34 32
M  V30 39 1 35 25
M  V30 40 1 35 28
M  V30 41 1 36 28
M  V30 42 1 37 2
M  V30 43 1 38 2
M  V30 44 1 39 2
M  V30 45 1 40 7
M  V30 46 1 41 8
M  V30 47 1 42 8
M  V30 48 1 43 9
M  V30 49 1 44 9
M  V30 50 1 45 9
M  V30 51 1 46 11
M  V30 52 1 47 11
M  V30 53 1 48 12
M  V30 54 1 49 12
M  V30 55 1 50 13
M  V30 56 1 51 14
M  V30 57 1 52 15
M  V30 58 1 17 53 CFG=3
M  V30 59 1 54 18
M  V30 60 1 55 18
M  V30 61 1 20 56 CFG=3
M  V30 62 1 57 24
M  V30 63 1 58 25
M  V30 64 1 59 25
M  V30 65 1 26 60 CFG=1
M  V30 66 1 61 27
M  V30 67 1 28 62 CFG=1
M  V30 68 1 63 30
M  V30 69 1 32 64 CFG=1
M  V30 70 1 65 33
M  V30 71 1 66 33
M  V30 72 1 34 67 CFG=3
M  V30 73 1 68 35
M  V30 74 1 69 35
M  V30 75 1 70 36
M  V30 76 1 71 36
M  V30 77 1 72 36
M  V30 END BOND
M  V30 END CTAB
M  END
>  <i_epik_Tot_Q>  (1) 
0

>  <i_epik_Tot_abs_Q>  (1) 
0

>  <i_i_glide_confnum>  (1) 
2

>  <i_i_glide_lignum>  (1) 
5

>  <i_i_glide_posenum>  (1) 
262

>  <i_i_glide_rotatable_bonds>  (1) 
5

>  <i_lp_mmshare_version>  (1) 
72125

>  <i_m_source_file_index>  (1) 
2

>  <i_f3d_flags>  (1) 
0

>  <num_sample>  (1) 
50

>  <b_lp_Chiralities_Consistent>  (1) 
1

>  <r_epik_Charging_Adjusted_Penalty>  (1) 
1.7947178929853217e-12

>  <r_epik_Ionization_Penalty>  (1) 
2.2136665369831182e-05

>  <r_epik_Ionization_Penalty_Charging>  (1) 
1.7947178929853217e-12

>  <r_epik_Ionization_Penalty_Neutral>  (1) 
2.2136663575113287e-05

>  <r_epik_State_Penalty>  (1) 
-0

>  <r_glide_ring_energy>  (1) 
0

>  <r_i_docking_score>  (1) 
-4.3443965376967482

>  <r_i_glide_ecoul>  (1) 
-1.3716887541594776

>  <r_i_glide_eff_state_penalty>  (1) 
-0

>  <r_i_glide_einternal>  (1) 
1.8449963207525606

>  <r_i_glide_emodel>  (1) 
-46.415724429078971

>  <r_i_glide_emodel_strain>  (1) 
0.29510280281945711

>  <r_i_glide_energy>  (1) 
-40.065357212850884

>  <r_i_glide_erotb>  (1) 
0.15600053340392078

>  <r_i_glide_esite>  (1) 
0

>  <r_i_glide_evdw>  (1) 
-38.693668458691405

>  <r_i_glide_gscore>  (1) 
-4.3443965376967482

>  <r_i_glide_gscore_strain>  (1) 
0

>  <r_i_glide_hbond>  (1) 
0

>  <r_i_glide_ligand_efficiency>  (1) 
-0.12067768160268745

>  <r_i_glide_ligand_efficiency_ln>  (1) 
-0.94782995249499147

>  <r_i_glide_ligand_efficiency_sa>  (1) 
-0.39846892521734356

>  <r_i_glide_lipo>  (1) 
-1.4655490839651448

>  <r_i_glide_metal>  (1) 
-0

>  <r_i_glide_rewards>  (1) 
-0.89441125107703168

>  <r_lp_Energy>  (1) 
75.115066999999996

>  <r_lp_tautomer_probability>  (1) 
1

>  <s_epik_Chemistry_Notes>  (1) 
This compound has an imine and may undergo hydrolysis. This compound contains an acetal/aminal-like group ( X-CH(R)-Y where X, Y are N, S, or O) that may be acid/base labile, releasing an aldehyde.

>  <s_epik_cmdline>  (1) 
J2VwaWtfcHl0aG9uJywgJy1waHQnLCAnMS4wJywgJy1waCcsICc3LjQnLCAnLXRuJywgJzgnLCAnLW1hJywgJzUwMCcsICctaW1hZScsICc8aW5maWxlLm1hZT4nLCAnLW9tYWUnLCAnPG91dGZpbGUubWFlPic=

>  <s_epik_input>  (1) 
W0NIMl0xW0NIMl1bQ0gyXVtDQEBIXShbQ0BIXShbQ0gzXSlbQ0BASF0xW0NIM10pTihbQ0hdPVtDSF0yKVtDSDJdQyg9QzJOMzQpW0NAQEhdKFtPSF0pW0NIMl1PW0NAQEhdNFtDSDJdQzVbQ0BASF0oW0NIMl0zKVNjNmMoW0NIXT01KVtjSF1bY0hdYyhPW09IXSljNk9bQ0gzXQ==

>  <s_glide_docking_method>  (1) 
confgen

>  <s_i_glide_gridfile>  (1) 
gpcr_drd2_6luq_protein_autoprepared_prepared

>  <s_lp_Force_Field>  (1) 
S-OPLS

>  <s_lp_Variant>  (1) 
DiffSBDD_1_num_sample_50-2

>  <s_m_source_file>  (1) 
generated__ligand_DiffSBDD_2026-05-06_prepared.sdf

>  <GenAI_Model>  (1) 
DiffSBDD

>  <Protein>  (1) 
generic_title2

$$$$
DiffSBDD_1_num_sample_50
     RDKit          3D

  0  0  0  0  0  0  0  0  0  0999 V3000
M  V30 BEGIN CTAB
M  V30 COUNTS 72 77 0 0 1
M  V30 BEGIN ATOM
M  V30 1 N 7.801969 5.190312 -14.721631 0
M  V30 2 C 12.141502 7.873456 -10.017369 0
M  V30 3 C 6.671891 1.418161 -17.920050 0
M  V30 4 O 6.443780 -0.921860 -17.397084 0
M  V30 5 C 7.433221 6.501325 -12.802300 0
M  V30 6 O 5.967861 6.380424 -15.665422 0
M  V30 7 C 6.748113 3.903015 -18.426438 0
M  V30 8 C 7.795099 3.754524 -14.987838 0
M  V30 9 C 5.468056 -1.114227 -16.381880 0
M  V30 10 C 6.128706 0.145487 -18.193043 0
M  V30 11 C 7.906920 7.105851 -11.491676 0
M  V30 12 C 9.615682 5.808420 -8.959534 0
M  V30 13 C 9.583332 5.485658 -13.101342 0
M  V30 14 C 5.434351 2.345264 -19.797893 0
M  V30 15 O 5.395747 -1.804364 -20.692328 0
M  V30 16 C 6.303810 2.536792 -18.716324 0
M  V30 17 C 5.974492 6.796776 -13.190724 0 CFG=2
M  V30 18 C 5.770290 7.350299 -14.627828 0
M  V30 19 N 9.297334 6.853193 -11.169140 0
M  V30 20 C 8.161739 3.332695 -16.411323 0 CFG=2
M  V30 21 O 4.710270 -1.247434 -19.538105 0
M  V30 22 C 8.240563 5.715208 -13.544229 0
M  V30 23 C 7.537555 4.281849 -17.411274 0
M  V30 24 C 4.910158 1.083851 -20.070090 0
M  V30 25 C 9.569484 6.113539 -7.475376 0
M  V30 26 C 7.314669 6.068752 -15.749417 0 CFG=2
M  V30 27 O 5.405528 7.721330 -12.278182 0
M  V30 28 C 10.749238 8.317779 -7.863775 0 CFG=1
M  V30 29 S 7.785516 1.599244 -16.584429 0
M  V30 30 C 10.047984 6.051003 -11.994357 0
M  V30 31 C 5.246443 -0.018876 -19.271498 0
M  V30 32 C 10.756006 8.128311 -9.415091 0 CFG=2
M  V30 33 C 7.820684 5.720343 -17.156670 0
M  V30 34 C 9.657360 7.100355 -9.772942 0 CFG=2
M  V30 35 C 10.762681 6.987788 -7.078489 0
M  V30 36 C 11.834842 9.260106 -7.352663 0
M  V30 37 H 12.578442 6.971146 -9.617555 0
M  V30 38 H 12.074008 7.771332 -11.096633 0
M  V30 39 H 12.840566 8.682152 -9.806494 0
M  V30 40 H 6.349312 4.670793 -19.073145 0
M  V30 41 H 6.781896 3.415445 -14.771922 0
M  V30 42 H 8.442267 3.252792 -14.268647 0
M  V30 43 H 5.836056 -1.829633 -15.658499 0
M  V30 44 H 5.256383 -0.190768 -15.840874 0
M  V30 45 H 4.531758 -1.497068 -16.789992 0
M  V30 46 H 7.716297 8.181725 -11.488149 0
M  V30 47 H 7.335216 6.569804 -10.735535 0
M  V30 48 H 8.734858 5.219077 -9.228591 0
M  V30 49 H 10.482634 5.204543 -9.170484 0
M  V30 50 H 10.234617 4.868015 -13.691565 0
M  V30 51 H 5.143559 3.184435 -20.411833 0
M  V30 52 H 4.901676 -1.407925 -21.395173 0
M  V30 53 H 5.410460 5.867781 -13.077744 0
M  V30 54 H 6.419260 8.208300 -14.787772 0
M  V30 55 H 4.775465 7.768902 -14.744056 0
M  V30 56 H 9.242639 3.433932 -16.530607 0
M  V30 57 H 4.234744 0.970093 -20.884398 0
M  V30 58 H 8.629707 6.603030 -7.224703 0
M  V30 59 H 9.575613 5.170215 -6.954995 0
M  V30 60 H 7.836771 6.969274 -15.492055 0
M  V30 61 H 5.632460 7.468312 -11.394326 0
M  V30 62 H 9.801328 8.804595 -7.623129 0
M  V30 63 H 11.032795 5.909678 -11.675963 0
M  V30 64 H 10.430664 9.067995 -9.851375 0
M  V30 65 H 8.900946 5.858455 -17.186064 0
M  V30 66 H 7.367843 6.387036 -17.894117 0
M  V30 67 H 8.822058 7.626141 -9.358552 0
M  V30 68 H 10.715359 7.182739 -6.006650 0
M  V30 69 H 11.695212 6.450638 -7.256954 0
M  V30 70 H 12.826750 8.806966 -7.409860 0
M  V30 71 H 11.834808 10.155810 -7.962479 0
M  V30 72 H 11.652125 9.550650 -6.317802 0
M  V30 END ATOM
M  V30 BEGIN BOND
M  V30 1 1 8 1
M  V30 2 1 9 4
M  V30 3 1 10 3
M  V30 4 1 10 4
M  V30 5 1 11 5
M  V30 6 2 16 3
M  V30 7 1 16 7
M  V30 8 1 16 14
M  V30 9 1 17 5
M  V30 10 1 18 6
M  V30 11 1 18 17
M  V30 12 1 19 11
M  V30 13 1 20 8
M  V30 14 1 21 15
M  V30 15 1 22 1
M  V30 16 2 22 5
M  V30 17 1 22 13
M  V30 18 2 23 7
M  V30 19 1 23 20
M  V30 20 2 24 14
M  V30 21 1 25 12
M  V30 22 1 26 1
M  V30 23 1 26 6
M  V30 24 1 27 17
M  V30 25 1 29 3
M  V30 26 1 29 20
M  V30 27 2 30 13
M  V30 28 1 30 19
M  V30 29 2 31 10
M  V30 30 1 31 21
M  V30 31 1 31 24
M  V30 32 1 32 2
M  V30 33 1 32 28
M  V30 34 1 33 23
M  V30 35 1 33 26
M  V30 36 1 34 12
M  V30 37 1 34 19
M  V30 38 1 34 32
M  V30 39 1 35 25
M  V30 40 1 35 28
M  V30 41 1 36 28
M  V30 42 1 37 2
M  V30 43 1 38 2
M  V30 44 1 39 2
M  V30 45 1 40 7
M  V30 46 1 41 8
M  V30 47 1 42 8
M  V30 48 1 43 9
M  V30 49 1 44 9
M  V30 50 1 45 9
M  V30 51 1 46 11
M  V30 52 1 47 11
M  V30 53 1 48 12
M  V30 54 1 49 12
M  V30 55 1 50 13
M  V30 56 1 51 14
M  V30 57 1 52 15
M  V30 58 1 17 53 CFG=3
M  V30 59 1 54 18
M  V30 60 1 55 18
M  V30 61 1 20 56 CFG=1
M  V30 62 1 57 24
M  V30 63 1 58 25
M  V30 64 1 59 25
M  V30 65 1 26 60 CFG=1
M  V30 66 1 61 27
M  V30 67 1 28 62 CFG=3
M  V30 68 1 63 30
M  V30 69 1 32 64 CFG=3
M  V30 70 1 65 33
M  V30 71 1 66 33
M  V30 72 1 34 67 CFG=1
M  V30 73 1 68 35
M  V30 74 1 69 35
M  V30 75 1 70 36
M  V30 76 1 71 36
M  V30 77 1 72 36
M  V30 END BOND
M  V30 END CTAB
M  END
>  <i_epik_Tot_Q>  (1) 
0

>  <i_epik_Tot_abs_Q>  (1) 
0

>  <i_i_glide_confnum>  (1) 
5

>  <i_i_glide_lignum>  (1) 
4

>  <i_i_glide_posenum>  (1) 
373

>  <i_i_glide_rotatable_bonds>  (1) 
5

>  <i_lp_mmshare_version>  (1) 
72125

>  <i_m_source_file_index>  (1) 
2

>  <i_f3d_flags>  (1) 
0

>  <num_sample>  (1) 
50

>  <b_lp_Chiralities_Consistent>  (1) 
1

>  <r_epik_Charging_Adjusted_Penalty>  (1) 
1.7947178929853217e-12

>  <r_epik_Ionization_Penalty>  (1) 
2.2136665369831182e-05

>  <r_epik_Ionization_Penalty_Charging>  (1) 
1.7947178929853217e-12

>  <r_epik_Ionization_Penalty_Neutral>  (1) 
2.2136663575113287e-05

>  <r_epik_State_Penalty>  (1) 
-0

>  <r_glide_ring_energy>  (1) 
0

>  <r_i_docking_score>  (1) 
-4.3423384098353717

>  <r_i_glide_ecoul>  (1) 
-4.7962715052815064

>  <r_i_glide_eff_state_penalty>  (1) 
-0

>  <r_i_glide_einternal>  (1) 
3.1696568900721278

>  <r_i_glide_emodel>  (1) 
-25.306586679075405

>  <r_i_glide_emodel_strain>  (1) 
6.2196119052997716

>  <r_i_glide_energy>  (1) 
-22.743959912621019

>  <r_i_glide_erotb>  (1) 
0.15600053340392078

>  <r_i_glide_esite>  (1) 
-0.076053561898680344

>  <r_i_glide_evdw>  (1) 
-17.947688407339513

>  <r_i_glide_gscore>  (1) 
-4.3423384098353717

>  <r_i_glide_gscore_strain>  (1) 
0.5549029763249429

>  <r_i_glide_hbond>  (1) 
-0.25871369206395251

>  <r_i_glide_ligand_efficiency>  (1) 
-0.12062051138431588

>  <r_i_glide_ligand_efficiency_ln>  (1) 
-0.94738092459982803

>  <r_i_glide_ligand_efficiency_sa>  (1) 
-0.39828015331547723

>  <r_i_glide_lipo>  (1) 
-2.2854117928313693

>  <r_i_glide_metal>  (1) 
-0

>  <r_i_glide_rewards>  (1) 
-0.81623772661103211

>  <r_lp_Energy>  (1) 
70.104143999999991

>  <r_lp_tautomer_probability>  (1) 
1

>  <s_epik_Chemistry_Notes>  (1) 
This compound has an imine and may undergo hydrolysis. This compound contains an acetal/aminal-like group ( X-CH(R)-Y where X, Y are N, S, or O) that may be acid/base labile, releasing an aldehyde.

>  <s_epik_cmdline>  (1) 
J2VwaWtfcHl0aG9uJywgJy1waHQnLCAnMS4wJywgJy1waCcsICc3LjQnLCAnLXRuJywgJzgnLCAnLW1hJywgJzUwMCcsICctaW1hZScsICc8aW5maWxlLm1hZT4nLCAnLW9tYWUnLCAnPG91dGZpbGUubWFlPic=

>  <s_epik_input>  (1) 
W0NIMl0xW0NIMl1bQ0gyXVtDQEBIXShbQ0BIXShbQ0gzXSlbQ0BASF0xW0NIM10pTihbQ0hdPVtDSF0yKVtDSDJdQyg9QzJOMzQpW0NAQEhdKFtPSF0pW0NIMl1PW0NAQEhdNFtDSDJdQzVbQ0BASF0oW0NIMl0zKVNjNmMoW0NIXT01KVtjSF1bY0hdYyhPW09IXSljNk9bQ0gzXQ==

>  <s_glide_docking_method>  (1) 
confgen

>  <s_i_glide_gridfile>  (1) 
gpcr_drd2_6luq_protein_autoprepared_prepared

>  <s_lp_Force_Field>  (1) 
S-OPLS

>  <s_lp_Variant>  (1) 
DiffSBDD_1_num_sample_50-1

>  <s_m_source_file>  (1) 
generated__ligand_DiffSBDD_2026-05-06_prepared.sdf

>  <GenAI_Model>  (1) 
DiffSBDD

>  <Protein>  (1) 
generic_title2

$$$$
DiffSBDD_2_num_sample_50
     RDKit          3D

  0  0  0  0  0  0  0  0  0  0999 V3000
M  V30 BEGIN CTAB
M  V30 COUNTS 54 57 0 0 1
M  V30 BEGIN ATOM
M  V30 1 C 9.022164 5.419291 -9.612953 0 CFG=1
M  V30 2 C 9.640928 6.256252 -12.220445 0
M  V30 3 O 11.105624 7.369296 -10.732728 0 CHG=-1
M  V30 4 C 7.839151 3.322688 -17.289401 0
M  V30 5 O 12.172352 3.024163 -17.983758 0
M  V30 6 C 11.242796 2.392650 -18.621087 0
M  V30 7 C 11.788144 8.727199 -6.620810 0
M  V30 8 C 12.291117 4.234755 -17.487153 0
M  V30 9 C 10.577472 8.285312 -7.443895 0
M  V30 10 O 11.709977 6.023682 -16.222205 0 CHG=-1
M  V30 11 C 9.958807 2.503477 -18.386276 0
M  V30 12 C 7.771286 1.554735 -18.936454 0
M  V30 13 C 11.345832 4.965827 -16.788632 0
M  V30 14 C 7.779258 4.750111 -11.708453 0
M  V30 15 N 9.034839 6.850389 -9.861348 0 CFG=2 CHG=1
M  V30 16 C 9.840626 7.262846 -11.047965 0 CFG=2
M  V30 17 C 10.608915 6.799352 -7.848678 0
M  V30 18 C 7.137586 2.429396 -18.005133 0
M  V30 19 C 7.783582 5.965752 -13.863099 0
M  V30 20 N 8.203970 5.965821 -12.434369 0
M  V30 21 C 9.960601 4.534284 -16.683220 0
M  V30 22 C 8.414349 4.902271 -14.778903 0
M  V30 23 N 9.175995 5.368363 -15.811270 0
M  V30 24 C 9.089496 1.588732 -19.124457 0
M  V30 25 C 9.325875 3.458489 -17.403872 0
M  V30 26 C 9.294527 6.396777 -8.492563 0 CFG=2
M  V30 27 O 8.234831 3.705967 -14.544316 0
M  V30 28 C 7.691320 4.966072 -10.178159 0
M  V30 29 H 9.888973 4.870887 -9.957655 0
M  V30 30 H 10.218197 5.337659 -12.099454 0
M  V30 31 H 10.081381 6.720967 -13.091665 0
M  V30 32 H 7.284893 3.968607 -16.650258 0
M  V30 33 H 11.658282 1.684932 -19.322983 0
M  V30 34 H 11.724927 9.788097 -6.376349 0
M  V30 35 H 12.715062 8.569684 -7.172305 0
M  V30 36 H 11.834849 8.172340 -5.683761 0
M  V30 37 H 13.317121 4.564621 -17.555781 0
M  V30 38 H 9.670612 8.490729 -6.872633 0
M  V30 39 H 10.515676 8.899072 -8.343560 0
M  V30 40 H 7.171707 0.856881 -19.501980 0
M  V30 41 H 6.788465 4.450844 -12.052731 0
M  V30 42 H 8.441562 3.911987 -11.933833 0
M  V30 43 H 9.306210 8.157559 -11.370425 0
M  V30 44 H 11.455980 6.569276 -8.483072 0
M  V30 45 H 10.736298 6.186169 -6.956357 0
M  V30 46 H 6.065648 2.386595 -17.891652 0
M  V30 47 H 7.952319 6.959080 -14.278793 0
M  V30 48 H 6.702498 5.830199 -13.909163 0
M  V30 49 H 9.386344 6.356100 -15.831465 0
M  V30 50 H 9.530108 0.908859 -19.839674 0
M  V30 51 H 8.429726 6.588493 -7.863096 0
M  V30 52 H 7.385893 4.052518 -9.678336 0
M  V30 53 H 6.903692 5.686172 -9.948528 0
M  V30 54 H 8.081147 7.253330 -9.873454 0
M  V30 END ATOM
M  V30 BEGIN BOND
M  V30 1 1 6 5
M  V30 2 1 8 5
M  V30 3 1 9 7
M  V30 4 2 11 6
M  V30 5 2 13 8
M  V30 6 1 13 10
M  V30 7 1 15 1
M  V30 8 1 16 2
M  V30 9 1 16 3
M  V30 10 1 16 15
M  V30 11 1 17 9
M  V30 12 2 18 4
M  V30 13 1 18 12
M  V30 14 1 20 2
M  V30 15 1 20 14
M  V30 16 1 20 19
M  V30 17 1 21 13
M  V30 18 1 22 19
M  V30 19 1 23 21
M  V30 20 1 23 22
M  V30 21 1 24 11
M  V30 22 2 24 12
M  V30 23 1 25 4
M  V30 24 1 25 11
M  V30 25 2 25 21
M  V30 26 1 26 1
M  V30 27 1 26 15
M  V30 28 1 26 17
M  V30 29 2 27 22
M  V30 30 1 28 1
M  V30 31 1 28 14
M  V30 32 1 1 29 CFG=3
M  V30 33 1 30 2
M  V30 34 1 31 2
M  V30 35 1 32 4
M  V30 36 1 33 6
M  V30 37 1 34 7
M  V30 38 1 35 7
M  V30 39 1 36 7
M  V30 40 1 37 8
M  V30 41 1 38 9
M  V30 42 1 39 9
M  V30 43 1 40 12
M  V30 44 1 41 14
M  V30 45 1 42 14
M  V30 46 1 16 43 CFG=3
M  V30 47 1 44 17
M  V30 48 1 45 17
M  V30 49 1 46 18
M  V30 50 1 47 19
M  V30 51 1 48 19
M  V30 52 1 49 23
M  V30 53 1 50 24
M  V30 54 1 26 51 CFG=1
M  V30 55 1 52 28
M  V30 56 1 53 28
M  V30 57 1 15 54 CFG=1
M  V30 END BOND
M  V30 END CTAB
M  END
>  <i_epik_Tot_Q>  (1) 
-1

>  <i_epik_Tot_abs_Q>  (1) 
3

>  <i_i_glide_confnum>  (1) 
2

>  <i_i_glide_lignum>  (1) 
7

>  <i_i_glide_posenum>  (1) 
356

>  <i_i_glide_rotatable_bonds>  (1) 
6

>  <i_lp_mmshare_version>  (1) 
72125

>  <i_m_source_file_index>  (1) 
3

>  <i_f3d_flags>  (1) 
0

>  <num_sample>  (1) 
50

>  <b_lp_Chiralities_Consistent>  (1) 
1

>  <r_epik_Charging_Adjusted_Penalty>  (1) 
0.20824401478555332

>  <r_epik_Ionization_Penalty>  (1) 
0.10900575238268746

>  <r_epik_Ionization_Penalty_Charging>  (1) 
0.10898275236366674

>  <r_epik_Ionization_Penalty_Neutral>  (1) 
2.3000019020727684e-05

>  <r_epik_State_Penalty>  (1) 
0.099261262421886584

>  <r_glide_ring_energy>  (1) 
0

>  <r_i_docking_score>  (1) 
-4.3349282149249815

>  <r_i_glide_ecoul>  (1) 
-8.4394251002465204

>  <r_i_glide_eff_state_penalty>  (1) 
0.099261262421886584

>  <r_i_glide_einternal>  (1) 
1.1257872119061254

>  <r_i_glide_emodel>  (1) 
-43.5473412768944

>  <r_i_glide_emodel_strain>  (1) 
0.15311274422299448

>  <r_i_glide_energy>  (1) 
-32.066769748228644

>  <r_i_glide_erotb>  (1) 
0.52616126561579779

>  <r_i_glide_esite>  (1) 
-0.16073694148585532

>  <r_i_glide_evdw>  (1) 
-23.627344647982124

>  <r_i_glide_gscore>  (1) 
-4.4341894773468677

>  <r_i_glide_gscore_strain>  (1) 
0

>  <r_i_glide_hbond>  (1) 
-0.12200157006232254

>  <r_i_glide_ligand_efficiency>  (1) 
-0.15481886481874935

>  <r_i_glide_ligand_efficiency_ln>  (1) 
-1.000628711027695

>  <r_i_glide_ligand_efficiency_sa>  (1) 
-0.4701212575469233

>  <r_i_glide_lipo>  (1) 
-0.88551111693987472

>  <r_i_glide_metal>  (1) 
-0

>  <r_i_glide_rewards>  (1) 
-1.3448201170385286

>  <r_lp_Energy>  (1) 
97.502589999999998

>  <s_epik_Chemistry_Notes>  (1) 
This compound contains an acetal/aminal-like group ( X-CH(R)-Y where X, Y are N, S, or O) that may be acid/base labile, releasing an aldehyde.

>  <s_epik_cmdline>  (1) 
J2VwaWtfcHl0aG9uJywgJy1waHQnLCAnMS4wJywgJy1waCcsICc3LjQnLCAnLXRuJywgJzgnLCAnLW1hJywgJzUwMCcsICctaW1hZScsICc8aW5maWxlLm1hZT4nLCAnLW9tYWUnLCAnPG91dGZpbGUubWFlPic=

>  <s_epik_input>  (1) 
W0NIM11bQ0gyXVtDSDJdW0NIXTFOKFtDQEBIXTEyKVtDQEBIXShbT0hdKVtDSDJdTihbQ0gyXVtDSDJdMilbQ0gyXUMoPU8pW05IXUMoQyhbT0hdKT1bQ0hdT1tDSF09Myk9YyhjMzQpW2NIXVtjSF1bY0hdW2NIXTQ=

>  <s_glide_docking_method>  (1) 
confgen

>  <s_i_glide_gridfile>  (1) 
gpcr_drd2_6luq_protein_autoprepared_prepared

>  <s_lp_Force_Field>  (1) 
S-OPLS

>  <s_lp_Variant>  (1) 
DiffSBDD_2_num_sample_50-2

>  <s_m_source_file>  (1) 
generated__ligand_DiffSBDD_2026-05-06_prepared.sdf

>  <GenAI_Model>  (1) 
DiffSBDD

>  <Protein>  (1) 
generic_title2

$$$$
DiffSBDD_41_num_sample_50
     RDKit          3D

  0  0  0  0  0  0  0  0  0  0999 V3000
M  V30 BEGIN CTAB
M  V30 COUNTS 105 110 0 0 1
M  V30 BEGIN ATOM
M  V30 1 C 5.434763 5.427656 -11.443601 0
M  V30 2 C 7.391332 5.398604 -16.055669 0
M  V30 3 C 8.214784 4.906621 -14.835916 0
M  V30 4 C 10.448330 6.067595 -12.253247 0
M  V30 5 C 6.068651 6.470149 -11.967122 0
M  V30 6 O 6.940502 4.515146 -18.244524 0
M  V30 7 C 10.358222 0.325190 -20.051051 0
M  V30 8 N 7.348667 -0.003435 -17.709837 0
M  V30 9 O 7.405727 -4.777686 -18.873059 0
M  V30 10 C 6.661435 1.699096 -15.761567 0 CFG=2
M  V30 11 C 10.907814 7.368994 -11.565337 0
M  V30 12 O 7.380697 1.979231 -14.576104 0
M  V30 13 C 7.937722 -0.532669 -15.413121 0
M  V30 14 C 6.292062 -2.774038 -19.981971 0 CFG=1
M  V30 15 C 5.349586 2.133445 -20.118133 0
M  V30 16 C 7.767913 -3.421173 -20.939778 0 CFG=2
M  V30 17 C 6.638763 2.402097 -13.455441 0
M  V30 18 C 6.311106 3.917267 -13.356674 0 CFG=1
M  V30 19 C 6.493793 -2.770574 -21.510837 0
M  V30 20 C 5.469608 4.050917 -12.052434 0
M  V30 21 C 6.470078 -5.494456 -18.086209 0
M  V30 22 C 9.667544 2.485750 -18.784817 0
M  V30 23 O 9.381588 -0.535549 -19.467639 0
M  V30 24 C 8.949067 -3.946223 -21.736355 0
M  V30 25 C 7.800508 4.801889 -17.411180 0
M  V30 26 C 5.544043 1.394194 -18.784391 0
M  V30 27 N 7.171527 0.055098 -20.054941 0 CHG=1
M  V30 28 N 9.113953 4.612774 -17.624909 0
M  V30 29 C 9.966638 1.815930 -20.139999 0
M  V30 30 C 6.901410 6.379801 -13.209477 0 CFG=2
M  V30 31 S 4.819303 -2.206818 -19.049466 0
M  V30 32 C 7.515633 4.941360 -13.429299 0 CFG=2
M  V30 33 O 7.835016 7.423187 -13.186851 0
M  V30 34 C 10.903925 7.373324 -10.023580 0
M  V30 35 F 8.095296 -6.103938 -22.181966 0
M  V30 36 C 5.637856 0.568800 -15.752534 0
M  V30 37 C 6.724462 0.452509 -18.842352 0
M  V30 38 C 8.279634 -0.889320 -20.252971 0 CFG=2
M  V30 39 C 9.729918 6.586027 -9.496412 0
M  V30 40 C 9.027411 5.731584 -10.249465 0
M  V30 41 C 9.135667 -5.467218 -21.647680 0
M  V30 42 C 7.031357 0.319160 -16.284239 0 CFG=2
M  V30 43 F 10.241488 -5.827931 -22.296212 0
M  V30 44 N 9.298886 5.464961 -11.582477 0
M  V30 45 C 8.548021 4.462389 -12.337042 0
M  V30 46 C 6.814613 -4.229561 -20.046877 0 CFG=1
M  V30 47 C 9.631799 4.026169 -18.862246 0
M  V30 48 C 7.777445 -2.302277 -19.859529 0 CFG=1
M  V30 49 H 4.850197 5.551178 -10.541155 0
M  V30 50 H 7.432356 6.485207 -16.116228 0
M  V30 51 H 6.338954 5.157657 -15.928752 0
M  V30 52 H 8.617020 3.916375 -15.029097 0
M  V30 53 H 9.099875 5.533883 -14.814880 0
M  V30 54 H 11.271424 5.369232 -12.291529 0
M  V30 55 H 10.224667 6.268098 -13.291498 0
M  V30 56 H 5.999966 7.437842 -11.492085 0
M  V30 57 H 11.258987 0.240060 -19.440706 0
M  V30 58 H 10.641612 -0.051358 -21.034525 0
M  V30 59 H 8.141810 -0.617098 -17.844590 0
M  V30 60 H 6.634996 2.559180 -16.406695 0
M  V30 61 H 10.234923 8.162340 -11.900557 0
M  V30 62 H 11.918526 7.601065 -11.892821 0
M  V30 63 H 7.343727 -1.030487 -14.649127 0
M  V30 64 H 8.516752 -1.264039 -15.981076 0
M  V30 65 H 8.634948 0.085168 -14.865630 0
M  V30 66 H 4.636087 2.945729 -19.996510 0
M  V30 67 H 6.280860 2.585666 -20.459163 0
M  V30 68 H 4.972488 1.472227 -20.899896 0
M  V30 69 H 7.232869 2.090466 -12.599494 0
M  V30 70 H 5.719933 1.821969 -13.371233 0
M  V30 71 H 5.630230 4.159905 -14.169314 0
M  V30 72 H 5.835914 -3.418311 -22.097580 0
M  V30 73 H 6.606082 -1.800163 -21.995707 0
M  V30 74 H 5.823477 3.375061 -11.272367 0
M  V30 75 H 4.449000 3.769302 -12.292958 0
M  V30 76 H 6.953659 -5.871559 -17.185929 0
M  V30 77 H 6.074127 -6.348997 -18.637704 0
M  V30 78 H 5.634853 -4.863332 -17.781380 0
M  V30 79 H 8.708417 2.126744 -18.417695 0
M  V30 80 H 10.412160 2.185125 -18.046843 0
M  V30 81 H 8.854894 -3.658514 -22.783222 0
M  V30 82 H 9.834822 -3.439383 -21.375100 0
M  V30 83 H 8.563137 -0.863342 -21.307196 0
M  V30 84 H 4.643379 0.816149 -18.588792 0
M  V30 85 H 9.775698 4.871443 -16.907369 0
M  V30 86 H 10.801051 2.340157 -20.607547 0
M  V30 87 H 9.121516 1.951640 -20.814729 0
M  V30 88 H 6.214988 6.614756 -14.024538 0
M  V30 89 H 4.746425 -1.002811 -19.618429 0
M  V30 90 H 8.406273 7.263499 -12.444713 0
M  V30 91 H 10.834831 8.401881 -9.667830 0
M  V30 92 H 11.830468 6.969277 -9.620528 0
M  V30 93 H 5.384183 0.105541 -14.800643 0
M  V30 94 H 4.812854 0.569310 -16.449447 0
M  V30 95 H 5.634428 2.167254 -18.045581 0
M  V30 96 H 9.460222 6.740900 -8.461465 0
M  V30 97 H 8.184094 5.181793 -9.853432 0
M  V30 98 H 9.235884 -5.809583 -20.618046 0
M  V30 99 H 8.047209 3.854992 -11.584921 0
M  V30 100 H 9.261214 3.770101 -12.785673 0
M  V30 101 H 6.186217 -4.950209 -20.579534 0
M  V30 102 H 10.637734 4.412446 -19.032719 0
M  V30 103 H 9.035204 4.350368 -19.717368 0
M  V30 104 H 8.235598 -2.613695 -18.918450 0
M  V30 105 H 6.723971 0.463212 -20.864283 0
M  V30 END ATOM
M  V30 BEGIN BOND
M  V30 1 1 3 2
M  V30 2 2 5 1
M  V30 3 1 11 4
M  V30 4 1 12 10
M  V30 5 1 17 12
M  V30 6 1 18 17
M  V30 7 1 19 14
M  V30 8 1 19 16
M  V30 9 1 20 1
M  V30 10 1 20 18
M  V30 11 1 21 9
M  V30 12 1 23 7
M  V30 13 1 16 24 CFG=3
M  V30 14 1 25 2
M  V30 15 2 25 6
M  V30 16 1 26 15
M  V30 17 1 28 25
M  V30 18 1 29 7
M  V30 19 1 29 22
M  V30 20 1 30 5
M  V30 21 1 14 31 CFG=3
M  V30 22 1 32 3
M  V30 23 1 32 18
M  V30 24 1 32 30
M  V30 25 1 33 30
M  V30 26 1 34 11
M  V30 27 1 36 10
M  V30 28 1 37 8
M  V30 29 1 37 26
M  V30 30 2 37 27
M  V30 31 1 38 23
M  V30 32 1 38 27
M  V30 33 1 39 34
M  V30 34 2 40 39
M  V30 35 1 41 24
M  V30 36 1 41 35
M  V30 37 1 42 8
M  V30 38 1 42 10
M  V30 39 1 42 13 CFG=1
M  V30 40 1 42 36
M  V30 41 1 43 41
M  V30 42 1 44 4
M  V30 43 1 44 40
M  V30 44 1 32 45 CFG=1
M  V30 45 1 45 44
M  V30 46 1 46 9
M  V30 47 1 46 14
M  V30 48 1 46 16
M  V30 49 1 47 22
M  V30 50 1 47 28
M  V30 51 1 48 14
M  V30 52 1 48 16
M  V30 53 1 48 38
M  V30 54 1 49 1
M  V30 55 1 50 2
M  V30 56 1 51 2
M  V30 57 1 52 3
M  V30 58 1 53 3
M  V30 59 1 54 4
M  V30 60 1 55 4
M  V30 61 1 56 5
M  V30 62 1 57 7
M  V30 63 1 58 7
M  V30 64 1 59 8
M  V30 65 1 10 60 CFG=3
M  V30 66 1 61 11
M  V30 67 1 62 11
M  V30 68 1 63 13
M  V30 69 1 64 13
M  V30 70 1 65 13
M  V30 71 1 66 15
M  V30 72 1 67 15
M  V30 73 1 68 15
M  V30 74 1 69 17
M  V30 75 1 70 17
M  V30 76 1 18 71 CFG=3
M  V30 77 1 72 19
M  V30 78 1 73 19
M  V30 79 1 74 20
M  V30 80 1 75 20
M  V30 81 1 76 21
M  V30 82 1 77 21
M  V30 83 1 78 21
M  V30 84 1 79 22
M  V30 85 1 80 22
M  V30 86 1 81 24
M  V30 87 1 82 24
M  V30 88 1 38 83 CFG=3
M  V30 89 1 84 26
M  V30 90 1 85 28
M  V30 91 1 86 29
M  V30 92 1 87 29
M  V30 93 1 30 88 CFG=3
M  V30 94 1 89 31
M  V30 95 1 90 33
M  V30 96 1 91 34
M  V30 97 1 92 34
M  V30 98 1 93 36
M  V30 99 1 94 36
M  V30 100 1 95 26
M  V30 101 1 96 39
M  V30 102 1 97 40
M  V30 103 1 98 41
M  V30 104 1 99 45
M  V30 105 1 100 45
M  V30 106 1 46 101 CFG=3
M  V30 107 1 102 47
M  V30 108 1 103 47
M  V30 109 1 48 104 CFG=1
M  V30 110 1 105 27
M  V30 END BOND
M  V30 END CTAB
M  END
>  <i_epik_Tot_Q>  (1) 
1

>  <i_epik_Tot_abs_Q>  (1) 
1

>  <i_i_glide_confnum>  (1) 
79

>  <i_i_glide_lignum>  (1) 
102

>  <i_i_glide_posenum>  (1) 
244

>  <i_i_glide_rotatable_bonds>  (1) 
9

>  <i_lp_mmshare_version>  (1) 
72125

>  <i_m_source_file_index>  (1) 
42

>  <i_f3d_flags>  (1) 
0

>  <num_sample>  (1) 
50

>  <b_lp_Chiralities_Consistent>  (1) 
1

>  <r_epik_Charging_Adjusted_Penalty>  (1) 
0.076842420233623365

>  <r_epik_Ionization_Penalty>  (1) 
0.078794888684849976

>  <r_epik_Ionization_Penalty_Charging>  (1) 
0.00072930087509115145

>  <r_epik_Ionization_Penalty_Neutral>  (1) 
0.078065587809758821

>  <r_epik_State_Penalty>  (1) 
0.076113119358532211

>  <r_glide_ring_energy>  (1) 
0

>  <r_i_docking_score>  (1) 
-4.3233085181764741

>  <r_i_glide_ecoul>  (1) 
-2.6568981938947802

>  <r_i_glide_eff_state_penalty>  (1) 
0.076113119358532211

>  <r_i_glide_einternal>  (1) 
17.49238622857418

>  <r_i_glide_emodel>  (1) 
-29.335506601875537

>  <r_i_glide_emodel_strain>  (1) 
3.0405319565112592

>  <r_i_glide_energy>  (1) 
-34.842115704544817

>  <r_i_glide_erotb>  (1) 
0.0035911919815773572

>  <r_i_glide_esite>  (1) 
0

>  <r_i_glide_evdw>  (1) 
-32.185217510650034

>  <r_i_glide_gscore>  (1) 
-4.3994216375350064

>  <r_i_glide_gscore_strain>  (1) 
0

>  <r_i_glide_hbond>  (1) 
0

>  <r_i_glide_ligand_efficiency>  (1) 
-0.090068927462009882

>  <r_i_glide_ligand_efficiency_ln>  (1) 
-0.88752414620038422

>  <r_i_glide_ligand_efficiency_sa>  (1) 
-0.32733220573104477

>  <r_i_glide_lipo>  (1) 
-1.6219352577805759

>  <r_i_glide_metal>  (1) 
-0

>  <r_i_glide_rewards>  (1) 
-0.77328196711928987

>  <r_lp_Energy>  (1) 
121.88109999999999

>  <s_epik_Chemistry_Notes>  (1) 
This compound has an imine and may undergo hydrolysis. This compound contains an acetal/aminal-like group ( X-CH(R)-Y where X, Y are N, S, or O) that may be acid/base labile, releasing an aldehyde.

>  <s_epik_cmdline>  (1) 
J2VwaWtfcHl0aG9uJywgJy1waHQnLCAnMS4wJywgJy1waCcsICc3LjQnLCAnLXRuJywgJzgnLCAnLW1hJywgJzUwMCcsICctaW1hZScsICc8aW5maWxlLm1hZT4nLCAnLW9tYWUnLCAnPG91dGZpbGUubWFlPic=

>  <s_epik_input>  (1) 
W0NIXTE9W0NIXVtDSDJdW0NIMl1bQ0gyXU4xW0NIMl1bQ0BdMjNbQ0BIXShbQ0gyXVtDSF09W0NIXVtDQEhdM1tPSF0pW0NIMl1PW0NASF00W0NAQF0oW0NIM10pKFtDSDJdNClbTkhdW0NASF0oW0NIMl1bQ0gzXSkvTj1DKFtDQEBIXTVbQ0BdKFtDSDJdW0NIXShGKUYpKFtDSDJdW0NAXTU2W1NIXSlbQ0BIXTZPW0NIM10pL09bQ0gyXVtDSDJdW0NIMl1bQ0gyXVtOSF1DKD1PKVtDSDJdW0NIMl0y

>  <s_glide_docking_method>  (1) 
confgen

>  <s_i_glide_gridfile>  (1) 
gpcr_drd2_6luq_protein_autoprepared_prepared

>  <s_lp_Force_Field>  (1) 
S-OPLS

>  <s_lp_Variant>  (1) 
DiffSBDD_41_num_sample_50-2

>  <s_m_source_file>  (1) 
generated__ligand_DiffSBDD_2026-05-06_prepared.sdf

>  <GenAI_Model>  (1) 
DiffSBDD

>  <Protein>  (1) 
generic_title2

$$$$
DiffSBDD_32_num_sample_50
     RDKit          3D

  0  0  0  0  0  0  0  0  0  0999 V3000
M  V30 BEGIN CTAB
M  V30 COUNTS 59 61 0 0 1
M  V30 BEGIN ATOM
M  V30 1 C 7.820414 -0.978493 -16.715693 0
M  V30 2 F 5.434929 0.464868 -17.826111 0
M  V30 3 N 8.809606 4.844792 -10.563904 0
M  V30 4 C 9.846411 7.161694 -7.849158 0
M  V30 5 C 6.735763 6.471803 -11.909866 0
M  V30 6 C 6.874861 2.022385 -13.414194 0
M  V30 7 C 8.139899 4.153103 -16.290274 0
M  V30 8 O 9.278036 6.015433 -9.867216 0
M  V30 9 C 7.393976 5.314806 -14.098464 0 CFG=1
M  V30 10 O 8.824274 4.969869 -7.891761 0
M  V30 11 C 9.257262 5.928098 -8.531759 0
M  V30 12 C 8.887789 5.086369 -12.005807 0
M  V30 13 C 7.040250 7.899885 -12.291687 0
M  V30 14 C 5.663497 7.337607 -12.540469 0
M  V30 15 C 6.504788 -0.617436 -15.993479 0 CFG=1
M  V30 16 C 9.883847 6.207766 -12.412727 0
M  V30 17 C 9.504259 3.791815 -12.523349 0
M  V30 18 C 6.672287 0.540199 -15.062900 0
M  V30 19 C 7.034826 2.659279 -14.617498 0
M  V30 20 C 6.645809 0.657043 -13.705369 0
M  V30 21 O 5.036406 -1.755174 -17.576185 0
M  V30 22 C 5.279771 -0.528100 -16.917167 0
M  V30 23 O 6.906204 1.756024 -15.638829 0
M  V30 24 C 7.284993 4.097481 -15.032929 0 CFG=2
M  V30 25 C 6.128424 5.056620 -14.870538 0
M  V30 26 F 4.209731 -0.230807 -16.145851 0
M  V30 27 C 7.436239 5.288231 -12.567541 0 CFG=1
M  V30 28 C 9.436501 7.304654 -6.377018 0
M  V30 29 F 8.210199 -0.021705 -17.559190 0
M  V30 30 H 8.631926 -1.124561 -16.002562 0
M  V30 31 H 7.724512 -1.896002 -17.295631 0
M  V30 32 H 9.454078 4.115386 -10.291045 0
M  V30 33 H 10.931971 7.105239 -7.930599 0
M  V30 34 H 9.526753 8.043397 -8.404166 0
M  V30 35 H 6.523088 6.247759 -10.866641 0
M  V30 36 H 6.915016 2.477130 -12.442791 0
M  V30 37 H 8.354690 5.182632 -16.575683 0
M  V30 38 H 9.087751 3.640992 -16.128284 0
M  V30 39 H 7.626718 3.676856 -17.125607 0
M  V30 40 H 7.983962 6.138242 -14.496107 0
M  V30 41 H 7.151220 8.627489 -11.492028 0
M  V30 42 H 7.651867 8.084404 -13.172323 0
M  V30 43 H 5.387493 7.198237 -13.581274 0
M  V30 44 H 4.869739 7.713434 -11.895908 0
M  V30 45 H 6.234844 -1.430693 -15.333591 0
M  V30 46 H 10.080759 6.169302 -13.483164 0
M  V30 47 H 9.534852 7.206325 -12.162419 0
M  V30 48 H 10.852690 6.086626 -11.929979 0
M  V30 49 H 9.434828 3.769362 -13.601515 0
M  V30 50 H 10.563812 3.769348 -12.291730 0
M  V30 51 H 9.057398 2.886471 -12.115845 0
M  V30 52 H 6.477785 -0.148523 -13.004191 0
M  V30 53 H 5.571325 -2.427490 -17.182725 0
M  V30 54 H 5.900945 5.723915 -15.699492 0
M  V30 55 H 5.269771 4.723153 -14.291630 0
M  V30 56 H 6.822125 4.456653 -12.250720 0
M  V30 57 H 9.906217 8.178649 -5.925567 0
M  V30 58 H 8.356220 7.429961 -6.291689 0
M  V30 59 H 9.725401 6.433212 -5.787500 0
M  V30 END ATOM
M  V30 BEGIN BOND
M  V30 1 1 8 3
M  V30 2 1 11 4
M  V30 3 1 11 8
M  V30 4 2 11 10
M  V30 5 1 12 3
M  V30 6 1 13 5
M  V30 7 1 14 5
M  V30 8 1 14 13
M  V30 9 1 15 1
M  V30 10 1 16 12
M  V30 11 1 17 12
M  V30 12 1 18 15
M  V30 13 2 19 6
M  V30 14 1 20 6
M  V30 15 2 20 18
M  V30 16 1 22 2
M  V30 17 1 22 15
M  V30 18 1 22 21
M  V30 19 1 23 18
M  V30 20 1 23 19
M  V30 21 1 24 7 CFG=3
M  V30 22 1 24 9
M  V30 23 1 24 19
M  V30 24 1 25 9
M  V30 25 1 25 24
M  V30 26 1 26 22
M  V30 27 1 27 5
M  V30 28 1 27 9
M  V30 29 1 27 12
M  V30 30 1 28 4
M  V30 31 1 29 1
M  V30 32 1 30 1
M  V30 33 1 31 1
M  V30 34 1 32 3
M  V30 35 1 33 4
M  V30 36 1 34 4
M  V30 37 1 35 5
M  V30 38 1 36 6
M  V30 39 1 37 7
M  V30 40 1 38 7
M  V30 41 1 39 7
M  V30 42 1 9 40 CFG=3
M  V30 43 1 41 13
M  V30 44 1 42 13
M  V30 45 1 43 14
M  V30 46 1 44 14
M  V30 47 1 15 45 CFG=1
M  V30 48 1 46 16
M  V30 49 1 47 16
M  V30 50 1 48 16
M  V30 51 1 49 17
M  V30 52 1 50 17
M  V30 53 1 51 17
M  V30 54 1 52 20
M  V30 55 1 53 21
M  V30 56 1 54 25
M  V30 57 1 55 25
M  V30 58 1 27 56 CFG=1
M  V30 59 1 57 28
M  V30 60 1 58 28
M  V30 61 1 59 28
M  V30 END BOND
M  V30 END CTAB
M  END
>  <i_epik_Tot_Q>  (1) 
0

>  <i_epik_Tot_abs_Q>  (1) 
0

>  <i_i_glide_confnum>  (1) 
851

>  <i_i_glide_lignum>  (1) 
82

>  <i_i_glide_posenum>  (1) 
309

>  <i_i_glide_rotatable_bonds>  (1) 
12

>  <i_lp_mmshare_version>  (1) 
72125

>  <i_m_source_file_index>  (1) 
33

>  <i_f3d_flags>  (1) 
0

>  <num_sample>  (1) 
50

>  <b_lp_Chiralities_Consistent>  (1) 
1

>  <r_epik_Charging_Adjusted_Penalty>  (1) 
0.006144794000495021

>  <r_epik_Ionization_Penalty>  (1) 
0.006338033707194878

>  <r_epik_Ionization_Penalty_Charging>  (1) 
0

>  <r_epik_Ionization_Penalty_Neutral>  (1) 
0.006338033707194878

>  <r_epik_State_Penalty>  (1) 
0.006144794000495021

>  <r_glide_ring_energy>  (1) 
0

>  <r_i_docking_score>  (1) 
-4.317913356964846

>  <r_i_glide_ecoul>  (1) 
-2.4695999400065531

>  <r_i_glide_eff_state_penalty>  (1) 
0.006144794000495021

>  <r_i_glide_einternal>  (1) 
15.192787484020656

>  <r_i_glide_emodel>  (1) 
-33.619262614548454

>  <r_i_glide_emodel_strain>  (1) 
0.28664186758216204

>  <r_i_glide_energy>  (1) 
-33.782334847805032

>  <r_i_glide_erotb>  (1) 
1.020687923142688

>  <r_i_glide_esite>  (1) 
-0.15572077213197827

>  <r_i_glide_evdw>  (1) 
-31.312734907798482

>  <r_i_glide_gscore>  (1) 
-4.3240581509653406

>  <r_i_glide_gscore_strain>  (1) 
0

>  <r_i_glide_hbond>  (1) 
0

>  <r_i_glide_ligand_efficiency>  (1) 
-0.14889356403327056

>  <r_i_glide_ligand_efficiency_ln>  (1) 
-0.98869266590951743

>  <r_i_glide_ligand_efficiency_sa>  (1) 
-0.45744820201575032

>  <r_i_glide_lipo>  (1) 
-1.7347088108653945

>  <r_i_glide_metal>  (1) 
-0

>  <r_i_glide_rewards>  (1) 
-1.5182397547197493

>  <r_lp_Energy>  (1) 
6.2328609999999998

>  <s_epik_Chemistry_Notes>  (1) 
This compound has a N-S or N-O group and may undergo hydrolysis at high or low pH.

>  <s_epik_cmdline>  (1) 
J2VwaWtfcHl0aG9uJywgJy1waHQnLCAnMS4wJywgJy1waCcsICc3LjQnLCAnLXRuJywgJzgnLCAnLW1hJywgJzUwMCcsICctaW1hZScsICc8aW5maWxlLm1hZT4nLCAnLW9tYWUnLCAnPG91dGZpbGUubWFlPic=

>  <s_epik_input>  (1) 
RkMoRikoW09IXSlbQ0BASF0oW0NIMl1GKWMxW2NIXVtjSF1jKG8xKVtDQF0yKFtDSDNdKVtDQEBIXShbQ0gyXTIpW0NASF0oW0NIXTNbQ0gyXVtDSDJdMylDKFtDSDNdKShbQ0gzXSlbTkhdT0MoPU8pW0NIMl1bQ0gzXQ==

>  <s_glide_docking_method>  (1) 
confgen

>  <s_i_glide_gridfile>  (1) 
gpcr_drd2_6luq_protein_autoprepared_prepared

>  <s_lp_Force_Field>  (1) 
S-OPLS

>  <s_lp_Variant>  (1) 
DiffSBDD_32_num_sample_50-1

>  <s_m_source_file>  (1) 
generated__ligand_DiffSBDD_2026-05-06_prepared.sdf

>  <GenAI_Model>  (1) 
DiffSBDD

>  <Protein>  (1) 
generic_title2

$$$$
DiffSBDD_10_num_sample_50
     RDKit          3D

  0  0  0  0  0  0  0  0  0  0999 V3000
M  V30 BEGIN CTAB
M  V30 COUNTS 72 73 0 0 1
M  V30 BEGIN ATOM
M  V30 1 C 13.734017 1.843155 -19.710812 0 CFG=2
M  V30 2 C 8.136992 4.194447 -11.637586 0
M  V30 3 C 7.927895 3.271962 -14.840039 0
M  V30 4 C 8.979584 3.672767 -18.387465 0 CFG=1
M  V30 5 C 12.832439 2.813311 -20.493534 0 CFG=2
M  V30 6 N 5.972349 5.000303 -12.348858 0
M  V30 7 N 9.660410 2.484928 -20.348429 0
M  V30 8 C 10.542042 3.595935 -20.219214 0 CFG=1
M  V30 9 S 15.562353 1.809843 -20.141031 0
M  V30 10 C 8.576711 5.476167 -10.953812 0
M  V30 11 S 16.157738 3.747296 -19.505320 0 CHG=-1
M  V30 12 C 13.964524 2.329944 -17.200962 0
M  V30 13 O 9.436481 7.774209 -6.963677 0
M  V30 14 O 16.234911 0.839313 -19.263028 0
M  V30 15 C 12.909054 1.351456 -20.892335 0 CFG=2
M  V30 16 C 6.653909 1.044715 -14.533983 0
M  V30 17 C 9.082600 2.271517 -19.033312 0 CFG=2
M  V30 18 N 9.035236 6.547114 -8.763217 0 CHG=1
M  V30 19 N 6.601999 2.828028 -12.854179 0
M  V30 20 C 8.738976 5.273097 -9.442446 0
M  V30 21 C 10.844698 5.565743 -18.616474 0
M  V30 22 C 13.450571 1.372370 -18.281351 0
M  V30 23 C 13.345663 3.950865 -21.368386 0
M  V30 24 C 9.344855 3.687977 -16.889056 0
M  V30 25 C 7.035148 2.426015 -13.990828 0
M  V30 26 O 11.785646 0.566813 -20.537378 0
M  V30 27 C 6.948724 4.031841 -12.253873 0
M  V30 28 O 15.754620 1.733389 -21.597554 0
M  V30 29 F 7.901638 1.665045 -19.140507 0
M  V30 30 N 5.551319 0.440081 -13.802091 0
M  V30 31 C 9.155561 6.435248 -7.300659 0
M  V30 32 C 9.853115 4.586479 -19.278887 0 CFG=2
M  V30 33 O 11.753431 3.202702 -19.636442 0
M  V30 34 C 8.427676 2.849959 -16.018964 0
M  V30 35 H 8.839780 3.371985 -11.612902 0
M  V30 36 H 8.162376 4.253833 -14.457355 0
M  V30 37 H 7.949582 4.022294 -18.479833 0
M  V30 38 H 6.078863 5.909851 -11.921635 0
M  V30 39 H 10.149644 1.655914 -20.671107 0
M  V30 40 H 10.712249 4.050113 -21.193519 0
M  V30 41 H 7.862688 6.278806 -11.141420 0
M  V30 42 H 9.520691 5.792429 -11.398207 0
M  V30 43 H 13.633477 2.001001 -16.218887 0
M  V30 44 H 15.053159 2.374167 -17.183321 0
M  V30 45 H 13.585086 3.340906 -17.356983 0
M  V30 46 H 8.689905 8.116138 -6.490701 0
M  V30 47 H 13.362606 1.081650 -21.843024 0
M  V30 48 H 6.351631 1.118976 -15.578702 0
M  V30 49 H 7.522607 0.388317 -14.479167 0
M  V30 50 H 9.740331 1.620340 -18.455920 0
M  V30 51 H 8.259656 7.183260 -8.980355 0
M  V30 52 H 9.538286 4.558278 -9.241016 0
M  V30 53 H 7.817608 4.860442 -9.027366 0
M  V30 54 H 11.553131 5.059233 -17.959459 0
M  V30 55 H 11.423964 6.097726 -19.371962 0
M  V30 56 H 10.317124 6.312662 -18.024321 0
M  V30 57 H 12.377920 1.254362 -18.133772 0
M  V30 58 H 13.885901 0.382135 -18.143070 0
M  V30 59 H 14.247210 3.670613 -21.907844 0
M  V30 60 H 12.607655 4.239101 -22.114165 0
M  V30 61 H 13.574021 4.819861 -20.750672 0
M  V30 62 H 9.340040 4.710996 -16.510857 0
M  V30 63 H 10.361391 3.312957 -16.760375 0
M  V30 64 H 11.675261 0.645811 -19.601330 0
M  V30 65 H 5.435015 -0.534503 -14.058626 0
M  V30 66 H 5.783506 0.435302 -12.819011 0
M  V30 67 H 9.979947 5.778463 -7.017614 0
M  V30 68 H 8.234699 6.092400 -6.831342 0
M  V30 69 H 9.174429 5.172597 -19.902243 0
M  V30 70 H 8.187191 1.865410 -16.388806 0
M  V30 71 H 5.087998 4.817755 -12.797982 0
M  V30 72 H 9.885708 6.945653 -9.129357 0
M  V30 END ATOM
M  V30 BEGIN BOND
M  V30 1 1 5 1
M  V30 2 1 8 7
M  V30 3 1 9 1
M  V30 4 1 10 2
M  V30 5 1 11 9
M  V30 6 2 14 9
M  V30 7 1 15 1
M  V30 8 1 15 5
M  V30 9 1 17 4
M  V30 10 1 17 7
M  V30 11 1 20 10
M  V30 12 1 20 18
M  V30 13 1 1 22 CFG=1
M  V30 14 1 22 12
M  V30 15 1 23 5
M  V30 16 1 24 4
M  V30 17 1 25 3
M  V30 18 1 25 16
M  V30 19 2 25 19
M  V30 20 1 26 15
M  V30 21 2 27 2
M  V30 22 1 27 6
M  V30 23 1 27 19
M  V30 24 2 28 9
M  V30 25 1 29 17
M  V30 26 1 30 16
M  V30 27 1 31 13
M  V30 28 1 31 18
M  V30 29 1 32 4
M  V30 30 1 32 8
M  V30 31 1 32 21
M  V30 32 1 5 33 CFG=1
M  V30 33 1 33 8
M  V30 34 2 34 3
M  V30 35 1 34 24
M  V30 36 1 35 2
M  V30 37 1 36 3
M  V30 38 1 4 37 CFG=1
M  V30 39 1 38 6
M  V30 40 1 39 7
M  V30 41 1 8 40 CFG=3
M  V30 42 1 41 10
M  V30 43 1 42 10
M  V30 44 1 43 12
M  V30 45 1 44 12
M  V30 46 1 45 12
M  V30 47 1 46 13
M  V30 48 1 15 47 CFG=3
M  V30 49 1 48 16
M  V30 50 1 49 16
M  V30 51 1 17 50 CFG=1
M  V30 52 1 51 18
M  V30 53 1 52 20
M  V30 54 1 53 20
M  V30 55 1 54 21
M  V30 56 1 55 21
M  V30 57 1 56 21
M  V30 58 1 57 22
M  V30 59 1 58 22
M  V30 60 1 59 23
M  V30 61 1 60 23
M  V30 62 1 61 23
M  V30 63 1 62 24
M  V30 64 1 63 24
M  V30 65 1 64 26
M  V30 66 1 65 30
M  V30 67 1 66 30
M  V30 68 1 67 31
M  V30 69 1 68 31
M  V30 70 1 32 69 CFG=3
M  V30 71 1 70 34
M  V30 72 1 71 6
M  V30 73 1 72 18
M  V30 END BOND
M  V30 END CTAB
M  END
>  <i_epik_Tot_Q>  (1) 
0

>  <i_epik_Tot_abs_Q>  (1) 
2

>  <i_i_glide_confnum>  (1) 
29

>  <i_i_glide_lignum>  (1) 
26

>  <i_i_glide_posenum>  (1) 
376

>  <i_i_glide_rotatable_bonds>  (1) 
15

>  <i_lp_mmshare_version>  (1) 
72125

>  <i_m_source_file_index>  (1) 
11

>  <i_f3d_flags>  (1) 
0

>  <num_sample>  (1) 
50

>  <b_lp_Chiralities_Consistent>  (1) 
1

>  <r_epik_Charging_Adjusted_Penalty>  (1) 
0.33639934582642134

>  <r_epik_Ionization_Penalty>  (1) 
0.23315943830934333

>  <r_epik_Ionization_Penalty_Charging>  (1) 
0.10316865490585193

>  <r_epik_Ionization_Penalty_Neutral>  (1) 
0.12999078340349141

>  <r_epik_State_Penalty>  (1) 
0.23323069092056939

>  <r_glide_ring_energy>  (1) 
0

>  <r_i_docking_score>  (1) 
-4.30532493049399

>  <r_i_glide_ecoul>  (1) 
-9.4028093094125111

>  <r_i_glide_eff_state_penalty>  (1) 
0.23323069092056939

>  <r_i_glide_einternal>  (1) 
2.5520954314904305

>  <r_i_glide_emodel>  (1) 
-51.073080511210669

>  <r_i_glide_emodel_strain>  (1) 
0.25737166420952917

>  <r_i_glide_energy>  (1) 
-37.644489941574584

>  <r_i_glide_erotb>  (1) 
0.57757419641111274

>  <r_i_glide_esite>  (1) 
-0.21207725041453368

>  <r_i_glide_evdw>  (1) 
-28.241680632162073

>  <r_i_glide_gscore>  (1) 
-4.5385556214145595

>  <r_i_glide_gscore_strain>  (1) 
0

>  <r_i_glide_hbond>  (1) 
-0.30577179806209875

>  <r_i_glide_ligand_efficiency>  (1) 
-0.12662720383805853

>  <r_i_glide_ligand_efficiency_ln>  (1) 
-0.95116703741999975

>  <r_i_glide_ligand_efficiency_sa>  (1) 
-0.41022298391654388

>  <r_i_glide_lipo>  (1) 
-0.81545794553352924

>  <r_i_glide_metal>  (1) 
-0

>  <r_i_glide_rewards>  (1) 
-0.96031739579552977

>  <r_lp_Energy>  (1) 
25.865628999999998

>  <s_epik_Chemistry_Notes>  (1) 
This compound has an imine and may undergo hydrolysis. This compound contains an acetal/aminal-like group ( X-CH(R)-Y where X, Y are N, S, or O) that may be acid/base labile, releasing an aldehyde.

>  <s_epik_cmdline>  (1) 
J2VwaWtfcHl0aG9uJywgJy1waHQnLCAnMS4wJywgJy1waCcsICc3LjQnLCAnLXRuJywgJzgnLCAnLW1hJywgJzUwMCcsICctaW1hZScsICc8aW5maWxlLm1hZT4nLCAnLW9tYWUnLCAnPG91dGZpbGUubWFlPic=

>  <s_epik_input>  (1) 
W1NIXVMoPU8pKD1PKVtDQEBdMShbQ0gyXVtDSDNdKVtDQEBdKFtDSDNdKShbQ0BASF0xW09IXSlPW0NASF0oW0NAQEhdMltDSDNdKVtOSF1bQ0BASF0oRilbQ0BIXTJbQ0gyXVxbQ0hdPVtDSF1cQyhbQ0gyXVtOSDJdKT1OL0MoPU4vW0hdKS9bQ0gyXVtDSDJdW0NIMl1bTkhdW0NIMl1bT0hd

>  <s_glide_docking_method>  (1) 
confgen

>  <s_i_glide_gridfile>  (1) 
gpcr_drd2_6luq_protein_autoprepared_prepared

>  <s_lp_Force_Field>  (1) 
S-OPLS

>  <s_lp_Variant>  (1) 
DiffSBDD_10_num_sample_50-6

>  <s_m_source_file>  (1) 
generated__ligand_DiffSBDD_2026-05-06_prepared.sdf

>  <GenAI_Model>  (1) 
DiffSBDD

>  <Protein>  (1) 
generic_title2

$$$$
DiffSBDD_24_num_sample_50
     RDKit          3D

  0  0  0  0  0  0  0  0  0  0999 V3000
M  V30 BEGIN CTAB
M  V30 COUNTS 85 91 0 0 1
M  V30 BEGIN ATOM
M  V30 1 N 9.194042 3.372545 -18.246890 0
M  V30 2 C 6.471345 3.152468 -12.282398 0
M  V30 3 O 8.055301 -1.671894 -18.641170 0
M  V30 4 C 10.923024 1.253494 -18.083454 0 CFG=2
M  V30 5 C 7.236210 7.046522 -20.271885 0 CFG=1
M  V30 6 C 6.379113 5.695938 -12.962405 0 CFG=2
M  V30 7 C 6.344058 -0.751694 -17.040403 0 CFG=2
M  V30 8 C 8.575967 0.447567 -17.485074 0
M  V30 9 N 6.022794 6.736010 -19.513408 0
M  V30 10 N 6.949255 0.091860 -14.729715 0 CFG=1 CHG=1
M  V30 11 C 6.505974 1.636438 -16.706558 0
M  V30 12 C 9.260235 2.572200 -19.470112 0
M  V30 13 C 8.239747 5.905369 -20.089748 0
M  V30 14 C 7.954465 1.635264 -17.138949 0
M  V30 15 C 4.998569 7.637221 -20.024830 0
M  V30 16 C 9.733049 4.742942 -18.341622 0
M  V30 17 C 6.273082 6.785771 -18.066728 0 CFG=2
M  V30 18 O 8.642277 3.644058 -16.061674 0
M  V30 19 C 7.300158 6.431611 -12.007252 0
M  V30 20 F 5.834832 -1.913826 -16.655223 0
M  V30 21 C 7.367710 5.749396 -17.743458 0
M  V30 22 C 13.494973 1.359774 -18.117306 0
M  V30 23 C 5.019055 7.395576 -21.539046 0 CFG=1
M  V30 24 C 7.521358 -1.174430 -19.859152 0
M  V30 25 C 8.652907 5.836932 -18.612968 0 CFG=2
M  V30 26 C 10.597461 1.832806 -19.468379 0
M  V30 27 F 5.034832 6.403286 -11.091672 0
M  V30 28 C 5.714432 4.458488 -12.386193 0 CFG=2
M  V30 29 C 8.645897 2.937300 -17.068025 0
M  V30 30 C 12.246830 0.468021 -18.082049 0
M  V30 31 C 7.839874 -0.893535 -17.465375 0 CFG=2
M  V30 32 C 6.123370 0.349439 -15.963848 0 CFG=1
M  V30 33 C 5.008537 6.464311 -17.256992 0
M  V30 34 S 6.752502 7.296689 -21.995856 0
M  V30 35 C 7.092433 1.000367 -13.569051 0 CFG=1
M  V30 36 O 9.921650 0.294943 -17.817096 0
M  V30 37 C 6.104955 5.636379 -11.511934 0 CFG=1
M  V30 38 Cl 4.234827 5.842187 -21.936637 0
M  V30 39 C 6.469351 2.387360 -13.603244 0
M  V30 40 C 6.234736 -0.230703 -13.497039 0
M  V30 41 H 7.492850 3.369288 -11.963116 0
M  V30 42 H 5.985210 2.564456 -11.505397 0
M  V30 43 H 11.025996 1.986060 -17.284887 0
M  V30 44 H 7.655849 7.987135 -19.920363 0
M  V30 45 H 5.738363 6.328381 -13.574160 0
M  V30 46 H 5.738904 -0.489392 -17.906915 0
M  V30 47 H 6.268722 2.520207 -16.136228 0
M  V30 48 H 5.900019 1.747132 -17.607376 0
M  V30 49 H 9.233832 3.220871 -20.344908 0
M  V30 50 H 8.404296 1.917844 -19.612167 0
M  V30 51 H 7.786241 4.968309 -20.413422 0
M  V30 52 H 9.113700 6.072051 -20.719985 0
M  V30 53 H 4.018864 7.442280 -19.595654 0
M  V30 54 H 5.261724 8.671151 -19.794725 0
M  V30 55 H 10.265714 4.988671 -17.420671 0
M  V30 56 H 10.502599 4.787872 -19.113157 0
M  V30 57 H 6.594288 7.769301 -17.745392 0
M  V30 58 H 8.287437 6.006449 -11.838992 0
M  V30 59 H 7.241186 7.517263 -11.956426 0
M  V30 60 H 7.627518 5.836119 -16.688940 0
M  V30 61 H 6.907057 4.772212 -17.882127 0
M  V30 62 H 14.401162 0.755536 -18.072221 0
M  V30 63 H 13.512504 2.044824 -17.269105 0
M  V30 64 H 13.541078 1.952653 -19.030122 0
M  V30 65 H 4.506594 8.181144 -22.094735 0
M  V30 66 H 7.858172 -1.810010 -20.677763 0
M  V30 67 H 7.859224 -0.163837 -20.074820 0
M  V30 68 H 6.432300 -1.192783 -19.865791 0
M  V30 69 H 9.130002 6.790010 -18.388227 0
M  V30 70 H 10.585277 1.047602 -20.224905 0
M  V30 71 H 11.384843 2.527542 -19.760461 0
M  V30 72 H 4.654115 4.333819 -12.596290 0
M  V30 73 H 12.293343 -0.142958 -17.179723 0
M  V30 74 H 12.269465 -0.230710 -18.918120 0
M  V30 75 H 8.338808 -1.454221 -16.675985 0
M  V30 76 H 5.062584 0.396829 -15.713959 0
M  V30 77 H 5.225755 6.459625 -16.188721 0
M  V30 78 H 4.634830 5.477719 -17.515812 0
M  V30 79 H 4.213961 7.193108 -17.414351 0
M  V30 80 H 8.114933 0.942390 -13.199678 0
M  V30 81 H 7.006570 3.013145 -14.306714 0
M  V30 82 H 5.434860 2.285077 -13.891665 0
M  V30 83 H 5.153337 -0.151442 -13.591096 0
M  V30 84 H 6.634839 -1.124510 -13.031787 0
M  V30 85 H 7.733655 -0.532402 -14.859522 0
M  V30 END ATOM
M  V30 BEGIN BOND
M  V30 1 1 9 5
M  V30 2 1 12 1
M  V30 3 1 13 5
M  V30 4 2 14 8
M  V30 5 1 14 11
M  V30 6 1 15 9
M  V30 7 1 16 1
M  V30 8 1 17 9
M  V30 9 1 19 6
M  V30 10 1 20 7
M  V30 11 1 21 17
M  V30 12 1 23 15
M  V30 13 1 24 3
M  V30 14 1 25 13
M  V30 15 1 25 16
M  V30 16 1 25 21
M  V30 17 1 26 4
M  V30 18 1 26 12
M  V30 19 1 28 2
M  V30 20 1 28 6
M  V30 21 1 29 1
M  V30 22 1 29 14
M  V30 23 2 29 18
M  V30 24 1 30 4
M  V30 25 1 30 22
M  V30 26 1 31 3
M  V30 27 1 31 7
M  V30 28 1 31 8
M  V30 29 1 32 7
M  V30 30 1 32 10
M  V30 31 1 32 11
M  V30 32 1 33 17
M  V30 33 1 34 5
M  V30 34 1 34 23
M  V30 35 1 35 10
M  V30 36 1 36 4
M  V30 37 1 36 8
M  V30 38 1 37 6
M  V30 39 1 37 19
M  V30 40 1 37 27 CFG=3
M  V30 41 1 37 28
M  V30 42 1 38 23
M  V30 43 1 39 2
M  V30 44 1 39 35
M  V30 45 1 40 10
M  V30 46 1 40 35
M  V30 47 1 41 2
M  V30 48 1 42 2
M  V30 49 1 4 43 CFG=1
M  V30 50 1 5 44 CFG=1
M  V30 51 1 6 45 CFG=3
M  V30 52 1 7 46 CFG=3
M  V30 53 1 47 11
M  V30 54 1 48 11
M  V30 55 1 49 12
M  V30 56 1 50 12
M  V30 57 1 51 13
M  V30 58 1 52 13
M  V30 59 1 53 15
M  V30 60 1 54 15
M  V30 61 1 55 16
M  V30 62 1 56 16
M  V30 63 1 17 57 CFG=1
M  V30 64 1 58 19
M  V30 65 1 59 19
M  V30 66 1 60 21
M  V30 67 1 61 21
M  V30 68 1 62 22
M  V30 69 1 63 22
M  V30 70 1 64 22
M  V30 71 1 23 65 CFG=3
M  V30 72 1 66 24
M  V30 73 1 67 24
M  V30 74 1 68 24
M  V30 75 1 25 69 CFG=1
M  V30 76 1 70 26
M  V30 77 1 71 26
M  V30 78 1 28 72 CFG=3
M  V30 79 1 73 30
M  V30 80 1 74 30
M  V30 81 1 31 75 CFG=1
M  V30 82 1 32 76 CFG=1
M  V30 83 1 77 33
M  V30 84 1 78 33
M  V30 85 1 79 33
M  V30 86 1 35 80 CFG=1
M  V30 87 1 81 39
M  V30 88 1 82 39
M  V30 89 1 83 40
M  V30 90 1 84 40
M  V30 91 1 10 85 CFG=3
M  V30 END BOND
M  V30 END CTAB
M  END
>  <i_epik_Tot_Q>  (1) 
1

>  <i_epik_Tot_abs_Q>  (1) 
1

>  <i_i_glide_confnum>  (1) 
4

>  <i_i_glide_lignum>  (1) 
65

>  <i_i_glide_posenum>  (1) 
68

>  <i_i_glide_rotatable_bonds>  (1) 
8

>  <i_lp_mmshare_version>  (1) 
72125

>  <i_m_source_file_index>  (1) 
25

>  <i_f3d_flags>  (1) 
0

>  <num_sample>  (1) 
50

>  <b_lp_Chiralities_Consistent>  (1) 
1

>  <r_epik_Charging_Adjusted_Penalty>  (1) 
0.63439585009227506

>  <r_epik_Ionization_Penalty>  (1) 
0.31719815469996288

>  <r_epik_Ionization_Penalty_Charging>  (1) 
0.31719792504613759

>  <r_epik_Ionization_Penalty_Neutral>  (1) 
2.2965382529121371e-07

>  <r_epik_State_Penalty>  (1) 
0.31719792504613753

>  <r_glide_ring_energy>  (1) 
0

>  <r_i_docking_score>  (1) 
-4.2968621664071485

>  <r_i_glide_ecoul>  (1) 
-3.0181067155862848

>  <r_i_glide_eff_state_penalty>  (1) 
0.31719792504613753

>  <r_i_glide_einternal>  (1) 
9.971084058897203

>  <r_i_glide_emodel>  (1) 
-36.284400135296288

>  <r_i_glide_emodel_strain>  (1) 
0.92443563659867323

>  <r_i_glide_energy>  (1) 
-31.408092110997

>  <r_i_glide_erotb>  (1) 
0.23102689348128655

>  <r_i_glide_esite>  (1) 
-0.084565976232514856

>  <r_i_glide_evdw>  (1) 
-28.389985395410715

>  <r_i_glide_gscore>  (1) 
-4.6140600914532861

>  <r_i_glide_gscore_strain>  (1) 
0

>  <r_i_glide_hbond>  (1) 
0

>  <r_i_glide_ligand_efficiency>  (1) 
-0.10742155416017871

>  <r_i_glide_ligand_efficiency_ln>  (1) 
-0.91639424908592204

>  <r_i_glide_ligand_efficiency_sa>  (1) 
-0.36737654753706739

>  <r_i_glide_lipo>  (1) 
-2.5462246776437918

>  <r_i_glide_metal>  (1) 
-0

>  <r_i_glide_rewards>  (1) 
-0.34208105394978738

>  <r_lp_Energy>  (1) 
53.388234999999995

>  <s_epik_Chemistry_Notes>  (1) 
This compound contains an acetal/aminal-like group ( X-CH(R)-Y where X, Y are N, S, or O) that may be acid/base labile, releasing an aldehyde.

>  <s_epik_cmdline>  (1) 
J2VwaWtfcHl0aG9uJywgJy1waHQnLCAnMS4wJywgJy1waCcsICc3LjQnLCAnLXRuJywgJzgnLCAnLW1hJywgJzUwMCcsICctaW1hZScsICc8aW5maWxlLm1hZT4nLCAnLW9tYWUnLCAnPG91dGZpbGUubWFlPic=

>  <s_epik_input>  (1) 
UzFbQ0BASF0oQ2wpW0NIMl1OKFtDQEhdMTIpW0NAQEhdKFtDSDNdKVtDSDJdW0NASF0oW0NIMl0yKVtDSDJdTihbQ0gyXVtDSDJdW0NAQEhdKE8zKVtDSDJdW0NIM10pQyg9TylDKD1DMzQpW0NIMl1bQ0BASF0oW0NASF0oRilbQ0BIXTRPW0NIM10pTjVbQ0BIXShbQ0gyXTUpW0NIMl1bQ0gyXVtDQEBIXTZbQ0hdKFtDSDJdNylDNjdG

>  <s_glide_docking_method>  (1) 
confgen

>  <s_i_glide_gridfile>  (1) 
gpcr_drd2_6luq_protein_autoprepared_prepared

>  <s_lp_Force_Field>  (1) 
S-OPLS

>  <s_lp_Variant>  (1) 
DiffSBDD_24_num_sample_50-2

>  <s_m_source_file>  (1) 
generated__ligand_DiffSBDD_2026-05-06_prepared.sdf

>  <GenAI_Model>  (1) 
DiffSBDD

>  <Protein>  (1) 
generic_title2

$$$$
DiffSBDD_44_num_sample_50
     RDKit          3D

  0  0  0  0  0  0  0  0  0  0999 V3000
M  V30 BEGIN CTAB
M  V30 COUNTS 61 64 0 0 1
M  V30 BEGIN ATOM
M  V30 1 C 14.353485 4.588795 -17.424791 0
M  V30 2 C 6.533898 5.132603 -13.605986 0 CFG=1
M  V30 3 C 7.918869 6.916812 -12.441788 0
M  V30 4 C 11.991139 3.741118 -17.664331 0 CFG=1
M  V30 5 C 14.779928 3.532864 -18.448818 0
M  V30 6 C 9.231550 4.572148 -10.997919 0
M  V30 7 C 12.888326 5.016223 -17.652335 0 CFG=1
M  V30 8 O 13.287826 7.228915 -16.679587 0
M  V30 9 N 9.725651 4.580481 -17.013869 0
M  V30 10 C 13.817017 2.334983 -18.460067 0 CFG=2
M  V30 11 C 5.560108 6.256442 -14.093442 0
M  V30 12 O 10.294418 6.894479 -11.714308 0
M  V30 13 C 10.516537 3.950908 -18.065903 0
M  V30 14 C 7.698281 5.355938 -15.887772 0 CFG=2
M  V30 15 O 7.716774 4.097653 -17.934348 0
M  V30 16 C 8.598535 4.508853 -12.167721 0
M  V30 17 C 8.953329 7.510754 -11.760827 0
M  V30 18 C 12.475731 6.073698 -16.600063 0
M  V30 19 C 9.518934 6.977790 -10.712121 0
M  V30 20 O 12.485128 2.814012 -18.634176 0
M  V30 21 C 9.114370 5.705963 -10.051198 0
M  V30 22 C 13.939064 1.425251 -17.224102 0
M  V30 23 F 14.163110 1.576710 -19.499844 0
M  V30 24 C 8.384967 4.615535 -17.039900 0
M  V30 25 C 7.062745 4.392943 -14.867559 0
M  V30 26 C 6.618231 6.320725 -16.404817 0
M  V30 27 C 7.722566 5.568093 -12.705434 0
M  V30 28 C 6.071987 7.155817 -15.244115 0
M  V30 29 C 5.671372 4.149983 -12.779824 0
M  V30 30 H 15.021208 5.447416 -17.500451 0
M  V30 31 H 14.473037 4.197733 -16.413665 0
M  V30 32 H 7.212955 7.598798 -12.871140 0
M  V30 33 H 12.006929 3.265421 -16.687258 0
M  V30 34 H 14.794092 3.987950 -19.440222 0
M  V30 35 H 15.798730 3.199592 -18.253367 0
M  V30 36 H 9.834805 3.738188 -10.676030 0
M  V30 37 H 12.819402 5.477784 -18.638781 0
M  V30 38 H 13.082866 7.696997 -17.476341 0
M  V30 39 H 10.215917 5.018055 -16.247756 0
M  V30 40 H 5.210661 6.861698 -13.255840 0
M  V30 41 H 4.661974 5.769046 -14.474098 0
M  V30 42 H 10.452334 4.543564 -18.979678 0
M  V30 43 H 10.075696 2.978487 -18.294407 0
M  V30 44 H 8.466140 5.942068 -15.381175 0
M  V30 45 H 8.703902 3.599246 -12.736768 0
M  V30 46 H 12.540855 5.661472 -15.592239 0
M  V30 47 H 11.452748 6.412576 -16.746736 0
M  V30 48 H 9.763765 5.530299 -9.193990 0
M  V30 49 H 8.092755 5.769496 -9.674059 0
M  V30 50 H 13.766017 1.961301 -16.292696 0
M  V30 51 H 13.220742 0.606624 -17.272501 0
M  V30 52 H 14.934607 0.985749 -17.161558 0
M  V30 53 H 6.234862 3.876330 -15.345388 0
M  V30 54 H 7.762381 3.598394 -14.615166 0
M  V30 55 H 7.018635 6.969279 -17.183751 0
M  V30 56 H 5.801834 5.765052 -16.868439 0
M  V30 57 H 6.851484 7.839047 -14.913150 0
M  V30 58 H 5.258360 7.789937 -15.598152 0
M  V30 59 H 4.805339 3.797888 -13.341087 0
M  V30 60 H 6.230379 3.261931 -12.483979 0
M  V30 61 H 5.301487 4.622044 -11.868397 0
M  V30 END ATOM
M  V30 BEGIN BOND
M  V30 1 1 5 1
M  V30 2 1 7 1
M  V30 3 1 7 4
M  V30 4 1 10 5
M  V30 5 1 11 2
M  V30 6 1 13 4
M  V30 7 1 13 9
M  V30 8 2 16 6
M  V30 9 1 17 3
M  V30 10 1 17 12
M  V30 11 1 18 7
M  V30 12 1 18 8
M  V30 13 1 19 12
M  V30 14 2 19 17
M  V30 15 1 20 4
M  V30 16 1 20 10
M  V30 17 1 21 6
M  V30 18 1 21 19
M  V30 19 1 22 10
M  V30 20 1 10 23 CFG=3
M  V30 21 1 24 9
M  V30 22 1 24 14
M  V30 23 2 24 15
M  V30 24 1 25 2
M  V30 25 1 25 14
M  V30 26 1 26 14
M  V30 27 1 27 2
M  V30 28 2 27 3
M  V30 29 1 27 16
M  V30 30 1 28 11
M  V30 31 1 28 26
M  V30 32 1 2 29 CFG=1
M  V30 33 1 30 1
M  V30 34 1 31 1
M  V30 35 1 32 3
M  V30 36 1 4 33 CFG=1
M  V30 37 1 34 5
M  V30 38 1 35 5
M  V30 39 1 36 6
M  V30 40 1 7 37 CFG=3
M  V30 41 1 38 8
M  V30 42 1 39 9
M  V30 43 1 40 11
M  V30 44 1 41 11
M  V30 45 1 42 13
M  V30 46 1 43 13
M  V30 47 1 14 44 CFG=1
M  V30 48 1 45 16
M  V30 49 1 46 18
M  V30 50 1 47 18
M  V30 51 1 48 21
M  V30 52 1 49 21
M  V30 53 1 50 22
M  V30 54 1 51 22
M  V30 55 1 52 22
M  V30 56 1 53 25
M  V30 57 1 54 25
M  V30 58 1 55 26
M  V30 59 1 56 26
M  V30 60 1 57 28
M  V30 61 1 58 28
M  V30 62 1 59 29
M  V30 63 1 60 29
M  V30 64 1 61 29
M  V30 END BOND
M  V30 END CTAB
M  END
>  <i_epik_Tot_Q>  (1) 
0

>  <i_epik_Tot_abs_Q>  (1) 
0

>  <i_i_glide_confnum>  (1) 
136

>  <i_i_glide_lignum>  (1) 
110

>  <i_i_glide_posenum>  (1) 
352

>  <i_i_glide_rotatable_bonds>  (1) 
7

>  <i_lp_mmshare_version>  (1) 
72125

>  <i_m_source_file_index>  (1) 
45

>  <i_f3d_flags>  (1) 
0

>  <num_sample>  (1) 
50

>  <b_lp_Chiralities_Consistent>  (1) 
1

>  <r_epik_Charging_Adjusted_Penalty>  (1) 
0

>  <r_epik_Ionization_Penalty>  (1) 
7.6933096193548639e-08

>  <r_epik_Ionization_Penalty_Charging>  (1) 
0

>  <r_epik_Ionization_Penalty_Neutral>  (1) 
7.6933096193548639e-08

>  <r_epik_State_Penalty>  (1) 
-0

>  <r_glide_ring_energy>  (1) 
0

>  <r_i_docking_score>  (1) 
-4.2961420580618208

>  <r_i_glide_ecoul>  (1) 
-1.9665644279774499

>  <r_i_glide_eff_state_penalty>  (1) 
-0

>  <r_i_glide_einternal>  (1) 
3.681496609172676

>  <r_i_glide_emodel>  (1) 
-37.014574652633939

>  <r_i_glide_emodel_strain>  (1) 
0

>  <r_i_glide_energy>  (1) 
-32.314900355504868

>  <r_i_glide_erotb>  (1) 
0.71709703680073922

>  <r_i_glide_esite>  (1) 
0

>  <r_i_glide_evdw>  (1) 
-30.348335927527419

>  <r_i_glide_gscore>  (1) 
-4.2961420580618208

>  <r_i_glide_gscore_strain>  (1) 
0

>  <r_i_glide_hbond>  (1) 
0

>  <r_i_glide_ligand_efficiency>  (1) 
-0.14814282958833866

>  <r_i_glide_ligand_efficiency_ln>  (1) 
-0.98370759053323065

>  <r_i_glide_ligand_efficiency_sa>  (1) 
-0.45514170794896408

>  <r_i_glide_lipo>  (1) 
-1.8260488535449733

>  <r_i_glide_metal>  (1) 
-0

>  <r_i_glide_rewards>  (1) 
-1.3747887807445978

>  <r_lp_Energy>  (1) 
41.397649999999999

>  <r_lp_tautomer_probability>  (1) 
1

>  <s_epik_cmdline>  (1) 
J2VwaWtfcHl0aG9uJywgJy1waHQnLCAnMS4wJywgJy1waCcsICc3LjQnLCAnLXRuJywgJzgnLCAnLW1hJywgJzUwMCcsICctaW1hZScsICc8aW5maWxlLm1hZT4nLCAnLW9tYWUnLCAnPG91dGZpbGUubWFlPic=

>  <s_epik_input>  (1) 
W0NIM11bQ0BdMShGKVtDSDJdW0NIMl1bQ0BIXShbQ0gyXVtPSF0pW0NASF0oTzEpW0NIMl1bTkhdQyg9TylbQ0BIXShbQ0gyXTIpW0NIMl1bQ0gyXVtDSDJdW0NAXTIoW0NIM10pQyg9W0NIXTMpW0NIXT1bQ0hdW0NIMl1DKE80KT1DMzQ=

>  <s_glide_docking_method>  (1) 
confgen

>  <s_i_glide_gridfile>  (1) 
gpcr_drd2_6luq_protein_autoprepared_prepared

>  <s_lp_Force_Field>  (1) 
S-OPLS

>  <s_lp_Variant>  (1) 
DiffSBDD_44_num_sample_50-1

>  <s_m_source_file>  (1) 
generated__ligand_DiffSBDD_2026-05-06_prepared.sdf

>  <GenAI_Model>  (1) 
DiffSBDD

>  <Protein>  (1) 
generic_title2

$$$$
DiffSBDD_10_num_sample_50
     RDKit          3D

  0  0  0  0  0  0  0  0  0  0999 V3000
M  V30 BEGIN CTAB
M  V30 COUNTS 73 74 0 0 1
M  V30 BEGIN ATOM
M  V30 1 C 5.980161 6.727554 -21.484006 0 CFG=2
M  V30 2 C 10.113410 7.585773 -10.560680 0
M  V30 3 C 8.975807 4.738109 -14.173205 0
M  V30 4 C 7.538545 3.059901 -17.135474 0 CFG=1
M  V30 5 C 5.654244 6.033939 -20.151849 0 CFG=2
M  V30 6 N 8.234814 8.323158 -11.891797 0
M  V30 7 N 7.048259 2.819655 -19.435403 0
M  V30 8 C 6.509256 4.075723 -18.992450 0 CFG=1
M  V30 9 S 5.471064 8.536886 -21.553942 0
M  V30 10 C 10.006924 8.664405 -9.492549 0
M  V30 11 S 5.285051 8.796214 -23.642394 0 CHG=-1
M  V30 12 C 8.519041 7.039822 -21.835193 0
M  V30 13 O 8.355387 4.969311 -8.295838 0
M  V30 14 O 4.126635 8.739759 -20.993214 0
M  V30 15 C 4.784432 5.804510 -21.376443 0 CFG=2
M  V30 16 C 7.116039 5.564346 -12.542710 0
M  V30 17 C 7.917906 2.273244 -18.399098 0 CFG=1
M  V30 18 N 9.034798 7.029982 -7.890670 0 CHG=1
M  V30 19 N 9.451962 6.440766 -12.544750 0
M  V30 20 C 10.045840 8.088720 -8.066395 0
M  V30 21 C 8.416968 5.382099 -17.903230 0
M  V30 22 C 7.216844 6.392528 -22.326962 0
M  V30 23 C 5.162041 6.742362 -18.891607 0
M  V30 24 C 8.527840 2.999448 -15.958383 0
M  V30 25 C 8.583046 5.637848 -13.047234 0
M  V30 26 O 4.919606 4.465656 -21.805108 0
M  V30 27 C 9.285797 7.468738 -11.616414 0
M  V30 28 O 6.589894 9.370573 -21.091490 0
M  V30 29 F 9.185479 2.480647 -18.753353 0
M  V30 30 N 6.937188 5.760710 -11.091661 0 CHG=1
M  V30 31 C 9.541850 5.654607 -7.967331 0
M  V30 32 C 7.193571 4.460081 -17.667578 0 CFG=2
M  V30 33 O 6.700712 5.073450 -19.945356 0
M  V30 34 C 8.121101 3.900134 -14.802176 0
M  V30 35 H 10.916184 6.877960 -10.441313 0
M  V30 36 H 10.012454 4.798220 -14.474762 0
M  V30 37 H 6.634819 2.569993 -16.775412 0
M  V30 38 H 8.025245 9.115034 -11.299041 0
M  V30 39 H 7.593750 2.930004 -20.277575 0
M  V30 40 H 5.439055 3.923685 -18.838789 0
M  V30 41 H 9.089185 9.238694 -9.617182 0
M  V30 42 H 10.835354 9.364271 -9.609883 0
M  V30 43 H 9.377042 6.617893 -22.358580 0
M  V30 44 H 8.531052 8.111770 -22.024984 0
M  V30 45 H 8.666048 6.879131 -20.766930 0
M  V30 46 H 8.297811 4.185181 -7.769142 0
M  V30 47 H 3.790905 6.223275 -21.488275 0
M  V30 48 H 6.497569 6.271212 -13.096271 0
M  V30 49 H 6.695259 4.573998 -12.687114 0
M  V30 50 H 7.778551 1.197603 -18.282687 0
M  V30 51 H 8.320945 7.172098 -8.604809 0
M  V30 52 H 9.829324 8.887457 -7.356515 0
M  V30 53 H 11.041215 7.715922 -7.817106 0
M  V30 54 H 9.120558 4.952808 -18.616010 0
M  V30 55 H 8.114578 6.354822 -18.291679 0
M  V30 56 H 8.961326 5.577186 -16.980544 0
M  V30 57 H 7.354802 5.312058 -22.346469 0
M  V30 58 H 7.037546 6.674516 -23.363192 0
M  V30 59 H 4.292639 7.363309 -19.086104 0
M  V30 60 H 4.842815 6.025159 -18.138193 0
M  V30 61 H 5.951716 7.367647 -18.475462 0
M  V30 62 H 9.525898 3.280677 -16.291697 0
M  V30 63 H 8.595101 1.971709 -15.600019 0
M  V30 64 H 5.723385 4.137076 -21.425687 0
M  V30 65 H 5.987063 5.553242 -10.822391 0
M  V30 66 H 7.561224 5.158986 -10.573167 0
M  V30 67 H 9.952419 5.369294 -7.002214 0
M  V30 68 H 10.290924 5.504949 -8.741706 0
M  V30 69 H 6.486135 4.968002 -17.013424 0
M  V30 70 H 7.090044 3.841207 -14.502326 0
M  V30 71 H 7.708419 8.259834 -12.752063 0
M  V30 72 H 8.549538 7.142516 -7.010563 0
M  V30 73 H 7.127012 6.727564 -10.823105 0
M  V30 END ATOM
M  V30 BEGIN BOND
M  V30 1 1 5 1
M  V30 2 1 8 7
M  V30 3 1 9 1
M  V30 4 1 10 2
M  V30 5 1 11 9
M  V30 6 2 14 9
M  V30 7 1 15 1
M  V30 8 1 15 5
M  V30 9 1 17 4
M  V30 10 1 17 7
M  V30 11 1 20 10
M  V30 12 1 20 18
M  V30 13 1 1 22 CFG=3
M  V30 14 1 22 12
M  V30 15 1 23 5
M  V30 16 1 24 4
M  V30 17 1 25 3
M  V30 18 1 25 16
M  V30 19 2 25 19
M  V30 20 1 26 15
M  V30 21 2 27 2
M  V30 22 1 27 6
M  V30 23 1 27 19
M  V30 24 2 28 9
M  V30 25 1 29 17
M  V30 26 1 30 16
M  V30 27 1 31 13
M  V30 28 1 31 18
M  V30 29 1 32 4
M  V30 30 1 32 8
M  V30 31 1 32 21
M  V30 32 1 5 33 CFG=1
M  V30 33 1 33 8
M  V30 34 2 34 3
M  V30 35 1 34 24
M  V30 36 1 35 2
M  V30 37 1 36 3
M  V30 38 1 4 37 CFG=1
M  V30 39 1 38 6
M  V30 40 1 39 7
M  V30 41 1 8 40 CFG=1
M  V30 42 1 41 10
M  V30 43 1 42 10
M  V30 44 1 43 12
M  V30 45 1 44 12
M  V30 46 1 45 12
M  V30 47 1 46 13
M  V30 48 1 15 47 CFG=1
M  V30 49 1 48 16
M  V30 50 1 49 16
M  V30 51 1 17 50 CFG=1
M  V30 52 1 51 18
M  V30 53 1 52 20
M  V30 54 1 53 20
M  V30 55 1 54 21
M  V30 56 1 55 21
M  V30 57 1 56 21
M  V30 58 1 57 22
M  V30 59 1 58 22
M  V30 60 1 59 23
M  V30 61 1 60 23
M  V30 62 1 61 23
M  V30 63 1 62 24
M  V30 64 1 63 24
M  V30 65 1 64 26
M  V30 66 1 65 30
M  V30 67 1 66 30
M  V30 68 1 67 31
M  V30 69 1 68 31
M  V30 70 1 32 69 CFG=1
M  V30 71 1 70 34
M  V30 72 1 71 6
M  V30 73 1 72 18
M  V30 74 1 73 30
M  V30 END BOND
M  V30 END CTAB
M  END
>  <i_epik_Tot_Q>  (1) 
1

>  <i_epik_Tot_abs_Q>  (1) 
3

>  <i_i_glide_confnum>  (1) 
3361

>  <i_i_glide_lignum>  (1) 
32

>  <i_i_glide_posenum>  (1) 
397

>  <i_i_glide_rotatable_bonds>  (1) 
15

>  <i_lp_mmshare_version>  (1) 
72125

>  <i_m_source_file_index>  (1) 
11

>  <i_f3d_flags>  (1) 
0

>  <num_sample>  (1) 
50

>  <b_lp_Chiralities_Consistent>  (1) 
1

>  <r_epik_Charging_Adjusted_Penalty>  (1) 
2.168687317063887

>  <r_epik_Ionization_Penalty>  (1) 
1.1047352072338965

>  <r_epik_Ionization_Penalty_Charging>  (1) 
1.0999234457570315

>  <r_epik_Ionization_Penalty_Neutral>  (1) 
0.0048117614768649203

>  <r_epik_State_Penalty>  (1) 
1.0687638713068555

>  <r_glide_ring_energy>  (1) 
0

>  <r_i_docking_score>  (1) 
-4.2948929297636571

>  <r_i_glide_ecoul>  (1) 
-9.7985818474376689

>  <r_i_glide_eff_state_penalty>  (1) 
1.0687638713068555

>  <r_i_glide_einternal>  (1) 
7.9871037309642006

>  <r_i_glide_emodel>  (1) 
-51.930434437468989

>  <r_i_glide_emodel_strain>  (1) 
3.6816607718478593

>  <r_i_glide_energy>  (1) 
-40.26388241333504

>  <r_i_glide_erotb>  (1) 
0.57553451871204087

>  <r_i_glide_esite>  (1) 
-0.31706770538714779

>  <r_i_glide_evdw>  (1) 
-30.465300565897369

>  <r_i_glide_gscore>  (1) 
-5.3636568010705128

>  <r_i_glide_gscore_strain>  (1) 
0

>  <r_i_glide_hbond>  (1) 
-0.37075918021616389

>  <r_i_glide_ligand_efficiency>  (1) 
-0.12632038028716638

>  <r_i_glide_ligand_efficiency_ln>  (1) 
-0.94886231585095993

>  <r_i_glide_ligand_efficiency_sa>  (1) 
-0.40922899472016383

>  <r_i_glide_lipo>  (1) 
-0.91816971131314851

>  <r_i_glide_metal>  (1) 
-0

>  <r_i_glide_rewards>  (1) 
-1.3401424174555736

>  <r_lp_Energy>  (1) 
27.209377

>  <s_epik_Chemistry_Notes>  (1) 
This compound has an imine and may undergo hydrolysis. This compound contains an acetal/aminal-like group ( X-CH(R)-Y where X, Y are N, S, or O) that may be acid/base labile, releasing an aldehyde.

>  <s_epik_cmdline>  (1) 
J2VwaWtfcHl0aG9uJywgJy1waHQnLCAnMS4wJywgJy1waCcsICc3LjQnLCAnLXRuJywgJzgnLCAnLW1hJywgJzUwMCcsICctaW1hZScsICc8aW5maWxlLm1hZT4nLCAnLW9tYWUnLCAnPG91dGZpbGUubWFlPic=

>  <s_epik_input>  (1) 
W1NIXVMoPU8pKD1PKVtDQEBdMShbQ0gyXVtDSDNdKVtDQEBdKFtDSDNdKShbQ0BASF0xW09IXSlPW0NASF0oW0NAQEhdMltDSDNdKVtOSF1bQ0BASF0oRilbQ0BIXTJbQ0gyXVxbQ0hdPVtDSF1cQyhbQ0gyXVtOSDJdKT1OXEMoPU5cW0hdKVxbQ0gyXVtDSDJdW0NIMl1bTkhdW0NIMl1bT0hd

>  <s_glide_docking_method>  (1) 
confgen

>  <s_i_glide_gridfile>  (1) 
gpcr_drd2_6luq_protein_autoprepared_prepared

>  <s_lp_Force_Field>  (1) 
S-OPLS

>  <s_lp_Variant>  (1) 
DiffSBDD_10_num_sample_50-12

>  <s_m_source_file>  (1) 
generated__ligand_DiffSBDD_2026-05-06_prepared.sdf

>  <GenAI_Model>  (1) 
DiffSBDD

>  <Protein>  (1) 
generic_title2

$$$$
DiffSBDD_44_num_sample_50
     RDKit          3D

  0  0  0  0  0  0  0  0  0  0999 V3000
M  V30 BEGIN CTAB
M  V30 COUNTS 61 64 0 0 1
M  V30 BEGIN ATOM
M  V30 1 C 9.498436 -0.125275 -19.593517 0
M  V30 2 C 6.587884 5.537872 -12.700505 0 CFG=1
M  V30 3 C 8.308049 7.245185 -11.946898 0
M  V30 4 C 8.425991 1.312255 -17.795361 0 CFG=1
M  V30 5 C 10.843327 0.170049 -18.918471 0
M  V30 6 C 9.369803 4.993447 -10.159844 0
M  V30 7 C 8.330735 -0.017491 -18.595817 0 CFG=2
M  V30 8 O 9.034952 -1.430704 -16.691620 0
M  V30 9 N 7.440685 2.588622 -15.801160 0
M  V30 10 C 10.819182 1.499399 -18.143982 0 CFG=2
M  V30 11 C 5.803295 6.706401 -13.360704 0
M  V30 12 O 10.679510 6.969308 -11.369961 0
M  V30 13 C 7.348167 1.431625 -16.692380 0
M  V30 14 C 7.413755 4.966265 -15.155475 0 CFG=2
M  V30 15 O 7.434841 4.159406 -17.430592 0
M  V30 16 C 8.631734 4.840820 -11.263727 0
M  V30 17 C 9.454368 7.778171 -11.426975 0
M  V30 18 C 8.117274 -1.302882 -17.756079 0
M  V30 19 C 10.039378 7.352089 -10.341494 0
M  V30 20 O 9.723841 1.488457 -17.223446 0
M  V30 21 C 9.554790 6.277786 -9.433614 0
M  V30 22 C 10.801817 2.750001 -19.043400 0
M  V30 23 F 11.978142 1.566863 -17.491684 0
M  V30 24 C 7.438186 3.860262 -16.236241 0
M  V30 25 C 6.814803 4.462265 -13.808069 0
M  V30 26 C 6.580705 6.152284 -15.692967 0
M  V30 27 C 7.897006 5.920825 -11.954542 0
M  V30 28 C 6.420458 7.261816 -14.660308 0
M  V30 29 C 5.645108 4.923393 -11.634507 0
M  V30 30 H 9.517738 -1.108096 -20.064696 0
M  V30 31 H 9.342529 0.588690 -20.402780 0
M  V30 32 H 7.679037 7.947649 -12.452763 0
M  V30 33 H 8.256801 2.113945 -18.510505 0
M  V30 34 H 11.077841 -0.630646 -18.218377 0
M  V30 35 H 11.644455 0.173072 -19.658221 0
M  V30 36 H 9.834847 4.127363 -9.719310 0
M  V30 37 H 7.429897 0.056719 -19.207136 0
M  V30 38 H 8.695158 -2.085956 -16.087635 0
M  V30 39 H 7.452693 2.413361 -14.807846 0
M  V30 40 H 5.589275 7.503375 -12.646588 0
M  V30 41 H 4.830987 6.307300 -13.633512 0
M  V30 42 H 6.354840 1.414668 -17.143830 0
M  V30 43 H 7.394362 0.570818 -16.028031 0
M  V30 44 H 8.440280 5.295054 -14.987952 0
M  V30 45 H 8.526851 3.838393 -11.644697 0
M  V30 46 H 8.181476 -2.190696 -18.386303 0
M  V30 47 H 7.110951 -1.311804 -17.335055 0
M  V30 48 H 10.303121 6.133636 -8.654216 0
M  V30 49 H 8.634823 6.569161 -8.931843 0
M  V30 50 H 9.961182 2.766273 -19.734917 0
M  V30 51 H 10.750599 3.656305 -18.439165 0
M  V30 52 H 11.709349 2.806193 -19.644583 0
M  V30 53 H 5.845131 4.015314 -14.036109 0
M  V30 54 H 7.411572 3.640357 -13.418336 0
M  V30 55 H 7.035014 6.569345 -16.592222 0
M  V30 56 H 5.590526 5.802817 -15.991326 0
M  V30 57 H 7.389325 7.730386 -14.499916 0
M  V30 58 H 5.774395 8.040206 -15.068845 0
M  V30 59 H 4.708666 4.568743 -12.065791 0
M  V30 60 H 6.088162 4.061248 -11.135714 0
M  V30 61 H 5.399651 5.651343 -10.859012 0
M  V30 END ATOM
M  V30 BEGIN BOND
M  V30 1 1 5 1
M  V30 2 1 7 1
M  V30 3 1 7 4
M  V30 4 1 10 5
M  V30 5 1 11 2
M  V30 6 1 13 4
M  V30 7 1 13 9
M  V30 8 2 16 6
M  V30 9 1 17 3
M  V30 10 1 17 12
M  V30 11 1 18 7
M  V30 12 1 18 8
M  V30 13 1 19 12
M  V30 14 2 19 17
M  V30 15 1 20 4
M  V30 16 1 20 10
M  V30 17 1 21 6
M  V30 18 1 21 19
M  V30 19 1 22 10
M  V30 20 1 10 23 CFG=1
M  V30 21 1 24 9
M  V30 22 1 24 14
M  V30 23 2 24 15
M  V30 24 1 25 2
M  V30 25 1 25 14
M  V30 26 1 26 14
M  V30 27 1 27 2
M  V30 28 2 27 3
M  V30 29 1 27 16
M  V30 30 1 28 11
M  V30 31 1 28 26
M  V30 32 1 2 29 CFG=1
M  V30 33 1 30 1
M  V30 34 1 31 1
M  V30 35 1 32 3
M  V30 36 1 4 33 CFG=3
M  V30 37 1 34 5
M  V30 38 1 35 5
M  V30 39 1 36 6
M  V30 40 1 7 37 CFG=3
M  V30 41 1 38 8
M  V30 42 1 39 9
M  V30 43 1 40 11
M  V30 44 1 41 11
M  V30 45 1 42 13
M  V30 46 1 43 13
M  V30 47 1 14 44 CFG=1
M  V30 48 1 45 16
M  V30 49 1 46 18
M  V30 50 1 47 18
M  V30 51 1 48 21
M  V30 52 1 49 21
M  V30 53 1 50 22
M  V30 54 1 51 22
M  V30 55 1 52 22
M  V30 56 1 53 25
M  V30 57 1 54 25
M  V30 58 1 55 26
M  V30 59 1 56 26
M  V30 60 1 57 28
M  V30 61 1 58 28
M  V30 62 1 59 29
M  V30 63 1 60 29
M  V30 64 1 61 29
M  V30 END BOND
M  V30 END CTAB
M  END
>  <i_epik_Tot_Q>  (1) 
0

>  <i_epik_Tot_abs_Q>  (1) 
0

>  <i_i_glide_confnum>  (1) 
164

>  <i_i_glide_lignum>  (1) 
111

>  <i_i_glide_posenum>  (1) 
92

>  <i_i_glide_rotatable_bonds>  (1) 
7

>  <i_lp_mmshare_version>  (1) 
72125

>  <i_m_source_file_index>  (1) 
45

>  <i_f3d_flags>  (1) 
0

>  <num_sample>  (1) 
50

>  <b_lp_Chiralities_Consistent>  (1) 
1

>  <r_epik_Charging_Adjusted_Penalty>  (1) 
0

>  <r_epik_Ionization_Penalty>  (1) 
7.6933096193548639e-08

>  <r_epik_Ionization_Penalty_Charging>  (1) 
0

>  <r_epik_Ionization_Penalty_Neutral>  (1) 
7.6933096193548639e-08

>  <r_epik_State_Penalty>  (1) 
-0

>  <r_glide_ring_energy>  (1) 
0

>  <r_i_docking_score>  (1) 
-4.2914654034223183

>  <r_i_glide_ecoul>  (1) 
-4.7395356368289052

>  <r_i_glide_eff_state_penalty>  (1) 
-0

>  <r_i_glide_einternal>  (1) 
10.807922315790382

>  <r_i_glide_emodel>  (1) 
-29.062538429958487

>  <r_i_glide_emodel_strain>  (1) 
3.9564324864157356

>  <r_i_glide_energy>  (1) 
-32.179006355443924

>  <r_i_glide_erotb>  (1) 
0.71709703680073922

>  <r_i_glide_esite>  (1) 
0

>  <r_i_glide_evdw>  (1) 
-27.43947071861502

>  <r_i_glide_gscore>  (1) 
-4.2914654034223183

>  <r_i_glide_gscore_strain>  (1) 
0

>  <r_i_glide_hbond>  (1) 
-0.32000000000000001

>  <r_i_glide_ligand_efficiency>  (1) 
-0.14798156563525236

>  <r_i_glide_ligand_efficiency_ln>  (1) 
-0.98263675521051408

>  <r_i_glide_ligand_efficiency_sa>  (1) 
-0.45464625399252045

>  <r_i_glide_lipo>  (1) 
-1.2240599994577754

>  <r_i_glide_metal>  (1) 
-0

>  <r_i_glide_rewards>  (1) 
-1.3815985593101956

>  <r_lp_Energy>  (1) 
41.791146999999995

>  <r_lp_tautomer_probability>  (1) 
1

>  <s_epik_cmdline>  (1) 
J2VwaWtfcHl0aG9uJywgJy1waHQnLCAnMS4wJywgJy1waCcsICc3LjQnLCAnLXRuJywgJzgnLCAnLW1hJywgJzUwMCcsICctaW1hZScsICc8aW5maWxlLm1hZT4nLCAnLW9tYWUnLCAnPG91dGZpbGUubWFlPic=

>  <s_epik_input>  (1) 
W0NIM11bQ0BdMShGKVtDSDJdW0NIMl1bQ0BIXShbQ0gyXVtPSF0pW0NASF0oTzEpW0NIMl1bTkhdQyg9TylbQ0BIXShbQ0gyXTIpW0NIMl1bQ0gyXVtDSDJdW0NAXTIoW0NIM10pQyg9W0NIXTMpW0NIXT1bQ0hdW0NIMl1DKE80KT1DMzQ=

>  <s_glide_docking_method>  (1) 
confgen

>  <s_i_glide_gridfile>  (1) 
gpcr_drd2_6luq_protein_autoprepared_prepared

>  <s_lp_Force_Field>  (1) 
S-OPLS

>  <s_lp_Variant>  (1) 
DiffSBDD_44_num_sample_50-2

>  <s_m_source_file>  (1) 
generated__ligand_DiffSBDD_2026-05-06_prepared.sdf

>  <GenAI_Model>  (1) 
DiffSBDD

>  <Protein>  (1) 
generic_title2

$$$$
DiffSBDD_4_num_sample_50
     RDKit          3D

  0  0  0  0  0  0  0  0  0  0999 V3000
M  V30 BEGIN CTAB
M  V30 COUNTS 43 44 0 0 1
M  V30 BEGIN ATOM
M  V30 1 C 5.034840 7.679200 -19.607679 0
M  V30 2 C 6.017722 7.405853 -14.907130 0
M  V30 3 C 7.908295 4.811914 -12.941035 0
M  V30 4 C 11.381004 3.758468 -17.116478 0
M  V30 5 C 5.679692 6.622004 -16.194091 0
M  V30 6 O 4.634837 7.941997 -20.739340 0
M  V30 7 N 6.754296 5.682773 -16.554474 0
M  V30 8 O 9.444588 5.258577 -19.035788 0
M  V30 9 C 7.555311 5.554902 -14.228386 0 CFG=2
M  V30 10 C 6.399268 6.440702 -13.781487 0 CFG=1
M  V30 11 C 5.227283 6.230004 -19.165358 0
M  V30 12 C 7.125843 4.754171 -15.463281 0
M  V30 13 O 7.161278 5.369301 -10.691666 0
M  V30 14 C 8.849785 5.369301 -17.961565 0
M  V30 15 O 9.455822 5.257817 -16.765050 0
M  V30 16 C 6.895994 7.023561 -12.459357 0
M  V30 17 C 7.764230 5.899306 -11.851454 0 CFG=2
M  V30 18 C 7.369403 5.671699 -17.848180 0
M  V30 19 C 6.712287 5.925563 -19.018214 0
M  V30 20 C 10.869344 5.133010 -16.657606 0
M  V30 21 H 5.272745 8.437108 -18.862397 0
M  V30 22 H 6.843574 8.092301 -15.099738 0
M  V30 23 H 5.162376 8.015660 -14.615685 0
M  V30 24 H 8.907538 4.375627 -12.967579 0
M  V30 25 H 7.196406 4.001464 -12.774700 0
M  V30 26 H 12.417966 3.610540 -16.814685 0
M  V30 27 H 11.338938 3.656256 -18.200421 0
M  V30 28 H 10.786041 2.952448 -16.691668 0
M  V30 29 H 4.737370 6.086139 -16.077890 0
M  V30 30 H 5.541993 7.392360 -16.943375 0
M  V30 31 H 8.413006 6.169304 -14.498084 0
M  V30 32 H 5.533429 5.812144 -13.561162 0
M  V30 33 H 4.634839 5.998439 -18.286480 0
M  V30 34 H 4.838262 5.580638 -19.949938 0
M  V30 35 H 6.234840 4.186708 -15.198547 0
M  V30 36 H 7.834329 3.973525 -15.732508 0
M  V30 37 H 7.034842 6.089624 -10.077042 0
M  V30 38 H 7.516766 7.900868 -12.645234 0
M  V30 39 H 6.075436 7.338036 -11.812515 0
M  V30 40 H 8.742587 6.301408 -11.584000 0
M  V30 41 H 7.270254 5.907646 -19.944390 0
M  V30 42 H 11.127780 5.277672 -15.608449 0
M  V30 43 H 11.362288 5.933358 -17.211169 0
M  V30 END ATOM
M  V30 BEGIN BOND
M  V30 1 1 5 2
M  V30 2 2 6 1
M  V30 3 1 7 5
M  V30 4 1 9 3
M  V30 5 1 10 2
M  V30 6 1 10 9
M  V30 7 1 11 1
M  V30 8 1 12 7
M  V30 9 1 12 9
M  V30 10 2 14 8
M  V30 11 1 15 14
M  V30 12 1 16 10
M  V30 13 1 17 3
M  V30 14 1 17 13
M  V30 15 1 17 16
M  V30 16 1 18 7
M  V30 17 1 18 14
M  V30 18 1 19 11
M  V30 19 2 19 18
M  V30 20 1 20 4
M  V30 21 1 20 15
M  V30 22 1 21 1
M  V30 23 1 22 2
M  V30 24 1 23 2
M  V30 25 1 24 3
M  V30 26 1 25 3
M  V30 27 1 26 4
M  V30 28 1 27 4
M  V30 29 1 28 4
M  V30 30 1 29 5
M  V30 31 1 30 5
M  V30 32 1 9 31 CFG=3
M  V30 33 1 10 32 CFG=1
M  V30 34 1 33 11
M  V30 35 1 34 11
M  V30 36 1 35 12
M  V30 37 1 36 12
M  V30 38 1 37 13
M  V30 39 1 38 16
M  V30 40 1 39 16
M  V30 41 1 17 40 CFG=1
M  V30 42 1 41 19
M  V30 43 1 42 20
M  V30 44 1 43 20
M  V30 END BOND
M  V30 END CTAB
M  END
>  <i_epik_Tot_Q>  (1) 
0

>  <i_epik_Tot_abs_Q>  (1) 
0

>  <i_i_glide_confnum>  (1) 
11

>  <i_i_glide_lignum>  (1) 
12

>  <i_i_glide_posenum>  (1) 
112

>  <i_i_glide_rotatable_bonds>  (1) 
7

>  <i_lp_mmshare_version>  (1) 
72125

>  <i_m_source_file_index>  (1) 
5

>  <i_f3d_flags>  (1) 
0

>  <num_sample>  (1) 
50

>  <b_lp_Chiralities_Consistent>  (1) 
1

>  <r_epik_Charging_Adjusted_Penalty>  (1) 
0.41067984158451698

>  <r_epik_Ionization_Penalty>  (1) 
6.7674502354530413e-05

>  <r_epik_Ionization_Penalty_Charging>  (1) 
2.6319130011581777e-09

>  <r_epik_Ionization_Penalty_Neutral>  (1) 
6.7671870441529249e-05

>  <r_epik_State_Penalty>  (1) 
0.41067983895260396

>  <r_glide_ring_energy>  (1) 
0

>  <r_i_docking_score>  (1) 
-4.2859333250847138

>  <r_i_glide_ecoul>  (1) 
-3.5914751106266403

>  <r_i_glide_eff_state_penalty>  (1) 
0.41067983895260396

>  <r_i_glide_einternal>  (1) 
4.1159148754160526

>  <r_i_glide_emodel>  (1) 
-30.630302399245949

>  <r_i_glide_emodel_strain>  (1) 
0.0064880216325775564

>  <r_i_glide_energy>  (1) 
-25.173198951816723

>  <r_i_glide_erotb>  (1) 
0.91336080097250838

>  <r_i_glide_esite>  (1) 
0

>  <r_i_glide_evdw>  (1) 
-21.581723841190083

>  <r_i_glide_gscore>  (1) 
-4.6966131640373181

>  <r_i_glide_gscore_strain>  (1) 
0

>  <r_i_glide_hbond>  (1) 
-0.16

>  <r_i_glide_ligand_efficiency>  (1) 
-0.21429666625423568

>  <r_i_glide_ligand_efficiency_ln>  (1) 
-1.0726277517268705

>  <r_i_glide_ligand_efficiency_sa>  (1) 
-0.58169064605805665

>  <r_i_glide_lipo>  (1) 
-1.4234688224891145

>  <r_i_glide_metal>  (1) 
-0

>  <r_i_glide_rewards>  (1) 
-2.4086976838672105

>  <r_lp_Energy>  (1) 
25.184904

>  <r_lp_tautomer_probability>  (1) 
0.5

>  <s_epik_Chemistry_Notes>  (1) 
This compound has an ester and may undergo hydrolysis at high or low pH. This compound has an imine and may undergo hydrolysis.

>  <s_epik_cmdline>  (1) 
J2VwaWtfcHl0aG9uJywgJy1waHQnLCAnMS4wJywgJy1waCcsICc3LjQnLCAnLXRuJywgJzgnLCAnLW1hJywgJzUwMCcsICctaW1hZScsICc8aW5maWxlLm1hZT4nLCAnLW9tYWUnLCAnPG91dGZpbGUubWFlPic=

>  <s_epik_input>  (1) 
W0NIM11bQ0gyXU9DKD1PKUMoPVtDSF1cW0NIMl1bQ0hdPU8pXE4oW0NIMl0xKVtDSDJdW0NIMl1bQ0BASF0oW0NASF0xMilbQ0gyXVtDQEhdKFtDSDJdMilbT0hd

>  <s_glide_docking_method>  (1) 
confgen

>  <s_i_glide_gridfile>  (1) 
gpcr_drd2_6luq_protein_autoprepared_prepared

>  <s_lp_Force_Field>  (1) 
S-OPLS

>  <s_lp_Variant>  (1) 
DiffSBDD_4_num_sample_50-1

>  <s_m_source_file>  (1) 
generated__ligand_DiffSBDD_2026-05-06_prepared.sdf

>  <GenAI_Model>  (1) 
DiffSBDD

>  <Protein>  (1) 
generic_title2

$$$$
DiffSBDD_25_num_sample_50
     RDKit          3D

  0  0  0  0  0  0  0  0  0  0999 V3000
M  V30 BEGIN CTAB
M  V30 COUNTS 70 75 0 0 1
M  V30 BEGIN ATOM
M  V30 1 C 8.222638 3.678869 -19.539548 0 CFG=2
M  V30 2 C 9.106583 5.856172 -7.610755 0
M  V30 3 C 6.375115 3.805388 -12.340576 0
M  V30 4 C 10.895060 7.347024 -8.320065 0
M  V30 5 S 8.820643 6.164494 -19.405177 0
M  V30 6 C 8.735310 5.649183 -8.951341 0
M  V30 7 C 8.996381 6.098417 -11.447293 0 CFG=2
M  V30 8 C 10.182891 6.704614 -7.296676 0
M  V30 9 C 9.724289 4.953830 -12.236008 0
M  V30 10 C 6.346567 2.294427 -19.808972 0 CFG=2
M  V30 11 C 9.334791 4.491936 -18.906559 0
M  V30 12 C 6.452814 -0.175697 -17.554811 0
M  V30 13 C 6.822006 0.550811 -14.418859 0
M  V30 14 C 6.284177 1.933635 -13.999818 0
M  V30 15 N 7.248187 0.825322 -16.918769 0
M  V30 16 F 6.544372 1.736435 -21.006579 0
M  V30 17 O 6.187098 -1.281128 -17.092021 0
M  V30 18 C 10.531981 7.147773 -9.677284 0
M  V30 19 N 7.012460 2.560871 -12.870881 0 CFG=1 CHG=1
M  V30 20 C 9.435354 6.299033 -9.991525 0
M  V30 21 C 7.025584 4.587970 -19.402324 0 CFG=1
M  V30 22 O 7.470750 5.813537 -19.958813 0
M  V30 23 C 5.352461 1.437084 -19.043887 0
M  V30 24 C 12.481035 8.391998 -10.367832 0
M  V30 25 O 11.235984 7.769127 -10.691667 0
M  V30 26 Cl 10.633580 6.958818 -5.651039 0
M  V30 27 C 5.881277 3.775889 -20.011763 0 CFG=1
M  V30 28 N 8.636578 4.016016 -12.232460 0
M  V30 29 C 7.830509 0.553117 -15.590038 0
M  V30 30 C 7.709842 2.308194 -19.071625 0 CFG=2
M  V30 31 C 5.555609 4.161903 -21.466288 0
M  V30 32 C 7.556080 2.153954 -17.531175 0
M  V30 33 C 8.460234 2.867348 -13.091335 0
M  V30 34 C 7.512702 4.795068 -12.454474 0 CFG=2
M  V30 35 O 6.029897 0.228688 -18.774812 0
M  V30 36 O 7.583172 5.780650 -11.509783 0
M  V30 37 H 8.466026 3.590792 -20.601289 0
M  V30 38 H 8.558381 5.369439 -6.822156 0
M  V30 39 H 6.097721 3.676199 -11.292874 0
M  V30 40 H 5.511643 4.150205 -12.910550 0
M  V30 41 H 11.718151 7.993458 -8.062510 0
M  V30 42 H 7.900426 5.004722 -9.182211 0
M  V30 43 H 9.145206 7.037475 -11.981690 0
M  V30 44 H 9.945697 5.256940 -13.260680 0
M  V30 45 H 10.632071 4.568637 -11.783091 0
M  V30 46 H 10.321828 4.235491 -19.292372 0
M  V30 47 H 9.345284 4.433038 -17.818791 0
M  V30 48 H 7.271789 0.057912 -13.556024 0
M  V30 49 H 5.975577 -0.083812 -14.686731 0
M  V30 50 H 5.264285 1.776008 -13.646396 0
M  V30 51 H 6.234881 2.620265 -14.843770 0
M  V30 52 H 6.794331 4.764534 -18.349218 0
M  V30 53 H 4.462147 1.242719 -19.642612 0
M  V30 54 H 5.034721 1.921753 -18.124371 0
M  V30 55 H 13.065247 8.569307 -11.270080 0
M  V30 56 H 12.317094 9.354410 -9.880070 0
M  V30 57 H 13.110675 7.768858 -9.732798 0
M  V30 58 H 4.986001 3.969694 -19.424468 0
M  V30 59 H 8.639235 1.242525 -15.368140 0
M  V30 60 H 8.303197 -0.430295 -15.631480 0
M  V30 61 H 8.368501 1.519005 -19.437836 0
M  V30 62 H 6.417959 4.037352 -22.121759 0
M  V30 63 H 4.740602 3.553567 -21.860589 0
M  V30 64 H 5.245296 5.205155 -21.528004 0
M  V30 65 H 6.831079 2.868136 -17.145610 0
M  V30 66 H 8.507137 2.472196 -17.108616 0
M  V30 67 H 8.633977 3.155145 -14.128532 0
M  V30 68 H 9.110474 2.036910 -12.815512 0
M  V30 69 H 7.544845 5.249162 -13.449083 0
M  V30 70 H 6.988557 1.897694 -12.109560 0
M  V30 END ATOM
M  V30 BEGIN BOND
M  V30 1 2 6 2
M  V30 2 1 8 2
M  V30 3 2 8 4
M  V30 4 1 9 7
M  V30 5 1 11 1
M  V30 6 1 11 5
M  V30 7 1 14 13
M  V30 8 1 15 12
M  V30 9 1 10 16 CFG=3
M  V30 10 2 17 12
M  V30 11 1 18 4
M  V30 12 1 19 3
M  V30 13 1 19 14
M  V30 14 1 20 6
M  V30 15 1 20 7
M  V30 16 2 20 18
M  V30 17 1 21 1
M  V30 18 1 22 5
M  V30 19 1 22 21
M  V30 20 1 23 10
M  V30 21 1 25 18
M  V30 22 1 25 24
M  V30 23 1 26 8
M  V30 24 1 27 10
M  V30 25 1 27 21
M  V30 26 1 28 9
M  V30 27 1 29 13
M  V30 28 1 29 15
M  V30 29 1 30 1
M  V30 30 1 30 10
M  V30 31 1 31 27
M  V30 32 1 32 15
M  V30 33 1 32 30
M  V30 34 1 33 19
M  V30 35 1 33 28
M  V30 36 1 34 3
M  V30 37 1 34 28
M  V30 38 1 35 12
M  V30 39 1 35 23
M  V30 40 1 36 7
M  V30 41 1 36 34
M  V30 42 1 1 37 CFG=3
M  V30 43 1 38 2
M  V30 44 1 39 3
M  V30 45 1 40 3
M  V30 46 1 41 4
M  V30 47 1 42 6
M  V30 48 1 7 43 CFG=3
M  V30 49 1 44 9
M  V30 50 1 45 9
M  V30 51 1 46 11
M  V30 52 1 47 11
M  V30 53 1 48 13
M  V30 54 1 49 13
M  V30 55 1 50 14
M  V30 56 1 51 14
M  V30 57 1 21 52 CFG=1
M  V30 58 1 53 23
M  V30 59 1 54 23
M  V30 60 1 55 24
M  V30 61 1 56 24
M  V30 62 1 57 24
M  V30 63 1 27 58 CFG=1
M  V30 64 1 59 29
M  V30 65 1 60 29
M  V30 66 1 30 61 CFG=3
M  V30 67 1 62 31
M  V30 68 1 63 31
M  V30 69 1 64 31
M  V30 70 1 65 32
M  V30 71 1 66 32
M  V30 72 1 67 33
M  V30 73 1 68 33
M  V30 74 1 34 69 CFG=3
M  V30 75 1 19 70 CFG=1
M  V30 END BOND
M  V30 END CTAB
M  END
>  <i_epik_Tot_Q>  (1) 
1

>  <i_epik_Tot_abs_Q>  (1) 
1

>  <i_i_glide_confnum>  (1) 
33

>  <i_i_glide_lignum>  (1) 
67

>  <i_i_glide_posenum>  (1) 
67

>  <i_i_glide_rotatable_bonds>  (1) 
6

>  <i_lp_mmshare_version>  (1) 
72125

>  <i_m_source_file_index>  (1) 
26

>  <i_f3d_flags>  (1) 
0

>  <num_sample>  (1) 
50

>  <b_lp_Chiralities_Consistent>  (1) 
1

>  <r_epik_Charging_Adjusted_Penalty>  (1) 
0.023952579331408368

>  <r_epik_Ionization_Penalty>  (1) 
0.024408664809918493

>  <r_epik_Ionization_Penalty_Charging>  (1) 
0.023952579331408368

>  <r_epik_Ionization_Penalty_Neutral>  (1) 
0.00045608547851012601

>  <r_epik_State_Penalty>  (1) 
-0

>  <r_glide_ring_energy>  (1) 
0

>  <r_i_docking_score>  (1) 
-4.284998222695056

>  <r_i_glide_ecoul>  (1) 
-0.10570112075059535

>  <r_i_glide_eff_state_penalty>  (1) 
-0

>  <r_i_glide_einternal>  (1) 
6.5170801246669772

>  <r_i_glide_emodel>  (1) 
-43.898565364983703

>  <r_i_glide_emodel_strain>  (1) 
0.024049987964303909

>  <r_i_glide_energy>  (1) 
-37.994342979054828

>  <r_i_glide_erotb>  (1) 
0.35075509399968952

>  <r_i_glide_esite>  (1) 
0

>  <r_i_glide_evdw>  (1) 
-37.888641858304233

>  <r_i_glide_gscore>  (1) 
-4.284998222695056

>  <r_i_glide_gscore_strain>  (1) 
0

>  <r_i_glide_hbond>  (1) 
0

>  <r_i_glide_ligand_efficiency>  (1) 
-0.119027728408196

>  <r_i_glide_ligand_efficiency_ln>  (1) 
-0.93487084491864103

>  <r_i_glide_ligand_efficiency_sa>  (1) 
-0.3930208998050515

>  <r_i_glide_lipo>  (1) 
-1.7245887874565098

>  <r_i_glide_metal>  (1) 
-0

>  <r_i_glide_rewards>  (1) 
-1.0008772682104343

>  <r_lp_Energy>  (1) 
70.690685999999999

>  <r_lp_tautomer_probability>  (1) 
1

>  <s_epik_Chemistry_Notes>  (1) 
This compound has an ester and may undergo hydrolysis at high or low pH. This compound contains an acetal/aminal-like group ( X-CH(R)-Y where X, Y are N, S, or O) that may be acid/base labile, releasing an aldehyde.

>  <s_epik_cmdline>  (1) 
J2VwaWtfcHl0aG9uJywgJy1waHQnLCAnMS4wJywgJy1waCcsICc3LjQnLCAnLXRuJywgJzgnLCAnLW1hJywgJzUwMCcsICctaW1hZScsICc8aW5maWxlLm1hZT4nLCAnLW9tYWUnLCAnPG91dGZpbGUubWFlPic=

>  <s_epik_input>  (1) 
W0NIMl0xU09bQ0BASF0oW0NASF0yW0NIM10pW0NAQEhdMVtDQEhdKFtDQF0yM0YpW0NIMl1OKEMoPU8pT1tDSDJdMylbQ0gyXVtDSDJdW0NIMl1OKFtDSDJdNClbQ0gyXVtDQEhdKE40NSlPW0NASF0oW0NIMl01KWMoW2NIXVtjSF1jNkNsKWMoW2NIXTYpT1tDSDNd

>  <s_glide_docking_method>  (1) 
confgen

>  <s_i_glide_gridfile>  (1) 
gpcr_drd2_6luq_protein_autoprepared_prepared

>  <s_lp_Force_Field>  (1) 
S-OPLS

>  <s_lp_Variant>  (1) 
DiffSBDD_25_num_sample_50-1

>  <s_m_source_file>  (1) 
generated__ligand_DiffSBDD_2026-05-06_prepared.sdf

>  <GenAI_Model>  (1) 
DiffSBDD

>  <Protein>  (1) 
generic_title2

$$$$
DiffSBDD_29_num_sample_50
     RDKit          3D

  0  0  0  0  0  0  0  0  0  0999 V3000
M  V30 BEGIN CTAB
M  V30 COUNTS 63 66 0 0 1
M  V30 BEGIN ATOM
M  V30 1 C 15.221636 7.645933 -18.281008 0
M  V30 2 O 8.721779 5.369301 -15.575197 0
M  V30 3 C 6.752243 5.920825 -12.675451 0
M  V30 4 C 13.872887 8.305428 -18.214569 0
M  V30 5 O 6.325946 6.930733 -16.349960 0
M  V30 6 N 11.812996 5.014495 -17.626505 0
M  V30 7 C 6.692367 6.800105 -13.935876 0
M  V30 8 C 8.000479 3.734348 -13.347009 0
M  V30 9 C 7.605729 2.385615 -15.453911 0
M  V30 10 C 17.473779 7.322894 -19.029656 0
M  V30 11 C 12.175930 6.324460 -18.183591 0
M  V30 12 C 13.036806 4.251170 -17.366314 0
M  V30 13 C 5.152502 7.718918 -16.503993 0
M  V30 14 C 7.367986 4.917354 -15.605470 0 CFG=1
M  V30 15 C 15.355304 6.569301 -17.491667 0
M  V30 16 C 13.970674 4.931994 -16.354004 0
M  V30 17 C 13.140951 7.169909 -17.303000 0 CFG=1
M  V30 18 C 7.236770 3.671253 -14.693328 0 CFG=2
M  V30 19 C 16.284398 8.070172 -19.086203 0
M  V30 20 C 9.441197 5.272113 -16.798803 0
M  V30 21 N 16.466227 5.792637 -17.396218 0
M  V30 22 C 6.367862 6.040857 -15.237586 0 CFG=2
M  V30 23 C 8.032775 5.078585 -12.596718 0
M  V30 24 N 14.234836 6.312920 -16.748320 0
M  V30 25 C 17.517391 6.192970 -18.171299 0
M  V30 26 N 16.084766 10.169301 -20.629090 0
M  V30 27 C 10.928328 5.093773 -16.460650 0
M  V30 28 C 16.171013 9.239640 -19.946416 0
M  V30 29 C 4.042262 6.952528 -17.233239 0
M  V30 30 H 5.862806 5.296540 -12.583390 0
M  V30 31 H 6.737476 6.584596 -11.809011 0
M  V30 32 H 13.952524 9.257472 -17.689618 0
M  V30 33 H 13.407909 8.452207 -19.190221 0
M  V30 34 H 5.922110 7.548599 -13.763270 0
M  V30 35 H 7.623607 7.355681 -14.050754 0
M  V30 36 H 7.569980 2.980138 -12.687291 0
M  V30 37 H 9.034835 3.424348 -13.491667 0
M  V30 38 H 8.634835 2.414023 -15.811915 0
M  V30 39 H 7.496782 1.505799 -14.818780 0
M  V30 40 H 6.960884 2.241490 -16.321150 0
M  V30 41 H 18.332351 7.599077 -19.624474 0
M  V30 42 H 11.279968 6.901755 -18.410308 0
M  V30 43 H 12.656074 6.152396 -19.147953 0
M  V30 44 H 13.574192 4.103435 -18.304064 0
M  V30 45 H 12.780787 3.252262 -17.010630 0
M  V30 46 H 4.795418 8.130109 -15.560465 0
M  V30 47 H 5.434839 8.569305 -17.119715 0
M  V30 48 H 7.087203 4.611576 -16.615343 0
M  V30 49 H 14.878444 4.345543 -16.215332 0
M  V30 50 H 13.491947 4.969301 -15.378965 0
M  V30 51 H 12.591423 7.635373 -16.484717 0
M  V30 52 H 6.182950 3.568705 -14.440288 0
M  V30 53 H 9.263722 6.157784 -17.408805 0
M  V30 54 H 9.121653 4.406403 -17.380936 0
M  V30 55 H 5.382691 5.586310 -15.134930 0
M  V30 56 H 8.252132 4.869519 -11.548733 0
M  V30 57 H 8.877456 5.673075 -12.947268 0
M  V30 58 H 18.414512 5.595723 -18.103946 0
M  V30 59 H 11.008634 4.169301 -15.891667 0
M  V30 60 H 11.256040 5.881865 -15.782427 0
M  V30 61 H 3.185390 7.601196 -17.417647 0
M  V30 62 H 4.392744 6.584140 -18.197408 0
M  V30 63 H 3.689270 6.099466 -16.658227 0
M  V30 END ATOM
M  V30 BEGIN BOND
M  V30 1 1 4 1
M  V30 2 1 7 3
M  V30 3 1 11 6
M  V30 4 1 12 6
M  V30 5 1 13 5
M  V30 6 1 14 2
M  V30 7 1 15 1
M  V30 8 1 16 12
M  V30 9 1 17 4
M  V30 10 1 17 11
M  V30 11 1 18 8
M  V30 12 1 18 9
M  V30 13 1 18 14
M  V30 14 2 19 1
M  V30 15 1 19 10
M  V30 16 1 20 2
M  V30 17 2 21 15
M  V30 18 1 22 5
M  V30 19 1 22 7
M  V30 20 1 22 14
M  V30 21 1 23 3
M  V30 22 1 23 8
M  V30 23 1 24 15
M  V30 24 1 24 16
M  V30 25 1 24 17
M  V30 26 2 25 10
M  V30 27 1 25 21
M  V30 28 1 27 6
M  V30 29 1 27 20
M  V30 30 1 28 19
M  V30 31 3 28 26
M  V30 32 1 29 13
M  V30 33 1 30 3
M  V30 34 1 31 3
M  V30 35 1 32 4
M  V30 36 1 33 4
M  V30 37 1 34 7
M  V30 38 1 35 7
M  V30 39 1 36 8
M  V30 40 1 37 8
M  V30 41 1 38 9
M  V30 42 1 39 9
M  V30 43 1 40 9
M  V30 44 1 41 10
M  V30 45 1 42 11
M  V30 46 1 43 11
M  V30 47 1 44 12
M  V30 48 1 45 12
M  V30 49 1 46 13
M  V30 50 1 47 13
M  V30 51 1 14 48 CFG=3
M  V30 52 1 49 16
M  V30 53 1 50 16
M  V30 54 1 17 51 CFG=1
M  V30 55 1 18 52 CFG=1
M  V30 56 1 53 20
M  V30 57 1 54 20
M  V30 58 1 22 55 CFG=1
M  V30 59 1 56 23
M  V30 60 1 57 23
M  V30 61 1 58 25
M  V30 62 1 59 27
M  V30 63 1 60 27
M  V30 64 1 61 29
M  V30 65 1 62 29
M  V30 66 1 63 29
M  V30 END BOND
M  V30 END CTAB
M  END
>  <i_epik_Tot_Q>  (1) 
0

>  <i_epik_Tot_abs_Q>  (1) 
0

>  <i_i_glide_confnum>  (1) 
156

>  <i_i_glide_lignum>  (1) 
72

>  <i_i_glide_posenum>  (1) 
399

>  <i_i_glide_rotatable_bonds>  (1) 
6

>  <i_lp_mmshare_version>  (1) 
72125

>  <i_m_source_file_index>  (1) 
30

>  <i_f3d_flags>  (1) 
0

>  <num_sample>  (1) 
50

>  <b_lp_Chiralities_Consistent>  (1) 
1

>  <r_epik_Charging_Adjusted_Penalty>  (1) 
0.33209033116494396

>  <r_epik_Ionization_Penalty>  (1) 
0.33211857123964

>  <r_epik_Ionization_Penalty_Charging>  (1) 
0

>  <r_epik_Ionization_Penalty_Neutral>  (1) 
0.33211857123964

>  <r_epik_State_Penalty>  (1) 
0.33209033116494396

>  <r_glide_ring_energy>  (1) 
0.17809710789905059

>  <r_i_docking_score>  (1) 
-4.2847512615300953

>  <r_i_glide_ecoul>  (1) 
-2.0424759505506218

>  <r_i_glide_eff_state_penalty>  (1) 
0.33209033116494396

>  <r_i_glide_einternal>  (1) 
21.692493064522147

>  <r_i_glide_emodel>  (1) 
-30.518162224250379

>  <r_i_glide_emodel_strain>  (1) 
0.11688992630320172

>  <r_i_glide_energy>  (1) 
-33.387770495925523

>  <r_i_glide_erotb>  (1) 
0.61650785367983663

>  <r_i_glide_esite>  (1) 
0

>  <r_i_glide_evdw>  (1) 
-31.345294545374902

>  <r_i_glide_gscore>  (1) 
-4.6168415926950397

>  <r_i_glide_gscore_strain>  (1) 
0

>  <r_i_glide_hbond>  (1) 
0

>  <r_i_glide_ligand_efficiency>  (1) 
-0.14775004350103776

>  <r_i_glide_ligand_efficiency_ln>  (1) 
-0.98109938697314336

>  <r_i_glide_ligand_efficiency_sa>  (1) 
-0.45393494464405426

>  <r_i_glide_lipo>  (1) 
-2.0706432801675501

>  <r_i_glide_metal>  (1) 
-0

>  <r_i_glide_rewards>  (1) 
-1.2890700463559874

>  <r_lp_Energy>  (1) 
52.960926000000001

>  <s_epik_cmdline>  (1) 
J2VwaWtfcHl0aG9uJywgJy1waHQnLCAnMS4wJywgJy1waCcsICc3LjQnLCAnLXRuJywgJzgnLCAnLW1hJywgJzUwMCcsICctaW1hZScsICc8aW5maWxlLm1hZT4nLCAnLW9tYWUnLCAnPG91dGZpbGUubWFlPic=

>  <s_epik_input>  (1) 
TiNDYzFbY0hdW2NIXW5jKGMxMilOM1tDQEhdKFtDSDJdMilbQ0gyXU4oW0NIMl1bQ0gyXTMpW0NIMl1bQ0gyXU9bQ0BIXTRbQ0BASF0oW0NIM10pW0NIMl1bQ0gyXVtDSDJdW0NIMl1bQ0BIXTRPW0NIMl1bQ0gzXQ==

>  <s_glide_docking_method>  (1) 
confgen

>  <s_i_glide_gridfile>  (1) 
gpcr_drd2_6luq_protein_autoprepared_prepared

>  <s_lp_Force_Field>  (1) 
S-OPLS

>  <s_lp_Variant>  (1) 
DiffSBDD_29_num_sample_50-2

>  <s_m_source_file>  (1) 
generated__ligand_DiffSBDD_2026-05-06_prepared.sdf

>  <GenAI_Model>  (1) 
DiffSBDD

>  <Protein>  (1) 
generic_title2

$$$$
DiffSBDD_8_num_sample_50
     RDKit          3D

  0  0  0  0  0  0  0  0  0  0999 V3000
M  V30 BEGIN CTAB
M  V30 COUNTS 64 69 0 0 1
M  V30 BEGIN ATOM
M  V30 1 C 9.410458 6.520186 -8.726386 0 CFG=2
M  V30 2 O 7.434816 2.876834 -16.736082 0
M  V30 3 C 10.363935 7.954350 -6.651058 0 CFG=1
M  V30 4 N 12.229934 9.390519 -6.674298 0
M  V30 5 F 9.305098 5.652768 -18.053457 0
M  V30 6 C 8.282910 4.797686 -18.103152 0 CFG=2
M  V30 7 C 8.487864 3.828505 -19.272210 0
M  V30 8 C 6.222863 5.251096 -15.594738 0
M  V30 9 C 7.891078 6.261783 -13.577997 0
M  V30 10 C 9.773039 3.675841 -20.059382 0
M  V30 11 O 4.881045 6.218116 -19.235178 0
M  V30 12 C 12.206151 8.979909 -8.064350 0 CFG=2
M  V30 13 O 4.635972 4.641542 -21.090209 0 CHG=-1
M  V30 14 O 11.207479 9.069130 -4.691680 0
M  V30 15 O 7.087371 5.443910 -18.497079 0
M  V30 16 N 7.654094 4.993452 -15.618965 0
M  V30 17 C 8.746813 6.659323 -12.409446 0
M  V30 18 N 5.342006 5.211124 -19.993691 0 CHG=1
M  V30 19 N 7.315830 3.836700 -20.102809 0
M  V30 20 C 6.606722 4.771907 -19.580925 0
M  V30 21 C 8.499013 5.369323 -14.612977 0
M  V30 22 O 9.670986 5.002037 -14.589613 0
M  V30 23 C 11.309987 8.859169 -5.894752 0
M  V30 24 C 9.106668 5.807592 -7.419732 0
M  V30 25 C 11.410414 7.703195 -7.764063 0 CFG=2
M  V30 26 O 13.437084 8.569295 -8.593132 0
M  V30 27 C 9.237215 2.510726 -19.262264 0
M  V30 28 C 9.569347 5.967409 -10.156712 0 CFG=2
M  V30 29 C 10.630392 7.117106 -10.301026 0
M  V30 30 C 8.131846 4.110658 -16.712723 0 CFG=1
M  V30 31 C 5.734117 6.426752 -14.831120 0
M  V30 32 C 9.800007 6.569436 -6.222555 0
M  V30 33 C 8.427936 5.859908 -11.144205 0
M  V30 34 C 10.880649 6.833600 -8.836182 0 CFG=2
M  V30 35 C 6.636337 6.727133 -13.708040 0
M  V30 36 H 8.862282 7.455127 -8.749637 0
M  V30 37 H 8.059248 2.177745 -16.863297 0
M  V30 38 H 9.549654 8.592957 -6.998284 0
M  V30 39 H 12.937156 10.020399 -6.327673 0
M  V30 40 H 5.834829 4.365566 -15.091627 0
M  V30 41 H 5.787738 5.354495 -16.582986 0
M  V30 42 H 9.708745 3.613216 -21.144267 0
M  V30 43 H 10.668873 4.160490 -19.675896 0
M  V30 44 H 11.665183 9.672217 -8.711860 0
M  V30 45 H 8.585459 7.720283 -12.209852 0
M  V30 46 H 9.797175 6.565099 -12.685113 0
M  V30 47 H 9.434870 4.774431 -7.491668 0
M  V30 48 H 8.028662 5.769305 -7.258973 0
M  V30 49 H 12.152628 7.046425 -7.286106 0
M  V30 50 H 13.787153 9.267401 -9.138125 0
M  V30 51 H 9.789647 2.238162 -18.364938 0
M  V30 52 H 8.810818 1.676529 -19.817074 0
M  V30 53 H 10.026465 4.981233 -10.089341 0
M  V30 54 H 11.481592 6.969269 -10.964007 0
M  V30 55 H 10.195910 8.105101 -10.473709 0
M  V30 56 H 9.139158 3.759758 -16.493528 0
M  V30 57 H 4.763108 6.169236 -14.422280 0
M  V30 58 H 5.633544 7.311505 -15.460316 0
M  V30 59 H 10.578523 5.961371 -5.762317 0
M  V30 60 H 9.034854 6.726666 -5.491631 0
M  V30 61 H 8.284052 4.811411 -11.409455 0
M  V30 62 H 7.483517 6.169281 -10.698905 0
M  V30 63 H 11.391789 5.888779 -8.691668 0
M  V30 64 H 6.240300 7.383850 -12.947075 0
M  V30 END ATOM
M  V30 BEGIN BOND
M  V30 1 1 6 5 CFG=1
M  V30 2 1 7 6
M  V30 3 1 10 7
M  V30 4 1 12 4
M  V30 5 1 15 6
M  V30 6 1 16 8
M  V30 7 1 17 9
M  V30 8 2 18 11
M  V30 9 1 18 13
M  V30 10 1 19 7
M  V30 11 1 20 15
M  V30 12 1 20 18
M  V30 13 2 20 19
M  V30 14 1 21 9
M  V30 15 1 21 16
M  V30 16 2 22 21
M  V30 17 1 23 3
M  V30 18 1 23 4
M  V30 19 2 23 14
M  V30 20 1 24 1
M  V30 21 1 25 3
M  V30 22 1 25 12
M  V30 23 1 26 12
M  V30 24 1 27 7
M  V30 25 1 27 10
M  V30 26 1 28 1
M  V30 27 1 29 28
M  V30 28 1 30 2
M  V30 29 1 30 6
M  V30 30 1 30 16
M  V30 31 1 31 8
M  V30 32 1 32 3
M  V30 33 1 32 24
M  V30 34 1 33 17
M  V30 35 1 33 28
M  V30 36 1 34 1
M  V30 37 1 34 25
M  V30 38 1 34 29
M  V30 39 2 35 9
M  V30 40 1 35 31
M  V30 41 1 1 36 CFG=3
M  V30 42 1 37 2
M  V30 43 1 3 38 CFG=3
M  V30 44 1 39 4
M  V30 45 1 40 8
M  V30 46 1 41 8
M  V30 47 1 42 10
M  V30 48 1 43 10
M  V30 49 1 12 44 CFG=3
M  V30 50 1 45 17
M  V30 51 1 46 17
M  V30 52 1 47 24
M  V30 53 1 48 24
M  V30 54 1 25 49 CFG=1
M  V30 55 1 50 26
M  V30 56 1 51 27
M  V30 57 1 52 27
M  V30 58 1 28 53 CFG=1
M  V30 59 1 54 29
M  V30 60 1 55 29
M  V30 61 1 30 56 CFG=1
M  V30 62 1 57 31
M  V30 63 1 58 31
M  V30 64 1 59 32
M  V30 65 1 60 32
M  V30 66 1 61 33
M  V30 67 1 62 33
M  V30 68 1 34 63 CFG=3
M  V30 69 1 64 35
M  V30 END BOND
M  V30 END CTAB
M  END
>  <i_epik_Tot_Q>  (1) 
0

>  <i_epik_Tot_abs_Q>  (1) 
2

>  <i_i_glide_confnum>  (1) 
485

>  <i_i_glide_lignum>  (1) 
19

>  <i_i_glide_posenum>  (1) 
135

>  <i_i_glide_rotatable_bonds>  (1) 
8

>  <i_lp_mmshare_version>  (1) 
72125

>  <i_m_source_file_index>  (1) 
9

>  <i_f3d_flags>  (1) 
0

>  <num_sample>  (1) 
50

>  <b_lp_Chiralities_Consistent>  (1) 
1

>  <r_epik_Charging_Adjusted_Penalty>  (1) 
0.96578762746863478

>  <r_epik_Ionization_Penalty>  (1) 
0.96579538567658219

>  <r_epik_Ionization_Penalty_Charging>  (1) 
0

>  <r_epik_Ionization_Penalty_Neutral>  (1) 
0.96579538567658219

>  <r_epik_State_Penalty>  (1) 
0.96578762746863478

>  <r_glide_ring_energy>  (1) 
0

>  <r_i_docking_score>  (1) 
-4.2844722943606071

>  <r_i_glide_ecoul>  (1) 
-4.5371908675519697

>  <r_i_glide_eff_state_penalty>  (1) 
0.96578762746863478

>  <r_i_glide_einternal>  (1) 
11.244021267087204

>  <r_i_glide_emodel>  (1) 
-32.934262264451974

>  <r_i_glide_emodel_strain>  (1) 
0.48847104358989668

>  <r_i_glide_energy>  (1) 
-31.981185060259868

>  <r_i_glide_erotb>  (1) 
0.41978570389785574

>  <r_i_glide_esite>  (1) 
0

>  <r_i_glide_evdw>  (1) 
-27.443994192707898

>  <r_i_glide_gscore>  (1) 
-5.2502599218292421

>  <r_i_glide_gscore_strain>  (1) 
0

>  <r_i_glide_hbond>  (1) 
-0.32000000000000001

>  <r_i_glide_ligand_efficiency>  (1) 
-0.12241349412458877

>  <r_i_glide_ligand_efficiency_ln>  (1) 
-0.9405367573514809

>  <r_i_glide_ligand_efficiency_sa>  (1) 
-0.40042265654341125

>  <r_i_glide_lipo>  (1) 
-0.86576525124543369

>  <r_i_glide_metal>  (1) 
-0

>  <r_i_glide_rewards>  (1) 
-2.4315020347134735

>  <r_lp_Energy>  (1) 
65.271344999999997

>  <s_epik_Chemistry_Notes>  (1) 
This compound has an imine and may undergo hydrolysis. This compound contains an acetal/aminal-like group ( X-CH(R)-Y where X, Y are N, S, or O) that may be acid/base labile, releasing an aldehyde.

>  <s_epik_cmdline>  (1) 
J2VwaWtfcHl0aG9uJywgJy1waHQnLCAnMS4wJywgJy1waCcsICc3LjQnLCAnLXRuJywgJzgnLCAnLW1hJywgJzUwMCcsICctaW1hZScsICc8aW5maWxlLm1hZT4nLCAnLW9tYWUnLCAnPG91dGZpbGUubWFlPic=

>  <s_epik_input>  (1) 
W09IXVtDQEBIXTFbTkhdQyg9TylbQ0BIXShbQ0gyXVtDSDJdMilbQ0BIXTFbQ0BASF0oW0NASF0yMylbQ0gyXVtDQEBIXTNbQ0gyXVtDSDJdQzQ9W0NIXVtDSDJdW0NIMl1OKEM0PU8pW0NAQEhdKFtPSF0pW0NAQF0oRikoQzU2W0NIMl1bQ0gyXTYpT0MoPU41KVtOK10oPU8pW08tXQ==

>  <s_glide_docking_method>  (1) 
confgen

>  <s_i_glide_gridfile>  (1) 
gpcr_drd2_6luq_protein_autoprepared_prepared

>  <s_lp_Force_Field>  (1) 
S-OPLS

>  <s_lp_Variant>  (1) 
DiffSBDD_8_num_sample_50-2

>  <s_m_source_file>  (1) 
generated__ligand_DiffSBDD_2026-05-06_prepared.sdf

>  <GenAI_Model>  (1) 
DiffSBDD

>  <Protein>  (1) 
generic_title2

$$$$
DiffSBDD_39_num_sample_50
     RDKit          3D

  0  0  0  0  0  0  0  0  0  0999 V3000
M  V30 BEGIN CTAB
M  V30 COUNTS 60 63 0 0 1
M  V30 BEGIN ATOM
M  V30 1 C 7.094335 5.816199 -11.179720 0
M  V30 2 C 5.459044 7.304833 -12.247732 0
M  V30 3 C 10.307632 6.836018 -8.985385 0 CFG=1
M  V30 4 O 7.434844 7.237124 -14.110067 0
M  V30 5 C 10.424685 7.632621 -7.631722 0 CFG=2
M  V30 6 C 10.736593 6.652830 -6.462360 0
M  V30 7 C 9.237119 4.931562 -9.988658 0 CFG=1
M  V30 8 O 8.182550 3.746102 -16.280115 0
M  V30 9 C 13.375091 8.169310 -9.307179 0
M  V30 10 O 7.834861 4.491777 -8.133273 0
M  V30 11 C 7.116661 3.673914 -14.269901 0
M  V30 12 C 8.140091 4.692959 -11.032772 0
M  V30 13 N 12.886543 8.179606 -8.055419 0
M  V30 14 C 7.428250 1.582086 -15.379337 0
M  V30 15 O 14.538626 7.769302 -9.491663 0
M  V30 16 C 6.234119 5.979454 -12.462029 0 CFG=1
M  V30 17 N 9.034842 6.169317 -9.175145 0
M  V30 18 C 11.723312 9.498676 -6.354541 0
M  V30 19 C 7.569775 2.974303 -15.309062 0
M  V30 20 C 9.081265 8.344907 -7.314317 0
M  V30 21 C 6.789632 0.910625 -14.311060 0
M  V30 22 C 6.478304 3.055735 -13.166029 0
M  V30 23 C 8.874712 4.975701 -8.554857 0
M  V30 24 F 6.634802 -0.428940 -14.349733 0
M  V30 25 C 6.315108 1.650211 -13.195840 0
M  V30 26 C 8.123677 5.150662 -15.759091 0
M  V30 27 O 10.291230 7.723977 -10.084107 0
M  V30 28 C 11.563048 8.712655 -7.693139 0 CFG=2
M  V30 29 O 12.662943 8.569302 -10.250458 0 CHG=-1
M  V30 30 C 7.077554 6.113882 -13.751026 0
M  V30 31 C 11.088747 7.364656 -5.174682 0
M  V30 32 N 7.400645 4.994437 -14.490471 0
M  V30 33 C 11.524711 8.632042 -5.124893 0
M  V30 34 H 6.435119 5.769301 -10.310684 0
M  V30 35 H 7.649440 6.750404 -11.109137 0
M  V30 36 H 5.013575 7.663575 -13.173497 0
M  V30 37 H 4.672825 7.192372 -11.499716 0
M  V30 38 H 6.105215 8.109442 -11.891664 0
M  V30 39 H 11.159536 6.171549 -9.091091 0
M  V30 40 H 9.873644 6.024627 -6.248118 0
M  V30 41 H 11.559467 5.983912 -6.716108 0
M  V30 42 H 10.195463 4.465952 -10.167234 0
M  V30 43 H 8.652856 4.530134 -11.979181 0
M  V30 44 H 7.635804 3.769305 -10.785775 0
M  V30 45 H 13.475385 7.847870 -7.309305 0
M  V30 46 H 7.800066 1.032924 -16.231072 0
M  V30 47 H 5.393922 5.309987 -12.595559 0
M  V30 48 H 10.999227 10.309676 -6.291668 0
M  V30 49 H 12.702843 9.974105 -6.292079 0
M  V30 50 H 9.126178 8.969297 -6.427478 0
M  V30 51 H 8.748087 8.969346 -8.143390 0
M  V30 52 H 8.297412 7.623579 -7.092890 0
M  V30 53 H 6.133541 3.598225 -12.321868 0
M  V30 54 H 5.834936 1.141399 -12.373306 0
M  V30 55 H 7.555410 5.793559 -16.432744 0
M  V30 56 H 9.123281 5.543322 -15.565918 0
M  V30 57 H 11.185722 8.077978 -10.191757 0
M  V30 58 H 11.294359 9.447637 -8.448102 0
M  V30 59 H 10.976499 6.798665 -4.261452 0
M  V30 60 H 11.757172 9.081577 -4.170839 0
M  V30 END ATOM
M  V30 BEGIN BOND
M  V30 1 1 5 3
M  V30 2 1 6 5
M  V30 3 1 12 1
M  V30 4 1 12 7
M  V30 5 1 13 9
M  V30 6 2 15 9
M  V30 7 1 16 1
M  V30 8 1 16 2
M  V30 9 1 17 3
M  V30 10 1 17 7
M  V30 11 1 19 8
M  V30 12 2 19 11
M  V30 13 1 19 14
M  V30 14 1 5 20 CFG=1
M  V30 15 2 21 14
M  V30 16 1 22 11
M  V30 17 1 23 7
M  V30 18 2 23 10
M  V30 19 1 23 17
M  V30 20 1 24 21
M  V30 21 1 25 21
M  V30 22 2 25 22
M  V30 23 1 26 8
M  V30 24 1 27 3
M  V30 25 1 28 5
M  V30 26 1 28 13
M  V30 27 1 28 18
M  V30 28 1 29 9
M  V30 29 2 30 4
M  V30 30 1 30 16
M  V30 31 1 31 6
M  V30 32 1 32 11
M  V30 33 1 32 26
M  V30 34 1 32 30
M  V30 35 1 33 18
M  V30 36 2 33 31
M  V30 37 1 34 1
M  V30 38 1 35 1
M  V30 39 1 36 2
M  V30 40 1 37 2
M  V30 41 1 38 2
M  V30 42 1 3 39 CFG=3
M  V30 43 1 40 6
M  V30 44 1 41 6
M  V30 45 1 7 42 CFG=1
M  V30 46 1 43 12
M  V30 47 1 44 12
M  V30 48 1 45 13
M  V30 49 1 46 14
M  V30 50 1 16 47 CFG=3
M  V30 51 1 48 18
M  V30 52 1 49 18
M  V30 53 1 50 20
M  V30 54 1 51 20
M  V30 55 1 52 20
M  V30 56 1 53 22
M  V30 57 1 54 25
M  V30 58 1 55 26
M  V30 59 1 56 26
M  V30 60 1 57 27
M  V30 61 1 28 58 CFG=3
M  V30 62 1 59 31
M  V30 63 1 60 33
M  V30 END BOND
M  V30 END CTAB
M  END
>  <i_epik_Tot_Q>  (1) 
-1

>  <i_epik_Tot_abs_Q>  (1) 
1

>  <i_i_glide_confnum>  (1) 
220

>  <i_i_glide_lignum>  (1) 
97

>  <i_i_glide_posenum>  (1) 
98

>  <i_i_glide_rotatable_bonds>  (1) 
10

>  <i_lp_mmshare_version>  (1) 
72125

>  <i_m_source_file_index>  (1) 
40

>  <i_f3d_flags>  (1) 
0

>  <num_sample>  (1) 
50

>  <b_lp_Chiralities_Consistent>  (1) 
1

>  <r_epik_Charging_Adjusted_Penalty>  (1) 
0.003396760876195394

>  <r_epik_Ionization_Penalty>  (1) 
0.00096209118661649666

>  <r_epik_Ionization_Penalty_Charging>  (1) 
0.00096096227606769398

>  <r_epik_Ionization_Penalty_Neutral>  (1) 
1.1289105488026586e-06

>  <r_epik_State_Penalty>  (1) 
0.0024357986001277

>  <r_glide_ring_energy>  (1) 
0

>  <r_i_docking_score>  (1) 
-4.2748020972550727

>  <r_i_glide_ecoul>  (1) 
0.77426167596344708

>  <r_i_glide_eff_state_penalty>  (1) 
0.0024357986001277

>  <r_i_glide_einternal>  (1) 
19.194329173523478

>  <r_i_glide_emodel>  (1) 
-25.704577663761601

>  <r_i_glide_emodel_strain>  (1) 
1.6698827646208088

>  <r_i_glide_energy>  (1) 
-31.401493408577348

>  <r_i_glide_erotb>  (1) 
0.66448012662833866

>  <r_i_glide_esite>  (1) 
-0.17170749092671619

>  <r_i_glide_evdw>  (1) 
-32.175755084540796

>  <r_i_glide_gscore>  (1) 
-4.2772378958552002

>  <r_i_glide_gscore_strain>  (1) 
0

>  <r_i_glide_hbond>  (1) 
-0.017279027066473437

>  <r_i_glide_ligand_efficiency>  (1) 
-0.12953945749257795

>  <r_i_glide_ligand_efficiency_ln>  (1) 
-0.95069385268884088

>  <r_i_glide_ligand_efficiency_sa>  (1) 
-0.41550225699647891

>  <r_i_glide_lipo>  (1) 
-2.4878368861979281

>  <r_i_glide_metal>  (1) 
-0

>  <r_i_glide_rewards>  (1) 
-0.77224611545989807

>  <r_lp_Energy>  (1) 
30.570542999999997

>  <r_lp_tautomer_probability>  (1) 
1

>  <s_epik_Chemistry_Notes>  (1) 
This compound contains an acetal/aminal-like group ( X-CH(R)-Y where X, Y are N, S, or O) that may be acid/base labile, releasing an aldehyde.

>  <s_epik_cmdline>  (1) 
J2VwaWtfcHl0aG9uJywgJy1waHQnLCAnMS4wJywgJy1waCcsICc3LjQnLCAnLXRuJywgJzgnLCAnLW1hJywgJzUwMCcsICctaW1hZScsICc8aW5maWxlLm1hZT4nLCAnLW9tYWUnLCAnPG91dGZpbGUubWFlPic=

>  <s_epik_input>  (1) 
W2NIXTFbY0hdYyhGKVtjSF1jKGMxMilPW0NIMl1OMkMoPU8pW0NASF0oW0NIM10pW0NIMl1bQ0gyXVtDQEhdM04oQzM9TylbQ0BASF0oW09IXSlbQ0BAXTQoW0NIM10pW0NIMl1bQ0hdPVtDSF1bQ0gyXVtDQEhdNFtOSF1DKD1PKVtPSF0=

>  <s_glide_docking_method>  (1) 
confgen

>  <s_i_glide_gridfile>  (1) 
gpcr_drd2_6luq_protein_autoprepared_prepared

>  <s_lp_Force_Field>  (1) 
S-OPLS

>  <s_lp_Variant>  (1) 
DiffSBDD_39_num_sample_50-1

>  <s_m_source_file>  (1) 
generated__ligand_DiffSBDD_2026-05-06_prepared.sdf

>  <GenAI_Model>  (1) 
DiffSBDD

>  <Protein>  (1) 
generic_title2

$$$$
DiffSBDD_28_num_sample_50
     RDKit          3D

  0  0  0  0  0  0  0  0  0  0999 V3000
M  V30 BEGIN CTAB
M  V30 COUNTS 71 73 0 0 1
M  V30 BEGIN ATOM
M  V30 1 N 9.312181 7.236014 -10.000186 0 CFG=1 CHG=1
M  V30 2 C 7.612517 2.276627 -14.880730 0
M  V30 3 C 11.684997 8.711400 -4.223508 0 CFG=2
M  V30 4 C 9.951198 7.983252 -11.093876 0
M  V30 5 N 5.796601 6.601395 -13.078926 0
M  V30 6 O 11.810859 9.324105 -8.802370 0 CHG=-1
M  V30 7 C 8.625357 5.921367 -10.210283 0 CFG=1
M  V30 8 N 9.091024 6.250081 -8.003902 0
M  V30 9 F 5.933502 8.347863 -11.544343 0
M  V30 10 C 11.419788 6.299993 -4.492861 0
M  V30 11 O 7.829572 4.458855 -8.384134 0
M  V30 12 C 12.042796 7.360617 -3.588646 0
M  V30 13 C 11.081438 6.999224 -5.819046 0 CFG=1
M  V30 14 C 11.488083 8.451939 -5.697937 0
M  V30 15 O 7.465521 0.993967 -12.908685 0
M  V30 16 N 6.907566 4.573290 -13.062132 0
M  V30 17 N 5.434754 7.899397 -15.117908 0
M  V30 18 C 6.099906 5.421224 -12.414194 0
M  V30 19 C 7.508368 2.133080 -13.367342 0
M  V30 20 C 9.223849 5.118121 -11.382552 0
M  V30 21 C 6.793945 5.776678 -15.382619 0 CFG=2
M  V30 22 C 8.860388 3.672918 -11.787547 0
M  V30 23 F 6.726593 6.076489 -17.808038 0
M  V30 24 C 11.293204 7.015218 -8.441609 0 CFG=1
M  V30 25 F 6.261728 4.578425 -15.489265 0
M  V30 26 O 5.693061 5.196148 -11.273304 0
M  V30 27 O 13.373655 7.821784 -9.304293 0
M  V30 28 C 7.482369 3.382972 -12.451290 0 CFG=1
M  V30 29 C 12.742432 9.746433 -4.000275 0
M  V30 30 C 9.802306 7.328042 -8.606363 0 CFG=1
M  V30 31 C 5.722142 7.601265 -16.411117 0
M  V30 32 C 12.242558 8.156056 -8.887051 0
M  V30 33 C 8.523759 5.368600 -8.783096 0
M  V30 34 C 5.084564 7.659409 -12.297273 0
M  V30 35 C 5.961111 6.855157 -14.517898 0
M  V30 36 C 6.408971 6.519039 -16.580499 0
M  V30 37 C 11.679593 6.368940 -7.089343 0
M  V30 38 H 8.145490 3.183110 -15.163236 0
M  V30 39 H 8.120197 1.413473 -15.322060 0
M  V30 40 H 6.607843 2.294640 -15.300497 0
M  V30 41 H 10.752530 9.143667 -3.889415 0
M  V30 42 H 10.837761 7.488087 -11.489178 0
M  V30 43 H 9.245283 8.161988 -11.906911 0
M  V30 44 H 10.221344 8.953510 -10.685536 0
M  V30 45 H 7.612146 6.169282 -10.447754 0
M  V30 46 H 8.999390 6.202675 -7.001541 0
M  V30 47 H 10.503526 5.919578 -4.035238 0
M  V30 48 H 12.065213 5.435379 -4.623963 0
M  V30 49 H 11.719922 7.269548 -2.551897 0
M  V30 50 H 13.123881 7.228198 -3.585921 0
M  V30 51 H 9.996862 6.972008 -5.843612 0
M  V30 52 H 12.414098 8.650460 -6.229067 0
M  V30 53 H 10.744324 9.106694 -6.145725 0
M  V30 54 H 7.180271 4.765173 -14.010679 0
M  V30 55 H 10.241170 5.072042 -11.115752 0
M  V30 56 H 9.171723 5.731490 -12.281712 0
M  V30 57 H 7.873809 5.792920 -15.207045 0
M  V30 58 H 9.059298 2.992938 -10.967853 0
M  V30 59 H 9.637471 3.399966 -12.509240 0
M  V30 60 H 11.435006 6.185853 -9.103177 0
M  V30 61 H 6.746558 3.128487 -11.690991 0
M  V30 62 H 13.733629 9.385582 -4.243111 0
M  V30 63 H 12.508507 10.565267 -4.692304 0
M  V30 64 H 12.719409 10.120024 -2.974244 0
M  V30 65 H 9.516050 8.283542 -8.158330 0
M  V30 66 H 5.356741 8.244883 -17.201179 0
M  V30 67 H 4.521109 8.412734 -12.844388 0
M  V30 68 H 4.437281 7.245733 -11.521550 0
M  V30 69 H 11.424067 5.310660 -7.093062 0
M  V30 70 H 12.755035 6.366676 -7.073954 0
M  V30 71 H 8.442595 7.769346 -9.871944 0
M  V30 END ATOM
M  V30 BEGIN BOND
M  V30 1 1 4 1
M  V30 2 1 7 1
M  V30 3 1 12 3
M  V30 4 1 12 10
M  V30 5 1 13 10
M  V30 6 1 14 3
M  V30 7 1 14 13
M  V30 8 1 18 5
M  V30 9 1 18 16
M  V30 10 1 19 2
M  V30 11 2 19 15
M  V30 12 1 20 7
M  V30 13 1 22 20
M  V30 14 1 25 21
M  V30 15 2 26 18
M  V30 16 1 28 16
M  V30 17 1 28 19
M  V30 18 1 28 22
M  V30 19 1 29 3
M  V30 20 1 30 1
M  V30 21 1 30 8
M  V30 22 1 30 24
M  V30 23 1 31 17
M  V30 24 1 32 6
M  V30 25 1 32 24
M  V30 26 2 32 27
M  V30 27 1 33 7
M  V30 28 1 33 8
M  V30 29 2 33 11
M  V30 30 1 34 5
M  V30 31 1 34 9
M  V30 32 1 35 5
M  V30 33 2 35 17
M  V30 34 1 35 21
M  V30 35 1 36 21
M  V30 36 1 36 23
M  V30 37 2 36 31
M  V30 38 1 37 13
M  V30 39 1 37 24
M  V30 40 1 38 2
M  V30 41 1 39 2
M  V30 42 1 40 2
M  V30 43 1 3 41 CFG=1
M  V30 44 1 42 4
M  V30 45 1 43 4
M  V30 46 1 44 4
M  V30 47 1 7 45 CFG=3
M  V30 48 1 46 8
M  V30 49 1 47 10
M  V30 50 1 48 10
M  V30 51 1 49 12
M  V30 52 1 50 12
M  V30 53 1 13 51 CFG=3
M  V30 54 1 52 14
M  V30 55 1 53 14
M  V30 56 1 54 16
M  V30 57 1 55 20
M  V30 58 1 56 20
M  V30 59 1 21 57 CFG=1
M  V30 60 1 58 22
M  V30 61 1 59 22
M  V30 62 1 24 60 CFG=3
M  V30 63 1 28 61 CFG=1
M  V30 64 1 62 29
M  V30 65 1 63 29
M  V30 66 1 64 29
M  V30 67 1 30 65 CFG=1
M  V30 68 1 66 31
M  V30 69 1 67 34
M  V30 70 1 68 34
M  V30 71 1 69 37
M  V30 72 1 70 37
M  V30 73 1 1 71 CFG=1
M  V30 END BOND
M  V30 END CTAB
M  END
>  <i_epik_Tot_Q>  (1) 
0

>  <i_epik_Tot_abs_Q>  (1) 
2

>  <i_i_glide_confnum>  (1) 
1815

>  <i_i_glide_lignum>  (1) 
70

>  <i_i_glide_posenum>  (1) 
39

>  <i_i_glide_rotatable_bonds>  (1) 
13

>  <i_lp_mmshare_version>  (1) 
72125

>  <i_m_source_file_index>  (1) 
29

>  <i_f3d_flags>  (1) 
0

>  <num_sample>  (1) 
50

>  <b_lp_Chiralities_Consistent>  (1) 
1

>  <r_epik_Charging_Adjusted_Penalty>  (1) 
0.054083419880676768

>  <r_epik_Ionization_Penalty>  (1) 
0.12983459298085004

>  <r_epik_Ionization_Penalty_Charging>  (1) 
0.054083419880676768

>  <r_epik_Ionization_Penalty_Neutral>  (1) 
0.075751173100173264

>  <r_epik_State_Penalty>  (1) 
-0

>  <r_glide_ring_energy>  (1) 
0

>  <r_i_docking_score>  (1) 
-4.2653927280113582

>  <r_i_glide_ecoul>  (1) 
-7.8731325286550975

>  <r_i_glide_eff_state_penalty>  (1) 
-0

>  <r_i_glide_einternal>  (1) 
23.732892514944417

>  <r_i_glide_emodel>  (1) 
-5.6927416284511168

>  <r_i_glide_emodel_strain>  (1) 
7.5708127024494161

>  <r_i_glide_energy>  (1) 
-14.493560691675633

>  <r_i_glide_erotb>  (1) 
0.66137813184917615

>  <r_i_glide_esite>  (1) 
-0.45085838329877648

>  <r_i_glide_evdw>  (1) 
-6.6204281630205362

>  <r_i_glide_gscore>  (1) 
-4.2653927280113582

>  <r_i_glide_gscore_strain>  (1) 
0.89270317561235402

>  <r_i_glide_hbond>  (1) 
-0.20000000000000001

>  <r_i_glide_ligand_efficiency>  (1) 
-0.11528088454084752

>  <r_i_glide_ligand_efficiency_ln>  (1) 
-0.92506368771273195

>  <r_i_glide_ligand_efficiency_sa>  (1) 
-0.38414148254408631

>  <r_i_glide_lipo>  (1) 
-2.811805569343957

>  <r_i_glide_metal>  (1) 
-0

>  <r_i_glide_rewards>  (1) 
-0.84481879538086291

>  <r_lp_Energy>  (1) 
39.617291999999999

>  <r_lp_tautomer_probability>  (1) 
1

>  <s_epik_Chemistry_Notes>  (1) 
This compound has an imine and may undergo hydrolysis. This compound contains an acetal/aminal-like group ( X-CH(R)-Y where X, Y are N, S, or O) that may be acid/base labile, releasing an aldehyde.

>  <s_epik_cmdline>  (1) 
J2VwaWtfcHl0aG9uJywgJy1waHQnLCAnMS4wJywgJy1waCcsICc3LjQnLCAnLXRuJywgJzgnLCAnLW1hJywgJzUwMCcsICctaW1hZScsICc8aW5maWxlLm1hZT4nLCAnLW9tYWUnLCAnPG91dGZpbGUubWFlPic=

>  <s_epik_input>  (1) 
W0NIM11bQ0BASF0xW0NIMl1bQ0gyXVtDQEBIXShbQ0gyXTEpW0NIMl1bQ0BIXShDKD1PKVtPSF0pW0NAQEhdMltOSF1DKD1PKVtDQEBIXShOMltDSDNdKVtDSDJdW0NIMl1bQ0BIXShDKD1PKVtDSDNdKVtOSF1DKD1PKU4oW0NIMl1GKUMoW0NASF0zRik9TltDSF09QzNG

>  <s_glide_docking_method>  (1) 
confgen

>  <s_i_glide_gridfile>  (1) 
gpcr_drd2_6luq_protein_autoprepared_prepared

>  <s_lp_Force_Field>  (1) 
S-OPLS

>  <s_lp_Variant>  (1) 
DiffSBDD_28_num_sample_50-2

>  <s_m_source_file>  (1) 
generated__ligand_DiffSBDD_2026-05-06_prepared.sdf

>  <GenAI_Model>  (1) 
DiffSBDD

>  <Protein>  (1) 
generic_title2

$$$$
DiffSBDD_10_num_sample_50
     RDKit          3D

  0  0  0  0  0  0  0  0  0  0999 V3000
M  V30 BEGIN CTAB
M  V30 COUNTS 72 73 0 0 1
M  V30 BEGIN ATOM
M  V30 1 C 8.650628 1.072094 -20.025997 0 CFG=2
M  V30 2 C 9.171267 6.323437 -12.092397 0
M  V30 3 C 6.632581 3.209812 -14.204135 0
M  V30 4 C 6.618033 -0.282518 -15.295587 0 CFG=1
M  V30 5 C 8.487002 -0.341135 -19.442402 0 CFG=2
M  V30 6 N 6.951713 7.252763 -12.291653 0
M  V30 7 N 8.634692 -0.817342 -16.442618 0
M  V30 8 C 7.573315 -1.143077 -17.341067 0 CFG=1
M  V30 9 S 9.015494 1.157221 -21.864466 0
M  V30 10 C 9.692706 7.373769 -11.123877 0
M  V30 11 S 10.112704 2.966234 -21.890752 0 CHG=-1
M  V30 12 C 6.404174 2.353867 -19.969138 0
M  V30 13 O 8.997997 6.577078 -7.026541 0
M  V30 14 O 9.946731 0.092182 -22.268042 0
M  V30 15 C 9.806200 0.411154 -19.300723 0 CFG=2
M  V30 16 C 6.757191 3.819734 -11.669479 0
M  V30 17 C 8.084554 0.071023 -15.436696 0 CFG=2
M  V30 18 N 8.634882 6.169191 -9.208892 0 CHG=1
M  V30 19 N 7.500782 5.335167 -13.485062 0
M  V30 20 C 9.844908 6.862010 -9.686622 0
M  V30 21 C 5.046043 -0.609531 -17.429939 0
M  V30 22 C 7.858023 2.271582 -19.479011 0
M  V30 23 C 8.293103 -1.576788 -20.315792 0
M  V30 24 C 5.801269 0.968573 -15.052976 0
M  V30 25 C 7.005607 4.201292 -13.148374 0
M  V30 26 O 10.097523 0.957501 -18.028940 0
M  V30 27 C 7.921558 6.316702 -12.593224 0
M  V30 28 O 7.770247 1.369279 -22.616534 0
M  V30 29 F 8.634839 -0.108038 -14.245767 0
M  V30 30 N 5.905756 4.754291 -10.952845 0
M  V30 31 C 8.754579 5.493817 -7.901926 0
M  V30 32 C 6.244072 -1.076583 -16.572264 0 CFG=2
M  V30 33 O 7.517931 -0.232476 -18.396182 0
M  V30 34 C 6.227160 1.940705 -13.952801 0
M  V30 35 H 9.866454 5.547229 -12.381822 0
M  V30 36 H 6.697235 3.574033 -15.219983 0
M  V30 37 H 6.484074 -0.947974 -14.440424 0
M  V30 38 H 7.058066 7.847832 -11.473665 0
M  V30 39 H 9.371290 -0.319073 -16.941663 0
M  V30 40 H 7.727027 -2.150139 -17.723564 0
M  V30 41 H 9.039375 8.246473 -11.123982 0
M  V30 42 H 10.655461 7.729610 -11.489693 0
M  V30 43 H 5.846703 3.099097 -19.402899 0
M  V30 44 H 6.346095 2.640499 -21.017428 0
M  V30 45 H 5.891585 1.399298 -19.852749 0
M  V30 46 H 8.152065 6.962226 -6.808588 0
M  V30 47 H 10.685030 0.084566 -19.851437 0
M  V30 48 H 6.234830 2.879268 -11.544515 0
M  V30 49 H 7.718732 3.769362 -11.160670 0
M  V30 50 H 8.236158 1.107168 -15.742512 0
M  V30 51 H 8.356256 5.494102 -9.905311 0
M  V30 52 H 10.082566 7.702443 -9.034303 0
M  V30 53 H 10.665129 6.169338 -9.603565 0
M  V30 54 H 5.166558 0.407933 -17.799561 0
M  V30 55 H 4.912992 -1.256891 -18.298210 0
M  V30 56 H 4.120343 -0.645623 -16.853289 0
M  V30 57 H 7.843708 2.221060 -18.390306 0
M  V30 58 H 8.380363 3.196290 -19.717004 0
M  V30 59 H 9.171738 -1.768029 -20.928785 0
M  V30 60 H 8.135865 -2.475323 -19.723595 0
M  V30 61 H 7.426250 -1.441328 -20.962501 0
M  V30 62 H 4.775091 0.646313 -14.865292 0
M  V30 63 H 5.835027 1.523020 -15.990195 0
M  V30 64 H 10.449663 1.825404 -18.165875 0
M  V30 65 H 5.003981 4.800635 -11.401193 0
M  V30 66 H 5.729101 4.442853 -10.004856 0
M  V30 67 H 9.587107 4.789827 -7.904579 0
M  V30 68 H 7.834757 4.970519 -7.639042 0
M  V30 69 H 6.008284 -2.101731 -16.291692 0
M  V30 70 H 6.177277 1.565987 -12.947330 0
M  V30 71 H 5.999779 7.099973 -12.583816 0
M  V30 72 H 7.878681 6.873148 -9.170293 0
M  V30 END ATOM
M  V30 BEGIN BOND
M  V30 1 1 5 1
M  V30 2 1 8 7
M  V30 3 1 9 1
M  V30 4 1 10 2
M  V30 5 1 11 9
M  V30 6 2 14 9
M  V30 7 1 15 1
M  V30 8 1 15 5
M  V30 9 1 17 4
M  V30 10 1 17 7
M  V30 11 1 20 10
M  V30 12 1 20 18
M  V30 13 1 1 22 CFG=1
M  V30 14 1 22 12
M  V30 15 1 23 5
M  V30 16 1 24 4
M  V30 17 1 25 3
M  V30 18 1 25 16
M  V30 19 2 25 19
M  V30 20 1 26 15
M  V30 21 2 27 2
M  V30 22 1 27 6
M  V30 23 1 27 19
M  V30 24 2 28 9
M  V30 25 1 29 17
M  V30 26 1 30 16
M  V30 27 1 31 13
M  V30 28 1 31 18
M  V30 29 1 32 4
M  V30 30 1 32 8
M  V30 31 1 32 21
M  V30 32 1 5 33 CFG=1
M  V30 33 1 33 8
M  V30 34 2 34 3
M  V30 35 1 34 24
M  V30 36 1 35 2
M  V30 37 1 36 3
M  V30 38 1 4 37 CFG=1
M  V30 39 1 38 6
M  V30 40 1 39 7
M  V30 41 1 8 40 CFG=3
M  V30 42 1 41 10
M  V30 43 1 42 10
M  V30 44 1 43 12
M  V30 45 1 44 12
M  V30 46 1 45 12
M  V30 47 1 46 13
M  V30 48 1 15 47 CFG=3
M  V30 49 1 48 16
M  V30 50 1 49 16
M  V30 51 1 17 50 CFG=3
M  V30 52 1 51 18
M  V30 53 1 52 20
M  V30 54 1 53 20
M  V30 55 1 54 21
M  V30 56 1 55 21
M  V30 57 1 56 21
M  V30 58 1 57 22
M  V30 59 1 58 22
M  V30 60 1 59 23
M  V30 61 1 60 23
M  V30 62 1 61 23
M  V30 63 1 62 24
M  V30 64 1 63 24
M  V30 65 1 64 26
M  V30 66 1 65 30
M  V30 67 1 66 30
M  V30 68 1 67 31
M  V30 69 1 68 31
M  V30 70 1 32 69 CFG=1
M  V30 71 1 70 34
M  V30 72 1 71 6
M  V30 73 1 72 18
M  V30 END BOND
M  V30 END CTAB
M  END
>  <i_epik_Tot_Q>  (1) 
0

>  <i_epik_Tot_abs_Q>  (1) 
2

>  <i_i_glide_confnum>  (1) 
2274

>  <i_i_glide_lignum>  (1) 
28

>  <i_i_glide_posenum>  (1) 
284

>  <i_i_glide_rotatable_bonds>  (1) 
15

>  <i_lp_mmshare_version>  (1) 
72125

>  <i_m_source_file_index>  (1) 
11

>  <i_f3d_flags>  (1) 
0

>  <num_sample>  (1) 
50

>  <b_lp_Chiralities_Consistent>  (1) 
1

>  <r_epik_Charging_Adjusted_Penalty>  (1) 
0.33639934582642134

>  <r_epik_Ionization_Penalty>  (1) 
0.23315943830934333

>  <r_epik_Ionization_Penalty_Charging>  (1) 
0.10316865490585193

>  <r_epik_Ionization_Penalty_Neutral>  (1) 
0.12999078340349141

>  <r_epik_State_Penalty>  (1) 
0.23323069092056939

>  <r_glide_ring_energy>  (1) 
0

>  <r_i_docking_score>  (1) 
-4.256069735292348

>  <r_i_glide_ecoul>  (1) 
-9.459705608068866

>  <r_i_glide_eff_state_penalty>  (1) 
0.23323069092056939

>  <r_i_glide_einternal>  (1) 
4.9586959275894369

>  <r_i_glide_emodel>  (1) 
-39.070553071124046

>  <r_i_glide_emodel_strain>  (1) 
2.4181910093215606

>  <r_i_glide_energy>  (1) 
-31.300948751855895

>  <r_i_glide_erotb>  (1) 
0.57757419641111274

>  <r_i_glide_esite>  (1) 
-0.26589710221161766

>  <r_i_glide_evdw>  (1) 
-21.841243143787029

>  <r_i_glide_gscore>  (1) 
-4.4893004262129175

>  <r_i_glide_gscore_strain>  (1) 
0

>  <r_i_glide_hbond>  (1) 
-0.62819188417195848

>  <r_i_glide_ligand_efficiency>  (1) 
-0.12517852162624554

>  <r_i_glide_ligand_efficiency_ln>  (1) 
-0.94028518323852817

>  <r_i_glide_ligand_efficiency_sa>  (1) 
-0.40552981592685372

>  <r_i_glide_lipo>  (1) 
-0.68196962138122075

>  <r_i_glide_metal>  (1) 
-0

>  <r_i_glide_rewards>  (1) 
-0.97979801645955156

>  <r_lp_Energy>  (1) 
20.579340999999999

>  <s_epik_Chemistry_Notes>  (1) 
This compound has an imine and may undergo hydrolysis. This compound contains an acetal/aminal-like group ( X-CH(R)-Y where X, Y are N, S, or O) that may be acid/base labile, releasing an aldehyde.

>  <s_epik_cmdline>  (1) 
J2VwaWtfcHl0aG9uJywgJy1waHQnLCAnMS4wJywgJy1waCcsICc3LjQnLCAnLXRuJywgJzgnLCAnLW1hJywgJzUwMCcsICctaW1hZScsICc8aW5maWxlLm1hZT4nLCAnLW9tYWUnLCAnPG91dGZpbGUubWFlPic=

>  <s_epik_input>  (1) 
W1NIXVMoPU8pKD1PKVtDQEBdMShbQ0gyXVtDSDNdKVtDQEBdKFtDSDNdKShbQ0BASF0xW09IXSlPW0NASF0oW0NAQEhdMltDSDNdKVtOSF1bQ0BASF0oRilbQ0BIXTJbQ0gyXVxbQ0hdPVtDSF1cQyhbQ0gyXVtOSDJdKT1OXEMoPU5cW0hdKVxbQ0gyXVtDSDJdW0NIMl1bTkhdW0NIMl1bT0hd

>  <s_glide_docking_method>  (1) 
confgen

>  <s_i_glide_gridfile>  (1) 
gpcr_drd2_6luq_protein_autoprepared_prepared

>  <s_lp_Force_Field>  (1) 
S-OPLS

>  <s_lp_Variant>  (1) 
DiffSBDD_10_num_sample_50-8

>  <s_m_source_file>  (1) 
generated__ligand_DiffSBDD_2026-05-06_prepared.sdf

>  <GenAI_Model>  (1) 
DiffSBDD

>  <Protein>  (1) 
generic_title2

$$$$
DiffSBDD_40_num_sample_50
     RDKit          3D

  0  0  0  0  0  0  0  0  0  0999 V3000
M  V30 BEGIN CTAB
M  V30 COUNTS 80 83 0 0 1
M  V30 BEGIN ATOM
M  V30 1 C 10.049662 1.916649 -18.548923 0 CFG=1
M  V30 2 S 8.224468 7.573917 -12.291664 0
M  V30 3 C 5.430264 3.889930 -13.258405 0
M  V30 4 C 12.788868 0.034364 -18.597635 0 CFG=2
M  V30 5 C 6.701712 3.877040 -13.704936 0
M  V30 6 C 12.014448 6.403548 -20.538901 0
M  V30 7 C 11.469118 2.169507 -19.130695 0 CFG=2
M  V30 8 C 12.360657 6.136885 -19.263165 0
M  V30 9 C 12.611551 1.512037 -18.314376 0
M  V30 10 C 9.626995 2.857311 -17.406482 0
M  V30 11 C 10.060257 5.558967 -12.477400 0
M  V30 12 C 12.890078 7.252988 -18.375667 0 CFG=1
M  V30 13 C 7.698205 5.021800 -13.398282 0 CFG=1
M  V30 14 C 12.563054 4.539597 -17.436615 0
M  V30 15 C 12.551704 6.976488 -16.908287 0 CFG=2
M  V30 16 C 12.229176 4.768649 -18.729646 0
M  V30 17 C 7.235432 2.716264 -14.562171 0 CFG=1
M  V30 18 C 9.653653 6.721832 -11.564012 0 CFG=2
M  V30 19 S 6.419614 0.569259 -12.968783 0
M  V30 20 C 14.261230 -0.524847 -18.654270 0
M  V30 21 F 13.034833 7.930356 -16.115338 0
M  V30 22 C 11.727664 3.623580 -19.637591 0
M  V30 23 C 13.059042 5.606189 -16.484626 0
M  V30 24 C 7.080166 6.189450 -12.577881 0
M  V30 25 F 14.212394 7.354563 -18.522254 0
M  V30 26 O 15.194093 0.191167 -18.291735 0
M  V30 27 O 8.229986 3.174597 -15.476392 0
M  V30 28 O 9.097908 2.012657 -19.590298 0
M  V30 29 C 7.770868 1.530564 -13.709567 0
M  V30 30 C 11.906851 8.330153 -9.747423 0
M  V30 31 N 9.397891 6.021473 -7.926508 0
M  V30 32 C 8.367862 2.395115 -16.658549 0
M  V30 33 N 8.510295 5.369300 -9.752917 0 CHG=1
M  V30 34 O 13.454294 -0.172393 -19.730723 0
M  V30 35 C 10.019799 6.744646 -8.916003 0
M  V30 36 C 8.986527 4.491032 -12.732692 0
M  V30 37 C 9.434844 6.321386 -10.114506 0
M  V30 38 C 8.493755 5.198953 -8.439139 0
M  V30 39 C 11.092127 7.753546 -8.590037 0
M  V30 40 H 10.013006 0.887216 -18.190379 0
M  V30 41 H 5.048348 4.700783 -12.659943 0
M  V30 42 H 4.756269 3.080462 -13.491667 0
M  V30 43 H 11.936341 -0.630695 -18.511619 0
M  V30 44 H 12.108487 7.402401 -20.939538 0
M  V30 45 H 11.638293 5.636505 -21.195668 0
M  V30 46 H 11.467972 1.602333 -20.063990 0
M  V30 47 H 13.546350 2.047074 -18.485891 0
M  V30 48 H 12.397035 1.564314 -17.248279 0
M  V30 49 H 10.440400 2.897766 -16.691686 0
M  V30 50 H 9.491194 3.876925 -17.768785 0
M  V30 51 H 10.375843 5.961213 -13.440732 0
M  V30 52 H 10.935595 5.074631 -12.067605 0
M  V30 53 H 12.467549 8.207681 -18.685711 0
M  V30 54 H 7.979559 5.441684 -14.365877 0
M  V30 55 H 12.481527 3.561350 -17.025669 0
M  V30 56 H 11.470419 6.969327 -16.771026 0
M  V30 57 H 6.396141 2.349917 -15.154257 0
M  V30 58 H 10.456624 7.443569 -11.616253 0
M  V30 59 H 5.939204 0.057059 -14.106248 0
M  V30 60 H 12.460718 3.550852 -20.441935 0
M  V30 61 H 10.806088 3.961722 -20.111917 0
M  V30 62 H 12.683041 5.378131 -15.491685 0
M  V30 63 H 14.147764 5.576082 -16.435448 0
M  V30 64 H 6.221222 6.604267 -13.106047 0
M  V30 65 H 6.711035 5.847112 -11.612886 0
M  V30 66 H 8.258217 1.724054 -19.266576 0
M  V30 67 H 8.353714 0.834504 -14.309362 0
M  V30 68 H 8.430675 1.859019 -12.910048 0
M  V30 69 H 12.716961 8.955246 -9.370399 0
M  V30 70 H 12.356139 7.547855 -10.357219 0
M  V30 71 H 11.287987 8.969309 -10.369680 0
M  V30 72 H 7.481464 2.508173 -17.284249 0
M  V30 73 H 8.460878 1.336395 -16.419668 0
M  V30 74 H 9.595379 6.108559 -6.937185 0
M  V30 75 H 8.753473 3.935978 -11.826643 0
M  V30 76 H 9.453734 3.769346 -13.394408 0
M  V30 77 H 7.858884 4.524784 -7.891769 0
M  V30 78 H 10.628242 8.573920 -8.040912 0
M  V30 79 H 11.784966 7.284496 -7.890063 0
M  V30 80 H 7.912429 4.873029 -10.400723 0
M  V30 END ATOM
M  V30 BEGIN BOND
M  V30 1 2 5 3
M  V30 2 1 7 1
M  V30 3 2 8 6
M  V30 4 1 9 4
M  V30 5 1 9 7
M  V30 6 1 10 1
M  V30 7 1 12 8
M  V30 8 1 13 5
M  V30 9 1 15 12
M  V30 10 1 16 8
M  V30 11 2 16 14
M  V30 12 1 17 5
M  V30 13 1 18 2
M  V30 14 1 18 11
M  V30 15 1 20 4
M  V30 16 1 21 15
M  V30 17 1 22 7
M  V30 18 1 22 16
M  V30 19 1 23 14
M  V30 20 1 23 15
M  V30 21 1 24 2
M  V30 22 1 24 13
M  V30 23 1 25 12
M  V30 24 2 26 20
M  V30 25 1 27 17
M  V30 26 1 28 1
M  V30 27 1 29 17
M  V30 28 1 29 19
M  V30 29 1 32 10
M  V30 30 1 32 27
M  V30 31 1 34 4
M  V30 32 1 34 20
M  V30 33 1 35 31
M  V30 34 1 36 11
M  V30 35 1 36 13
M  V30 36 1 37 18
M  V30 37 1 37 33
M  V30 38 2 37 35
M  V30 39 1 38 31
M  V30 40 2 38 33
M  V30 41 1 39 30
M  V30 42 1 39 35
M  V30 43 1 1 40 CFG=1
M  V30 44 1 41 3
M  V30 45 1 42 3
M  V30 46 1 4 43 CFG=3
M  V30 47 1 44 6
M  V30 48 1 45 6
M  V30 49 1 7 46 CFG=3
M  V30 50 1 47 9
M  V30 51 1 48 9
M  V30 52 1 49 10
M  V30 53 1 50 10
M  V30 54 1 51 11
M  V30 55 1 52 11
M  V30 56 1 12 53 CFG=3
M  V30 57 1 13 54 CFG=3
M  V30 58 1 55 14
M  V30 59 1 15 56 CFG=3
M  V30 60 1 17 57 CFG=3
M  V30 61 1 18 58 CFG=1
M  V30 62 1 59 19
M  V30 63 1 60 22
M  V30 64 1 61 22
M  V30 65 1 62 23
M  V30 66 1 63 23
M  V30 67 1 64 24
M  V30 68 1 65 24
M  V30 69 1 66 28
M  V30 70 1 67 29
M  V30 71 1 68 29
M  V30 72 1 69 30
M  V30 73 1 70 30
M  V30 74 1 71 30
M  V30 75 1 72 32
M  V30 76 1 73 32
M  V30 77 1 74 31
M  V30 78 1 75 36
M  V30 79 1 76 36
M  V30 80 1 77 38
M  V30 81 1 78 39
M  V30 82 1 79 39
M  V30 83 1 80 33
M  V30 END BOND
M  V30 END CTAB
M  END
>  <i_epik_Tot_Q>  (1) 
1

>  <i_epik_Tot_abs_Q>  (1) 
1

>  <i_i_glide_confnum>  (1) 
7642

>  <i_i_glide_lignum>  (1) 
100

>  <i_i_glide_posenum>  (1) 
100

>  <i_i_glide_rotatable_bonds>  (1) 
16

>  <i_lp_mmshare_version>  (1) 
72125

>  <i_m_source_file_index>  (1) 
41

>  <i_f3d_flags>  (1) 
0

>  <num_sample>  (1) 
50

>  <b_lp_Chiralities_Consistent>  (1) 
1

>  <r_epik_Charging_Adjusted_Penalty>  (1) 
0.74174678475340827

>  <r_epik_Ionization_Penalty>  (1) 
0.9544201178542232

>  <r_epik_Ionization_Penalty_Charging>  (1) 
0

>  <r_epik_Ionization_Penalty_Neutral>  (1) 
0.9544201178542232

>  <r_epik_State_Penalty>  (1) 
0.74174678475340827

>  <r_glide_ring_energy>  (1) 
0

>  <r_i_docking_score>  (1) 
-4.2499759626535765

>  <r_i_glide_ecoul>  (1) 
-2.6216191398709494

>  <r_i_glide_eff_state_penalty>  (1) 
0.74174678475340827

>  <r_i_glide_einternal>  (1) 
19.259610511046684

>  <r_i_glide_emodel>  (1) 
-43.6358059107584

>  <r_i_glide_emodel_strain>  (1) 
0

>  <r_i_glide_energy>  (1) 
-41.378505128413366

>  <r_i_glide_erotb>  (1) 
0.63365396365979698

>  <r_i_glide_esite>  (1) 
-0.15681137583833038

>  <r_i_glide_evdw>  (1) 
-38.756885988542415

>  <r_i_glide_gscore>  (1) 
-4.9917227474069845

>  <r_i_glide_gscore_strain>  (1) 
0

>  <r_i_glide_hbond>  (1) 
0

>  <r_i_glide_ligand_efficiency>  (1) 
-0.10897374263214299

>  <r_i_glide_ligand_efficiency_ln>  (1) 
-0.91131548913493821

>  <r_i_glide_ligand_efficiency_sa>  (1) 
-0.36955300300220406

>  <r_i_glide_lipo>  (1) 
-2.1598366669248401

>  <r_i_glide_metal>  (1) 
-0

>  <r_i_glide_rewards>  (1) 
-0.97764149789584676

>  <r_lp_Energy>  (1) 
23.350483999999998

>  <r_lp_tautomer_probability>  (1) 
1

>  <s_epik_Chemistry_Notes>  (1) 
This compound has an ester and may undergo hydrolysis at high or low pH.

>  <s_epik_cmdline>  (1) 
J2VwaWtfcHl0aG9uJywgJy1waHQnLCAnMS4wJywgJy1waCcsICc3LjQnLCAnLXRuJywgJzgnLCAnLW1hJywgJzUwMCcsICctaW1hZScsICc8aW5maWxlLm1hZT4nLCAnLW9tYWUnLCAnPG91dGZpbGUubWFlPic=

>  <s_epik_input>  (1) 
W0NIMl09QzFbQ0BIXShGKVtDQEhdKEYpW0NIMl1bQ0hdPUMxW0NIMl1bQ0BASF0oW0NIMl1bQ0BASF0yQyg9TylPMilbQ0BIXShbT0hdKVtDSDJdW0NIMl1PW0NAQEhdKFtDSDJdW1NIXSlDKD1bQ0gyXSlbQ0BIXTNbQ0gyXVNbQ0BIXShbQ0gyXVtDSDJdMylDND1OW0NIXT1OW0NAQEhdNFtDSDJdW0NIM10=

>  <s_glide_docking_method>  (1) 
confgen

>  <s_i_glide_gridfile>  (1) 
gpcr_drd2_6luq_protein_autoprepared_prepared

>  <s_lp_Force_Field>  (1) 
S-OPLS

>  <s_lp_Variant>  (1) 
DiffSBDD_40_num_sample_50-3

>  <s_m_source_file>  (1) 
generated__ligand_DiffSBDD_2026-05-06_prepared.sdf

>  <GenAI_Model>  (1) 
DiffSBDD

>  <Protein>  (1) 
generic_title2

$$$$
DiffSBDD_22_num_sample_50
     RDKit          3D

  0  0  0  0  0  0  0  0  0  0999 V3000
M  V30 BEGIN CTAB
M  V30 COUNTS 53 56 0 0 1
M  V30 BEGIN ATOM
M  V30 1 C 7.643632 4.037460 -18.618875 0
M  V30 2 C 6.225946 6.275263 -14.727682 0
M  V30 3 O 5.834709 7.406276 -14.997210 0
M  V30 4 C 8.607139 2.740770 -16.832332 0 CFG=1
M  V30 5 C 6.447862 4.187983 -19.535424 0
M  V30 6 C 6.947540 5.425479 -15.762714 0
M  V30 7 C 6.015985 0.341666 -15.873231 0
M  V30 8 S 6.730984 1.468592 -13.491529 0
M  V30 9 C 6.813736 1.528238 -15.308894 0 CFG=1
M  V30 10 C 9.460801 3.998191 -16.417983 0 CFG=2
M  V30 11 C 8.780367 4.755785 -18.706273 0
M  V30 12 O 10.668185 5.781329 -17.589100 0
M  V30 13 C 8.257771 1.567946 -15.866435 0
M  V30 14 C 8.912786 4.954406 -13.565288 0 CFG=2
M  V30 15 C 6.005121 5.664197 -13.333353 0 CFG=1
M  V30 16 C 8.479867 6.123087 -12.651607 0
M  V30 17 S 8.691954 5.303956 -15.359477 0 CHG=1
M  V30 18 C 8.469281 3.587250 -13.025648 0
M  V30 19 C 6.469769 3.165962 -20.676276 0
M  V30 20 C 5.815848 4.129954 -13.341966 0
M  V30 21 C 9.947698 4.584857 -17.760690 0 CFG=1
M  V30 22 C 6.992089 6.164114 -12.264707 0
M  V30 23 C 6.978217 3.189156 -12.944577 0 CFG=1
M  V30 24 O 7.471381 3.079086 -17.641498 0
M  V30 25 H 9.264979 2.222550 -17.534000 0
M  V30 26 H 5.536338 4.066613 -18.948759 0
M  V30 27 H 6.423871 5.200648 -19.939697 0
M  V30 28 H 6.847060 5.895110 -16.740569 0
M  V30 29 H 6.511750 4.443138 -15.850381 0
M  V30 30 H 5.972069 0.376582 -16.962101 0
M  V30 31 H 4.989693 0.345197 -15.503910 0
M  V30 32 H 6.462226 -0.611404 -15.585843 0
M  V30 33 H 6.285153 2.409438 -15.636912 0
M  V30 34 H 10.388080 3.769301 -15.906537 0
M  V30 35 H 8.886087 5.500214 -19.482263 0
M  V30 36 H 11.097451 6.005767 -18.402363 0
M  V30 37 H 8.358805 0.667238 -16.474040 0
M  V30 38 H 9.012022 1.369317 -15.109830 0
M  V30 39 H 9.999038 4.946781 -13.482302 0
M  V30 40 H 5.034944 6.063423 -13.038947 0
M  V30 41 H 9.055161 6.078341 -11.725462 0
M  V30 42 H 8.758143 7.077790 -13.091860 0
M  V30 43 H 9.034824 2.796537 -13.491661 0
M  V30 44 H 8.850819 3.539452 -12.003590 0
M  V30 45 H 5.594444 3.277379 -21.316542 0
M  V30 46 H 6.473119 2.145927 -20.290218 0
M  V30 47 H 7.355538 3.290359 -21.299892 0
M  V30 48 H 4.988457 3.911777 -12.666245 0
M  V30 49 H 5.426133 3.817775 -14.291660 0
M  V30 50 H 10.639540 3.886889 -18.234967 0
M  V30 51 H 6.735795 7.186437 -11.982281 0
M  V30 52 H 6.842012 5.587252 -11.350947 0
M  V30 53 H 6.802714 3.097423 -11.885058 0
M  V30 END ATOM
M  V30 BEGIN BOND
M  V30 1 2 3 2
M  V30 2 1 5 1
M  V30 3 1 6 2
M  V30 4 1 9 7
M  V30 5 1 9 8
M  V30 6 1 10 4
M  V30 7 2 11 1
M  V30 8 1 13 4
M  V30 9 1 13 9
M  V30 10 1 15 2
M  V30 11 1 16 14
M  V30 12 1 17 6 CFG=1
M  V30 13 1 17 10
M  V30 14 1 17 14
M  V30 15 1 18 14
M  V30 16 1 19 5
M  V30 17 1 20 15
M  V30 18 1 21 10
M  V30 19 1 21 11
M  V30 20 1 21 12
M  V30 21 1 22 15
M  V30 22 1 22 16
M  V30 23 1 23 8
M  V30 24 1 23 18
M  V30 25 1 23 20
M  V30 26 1 24 1
M  V30 27 1 24 4
M  V30 28 1 4 25 CFG=3
M  V30 29 1 26 5
M  V30 30 1 27 5
M  V30 31 1 28 6
M  V30 32 1 29 6
M  V30 33 1 30 7
M  V30 34 1 31 7
M  V30 35 1 32 7
M  V30 36 1 9 33 CFG=3
M  V30 37 1 10 34 CFG=1
M  V30 38 1 35 11
M  V30 39 1 36 12
M  V30 40 1 37 13
M  V30 41 1 38 13
M  V30 42 1 14 39 CFG=3
M  V30 43 1 15 40 CFG=1
M  V30 44 1 41 16
M  V30 45 1 42 16
M  V30 46 1 43 18
M  V30 47 1 44 18
M  V30 48 1 45 19
M  V30 49 1 46 19
M  V30 50 1 47 19
M  V30 51 1 48 20
M  V30 52 1 49 20
M  V30 53 1 21 50 CFG=3
M  V30 54 1 51 22
M  V30 55 1 52 22
M  V30 56 1 23 53 CFG=1
M  V30 END BOND
M  V30 END CTAB
M  END
>  <i_epik_Tot_Q>  (1) 
1

>  <i_epik_Tot_abs_Q>  (1) 
1

>  <i_i_glide_confnum>  (1) 
1

>  <i_i_glide_lignum>  (1) 
60

>  <i_i_glide_posenum>  (1) 
286

>  <i_i_glide_rotatable_bonds>  (1) 
2

>  <i_lp_mmshare_version>  (1) 
72125

>  <i_m_source_file_index>  (1) 
23

>  <i_f3d_flags>  (1) 
0

>  <num_sample>  (1) 
50

>  <b_lp_Chiralities_Consistent>  (1) 
1

>  <r_epik_Charging_Adjusted_Penalty>  (1) 
0.074119830427950756

>  <r_epik_Ionization_Penalty>  (1) 
0.0741198432157502

>  <r_epik_Ionization_Penalty_Charging>  (1) 
0

>  <r_epik_Ionization_Penalty_Neutral>  (1) 
0.0741198432157502

>  <r_epik_State_Penalty>  (1) 
0.074119830427950756

>  <r_glide_ring_energy>  (1) 
0

>  <r_i_docking_score>  (1) 
-4.2470447866123324

>  <r_i_glide_ecoul>  (1) 
-1.4534139069792418

>  <r_i_glide_eff_state_penalty>  (1) 
0.074119830427950756

>  <r_i_glide_einternal>  (1) 
0.3880389676032821

>  <r_i_glide_emodel>  (1) 
-26.431753966233419

>  <r_i_glide_emodel_strain>  (1) 
0

>  <r_i_glide_energy>  (1) 
-20.865560834305402

>  <r_i_glide_erotb>  (1) 
0

>  <r_i_glide_esite>  (1) 
0

>  <r_i_glide_evdw>  (1) 
-19.412146927326159

>  <r_i_glide_gscore>  (1) 
-4.3211646170402833

>  <r_i_glide_gscore_strain>  (1) 
0

>  <r_i_glide_hbond>  (1) 
0

>  <r_i_glide_ligand_efficiency>  (1) 
-0.17696019944218053

>  <r_i_glide_ligand_efficiency_ln>  (1) 
-1.0165127016227653

>  <r_i_glide_ligand_efficiency_sa>  (1) 
-0.51044154321399626

>  <r_i_glide_lipo>  (1) 
-1.6295595430734475

>  <r_i_glide_metal>  (1) 
-0

>  <r_i_glide_rewards>  (1) 
-1.502985641553642

>  <r_lp_Energy>  (1) 
36.408808000000001

>  <s_epik_cmdline>  (1) 
J2VwaWtfcHl0aG9uJywgJy1waHQnLCAnMS4wJywgJy1waCcsICc3LjQnLCAnLXRuJywgJzgnLCAnLW1hJywgJzUwMCcsICctaW1hZScsICc8aW5maWxlLm1hZT4nLCAnLW9tYWUnLCAnPG91dGZpbGUubWFlPic=

>  <s_epik_input>  (1) 
W0NIM11bQ0gyXUMoTzEpPVtDSF1bQ0BASF0oW09IXSlbQ0BIXShbQ0BIXTEyKVtTK10zW0NASF00W0NIMl1bQ0gyXVtDQEBIXShDKD1PKVtDSDJdMylbQ0gyXVtDQEhdKFtDSDJdNClTW0NASF0oW0NIM10pW0NIMl0y

>  <s_glide_docking_method>  (1) 
confgen

>  <s_i_glide_gridfile>  (1) 
gpcr_drd2_6luq_protein_autoprepared_prepared

>  <s_lp_Force_Field>  (1) 
S-OPLS

>  <s_lp_Variant>  (1) 
DiffSBDD_22_num_sample_50-1

>  <s_m_source_file>  (1) 
generated__ligand_DiffSBDD_2026-05-06_prepared.sdf

>  <GenAI_Model>  (1) 
DiffSBDD

>  <Protein>  (1) 
generic_title2

$$$$
DiffSBDD_14_num_sample_50
     RDKit          3D

  0  0  0  0  0  0  0  0  0  0999 V3000
M  V30 BEGIN CTAB
M  V30 COUNTS 69 73 0 0 1
M  V30 BEGIN ATOM
M  V30 1 C 10.700769 7.627655 -7.751556 0 CFG=2
M  V30 2 C 5.916259 4.437602 -11.590332 0 CFG=1
M  V30 3 C 8.712397 8.224841 -6.418968 0
M  V30 4 C 12.234825 8.569318 -6.079197 0
M  V30 5 C 9.832202 6.679899 -10.941999 0
M  V30 6 C 6.558032 5.583008 -18.776589 0
M  V30 7 O 7.310332 4.794858 -19.618334 0
M  V30 8 C 5.470494 3.988338 -12.977455 0
M  V30 9 O 7.574882 4.826485 -13.182186 0
M  V30 10 C 6.693865 6.839864 -15.166033 0
M  V30 11 N 5.898049 6.113450 -14.195431 0
M  V30 12 N 8.955817 5.923109 -10.278676 0
M  V30 13 C 11.329616 7.848315 -9.169413 0 CFG=2
M  V30 14 C 9.889371 8.790803 -7.187971 0 CFG=1
M  V30 15 C 8.377037 4.720419 -10.847222 0
M  V30 16 C 5.903978 5.504780 -21.430005 0
M  V30 17 O 4.919156 5.990365 -20.527123 0
M  V30 18 C 12.037100 5.769615 -6.562956 0
M  V30 19 O 10.276247 6.380916 -12.049916 0
M  V30 20 C 12.307519 9.019819 -9.310307 0
M  V30 21 C 7.262444 5.129406 -11.828075 0 CFG=2
M  V30 22 C 6.989740 5.798496 -17.453754 0
M  V30 23 O 5.035208 5.409105 -11.077413 0
M  V30 24 C 6.637128 4.329028 -20.778201 0
M  V30 25 C 11.638785 7.247292 -6.624567 0
M  V30 26 S 10.978522 9.769296 -6.077673 0
M  V30 27 C 4.594634 6.983515 -18.355364 0
M  V30 28 C 10.250585 7.977149 -10.272659 0
M  V30 29 C 11.198446 6.332628 -5.477257 0
M  V30 30 C 6.227617 6.604097 -16.584560 0
M  V30 31 C 5.030860 7.192956 -17.035801 0
M  V30 32 C 6.380555 4.789835 -13.897502 0 CFG=2
M  V30 33 C 5.352787 6.183821 -19.232979 0
M  V30 34 H 10.043560 6.770968 -7.895813 0
M  V30 35 H 5.974305 3.589052 -10.909067 0
M  V30 36 H 8.234953 7.427964 -6.975089 0
M  V30 37 H 9.039390 7.794722 -5.491704 0
M  V30 38 H 7.970459 8.969301 -6.194008 0
M  V30 39 H 12.562437 8.567491 -5.037798 0
M  V30 40 H 13.051272 8.969234 -6.676175 0
M  V30 41 H 5.694595 2.930526 -13.116134 0
M  V30 42 H 4.415575 4.153205 -13.200380 0
M  V30 43 H 6.595113 7.904889 -14.956321 0
M  V30 44 H 7.753204 6.602642 -15.059094 0
M  V30 45 H 5.764160 6.655234 -13.352110 0
M  V30 46 H 8.610390 6.237376 -9.381666 0
M  V30 47 H 11.923857 6.969145 -9.400981 0
M  V30 48 H 9.457515 9.369303 -7.992730 0
M  V30 49 H 7.961159 4.169261 -10.007357 0
M  V30 50 H 9.124258 4.080071 -11.320373 0
M  V30 51 H 6.599531 6.303206 -21.695526 0
M  V30 52 H 5.414694 5.183019 -22.349578 0
M  V30 53 H 11.478827 5.099444 -7.213134 0
M  V30 54 H 13.010562 5.372959 -6.291667 0
M  V30 55 H 11.834798 9.963139 -9.039274 0
M  V30 56 H 13.214375 8.879699 -8.729620 0
M  V30 57 H 12.652257 9.118736 -10.339944 0
M  V30 58 H 7.120425 6.213672 -11.795388 0
M  V30 59 H 7.906459 5.346446 -17.104954 0
M  V30 60 H 5.359834 5.698712 -10.234495 0
M  V30 61 H 7.371143 3.904943 -21.463238 0
M  V30 62 H 5.941523 3.532377 -20.507602 0
M  V30 63 H 3.678793 7.440465 -18.695054 0
M  V30 64 H 10.634902 8.569313 -11.091682 0
M  V30 65 H 9.357974 8.503168 -9.934481 0
M  V30 66 H 11.678683 6.444960 -4.507555 0
M  V30 67 H 10.176770 5.970323 -5.434289 0
M  V30 68 H 4.447830 7.809534 -16.367507 0
M  V30 69 H 6.544742 4.252960 -14.833857 0
M  V30 END ATOM
M  V30 BEGIN BOND
M  V30 1 1 7 6
M  V30 2 1 8 2
M  V30 3 1 11 10
M  V30 4 1 12 5
M  V30 5 1 13 1
M  V30 6 1 14 1
M  V30 7 1 14 3
M  V30 8 1 15 12
M  V30 9 1 17 16
M  V30 10 2 19 5
M  V30 11 1 20 13
M  V30 12 1 21 2
M  V30 13 1 21 9
M  V30 14 1 21 15
M  V30 15 1 22 6
M  V30 16 1 23 2
M  V30 17 1 24 7
M  V30 18 1 24 16
M  V30 19 1 25 1
M  V30 20 1 25 4
M  V30 21 1 25 18
M  V30 22 1 26 4
M  V30 23 1 26 14
M  V30 24 1 28 5
M  V30 25 1 28 13
M  V30 26 1 29 18
M  V30 27 1 29 25
M  V30 28 1 30 10
M  V30 29 2 30 22
M  V30 30 2 31 27
M  V30 31 1 31 30
M  V30 32 1 32 8
M  V30 33 1 32 9
M  V30 34 1 32 11
M  V30 35 2 33 6
M  V30 36 1 33 17
M  V30 37 1 33 27
M  V30 38 1 1 34 CFG=3
M  V30 39 1 2 35 CFG=1
M  V30 40 1 36 3
M  V30 41 1 37 3
M  V30 42 1 38 3
M  V30 43 1 39 4
M  V30 44 1 40 4
M  V30 45 1 41 8
M  V30 46 1 42 8
M  V30 47 1 43 10
M  V30 48 1 44 10
M  V30 49 1 45 11
M  V30 50 1 46 12
M  V30 51 1 13 47 CFG=3
M  V30 52 1 14 48 CFG=3
M  V30 53 1 49 15
M  V30 54 1 50 15
M  V30 55 1 51 16
M  V30 56 1 52 16
M  V30 57 1 53 18
M  V30 58 1 54 18
M  V30 59 1 55 20
M  V30 60 1 56 20
M  V30 61 1 57 20
M  V30 62 1 21 58 CFG=3
M  V30 63 1 59 22
M  V30 64 1 60 23
M  V30 65 1 61 24
M  V30 66 1 62 24
M  V30 67 1 63 27
M  V30 68 1 64 28
M  V30 69 1 65 28
M  V30 70 1 66 29
M  V30 71 1 67 29
M  V30 72 1 68 31
M  V30 73 1 32 69 CFG=3
M  V30 END BOND
M  V30 END CTAB
M  END
>  <i_epik_Tot_Q>  (1) 
0

>  <i_epik_Tot_abs_Q>  (1) 
0

>  <i_i_glide_confnum>  (1) 
2376

>  <i_i_glide_lignum>  (1) 
50

>  <i_i_glide_posenum>  (1) 
111

>  <i_i_glide_rotatable_bonds>  (1) 
10

>  <i_lp_mmshare_version>  (1) 
72125

>  <i_m_source_file_index>  (1) 
15

>  <i_f3d_flags>  (1) 
0

>  <num_sample>  (1) 
50

>  <b_lp_Chiralities_Consistent>  (1) 
1

>  <r_epik_Charging_Adjusted_Penalty>  (1) 
0.31292197521915999

>  <r_epik_Ionization_Penalty>  (1) 
0.31292203413354946

>  <r_epik_Ionization_Penalty_Charging>  (1) 
0

>  <r_epik_Ionization_Penalty_Neutral>  (1) 
0.31292203413354946

>  <r_epik_State_Penalty>  (1) 
0.31292197521915999

>  <r_glide_ring_energy>  (1) 
1.4894630668183444

>  <r_i_docking_score>  (1) 
-4.2429210598048375

>  <r_i_glide_ecoul>  (1) 
-4.0794800122204675

>  <r_i_glide_eff_state_penalty>  (1) 
0.31292197521915999

>  <r_i_glide_einternal>  (1) 
26.205565253546848

>  <r_i_glide_emodel>  (1) 
-16.183344348196407

>  <r_i_glide_emodel_strain>  (1) 
6.2363142000779632

>  <r_i_glide_energy>  (1) 
-27.033128024401798

>  <r_i_glide_erotb>  (1) 
0.80225646669221395

>  <r_i_glide_esite>  (1) 
-0.13179442251026258

>  <r_i_glide_evdw>  (1) 
-22.953648012181329

>  <r_i_glide_gscore>  (1) 
-4.5558430350239973

>  <r_i_glide_gscore_strain>  (1) 
0.55907855001949081

>  <r_i_glide_hbond>  (1) 
-0.043226882441643133

>  <r_i_glide_ligand_efficiency>  (1) 
-0.12857336544863143

>  <r_i_glide_ligand_efficiency_ln>  (1) 
-0.94360367503108611

>  <r_i_glide_ligand_efficiency_sa>  (1) 
-0.41240348359958462

>  <r_i_glide_lipo>  (1) 
-2.792045608905902

>  <r_i_glide_metal>  (1) 
-0

>  <r_i_glide_rewards>  (1) 
-1.1905067354357581

>  <r_lp_Energy>  (1) 
13.089316999999999

>  <r_lp_tautomer_probability>  (1) 
1

>  <s_epik_Chemistry_Notes>  (1) 
This compound contains an acetal/aminal-like group ( X-CH(R)-Y where X, Y are N, S, or O) that may be acid/base labile, releasing an aldehyde.

>  <s_epik_cmdline>  (1) 
J2VwaWtfcHl0aG9uJywgJy1waHQnLCAnMS4wJywgJy1waCcsICc3LjQnLCAnLXRuJywgJzgnLCAnLW1hJywgJzUwMCcsICctaW1hZScsICc8aW5maWxlLm1hZT4nLCAnLW9tYWUnLCAnPG91dGZpbGUubWFlPic=

>  <s_epik_input>  (1) 
W0NIMl0xU1tDQEhdKFtDSDNdKVtDQEhdKEMxMltDSDJdW0NIMl0yKVtDQEhdKFtDSDNdKVtDSDJdQyg9TylbTkhdW0NIMl1bQ0BIXTNPW0NAQEhdKFtDSDJdW0NAQEhdM1tPSF0pW05IXVtDSDJdYyhbY0hdNClbY0hdW2NIXWMoYzQ1KU9bQ0gyXVtDSDJdTzU=

>  <s_glide_docking_method>  (1) 
confgen

>  <s_i_glide_gridfile>  (1) 
gpcr_drd2_6luq_protein_autoprepared_prepared

>  <s_lp_Force_Field>  (1) 
S-OPLS

>  <s_lp_Variant>  (1) 
DiffSBDD_14_num_sample_50-1

>  <s_m_source_file>  (1) 
generated__ligand_DiffSBDD_2026-05-06_prepared.sdf

>  <GenAI_Model>  (1) 
DiffSBDD

>  <Protein>  (1) 
generic_title2

$$$$
DiffSBDD_34_num_sample_50
     RDKit          3D

  0  0  0  0  0  0  0  0  0  0999 V3000
M  V30 BEGIN CTAB
M  V30 COUNTS 109 114 0 0 1
M  V30 BEGIN ATOM
M  V30 1 C 9.478210 3.957837 -18.252204 0
M  V30 2 C 6.595277 0.531046 -15.256733 0
M  V30 3 C 6.172820 2.377541 -13.492152 0
M  V30 4 C 12.803140 4.202168 -17.893027 0
M  V30 5 C 9.424653 5.276326 -11.218298 0
M  V30 6 C 13.720636 8.668170 -21.746993 0 CFG=1
M  V30 7 C 6.365131 0.233377 -16.764380 0 CFG=2
M  V30 8 C 5.482150 3.759342 -13.318196 0
M  V30 9 O 10.846630 3.921641 -20.219807 0
M  V30 10 C 15.299648 6.527553 -18.735930 0 CFG=1
M  V30 11 N 15.681597 7.760383 -23.044372 0 CHG=1
M  V30 12 C 12.236045 3.623841 -20.328108 0 CFG=1
M  V30 13 O 9.081861 -0.073004 -19.969804 0
M  V30 14 C 6.740685 2.040516 -14.911477 0 CFG=1
M  V30 15 C 9.046959 2.334434 -20.197183 0
M  V30 16 F 11.973450 3.041735 -22.592765 0
M  V30 17 C 12.517470 5.295310 -22.206028 0
M  V30 18 C 11.057866 6.970297 -12.132405 0
M  V30 19 O 12.861042 7.531356 -21.760957 0
M  V30 20 C 8.156569 2.580464 -15.081659 0
M  V30 21 C 5.573819 -1.070868 -16.983157 0
M  V30 22 C 7.670631 0.192295 -17.569403 0
M  V30 23 C 9.681492 6.315830 -12.270242 0 CFG=2
M  V30 24 C 11.623383 4.898437 -17.179290 0
M  V30 25 O 6.046453 7.295005 -12.512514 0
M  V30 26 O 7.720104 1.154791 -18.549481 0
M  V30 27 C 9.572980 4.670597 -15.779402 0
M  V30 28 C 7.054810 6.621398 -12.291673 0
M  V30 29 C 12.675196 3.834540 -21.782729 0 CFG=1
M  V30 30 C 13.058463 4.533750 -19.388313 0 CFG=1
M  V30 31 C 8.627580 1.001909 -19.567981 0
M  V30 32 O 8.561063 -0.627379 -17.320297 0
M  V30 33 O 8.636238 8.492628 -12.291664 0
M  V30 34 C 8.253289 4.486777 -11.720299 0
M  V30 35 C 10.340509 4.064364 -16.976489 0 CFG=1
M  V30 36 C 14.473712 8.917163 -20.432301 0
M  V30 37 C 13.840274 6.960402 -18.858976 0 CFG=1
M  V30 38 C 13.702769 8.460207 -19.186895 0
M  V30 39 C 5.624118 3.723151 -10.691533 0
M  V30 40 C 13.310374 6.258372 -21.303311 0 CFG=1
M  V30 41 C 14.600375 8.761824 -23.005928 0
M  V30 42 O 16.125671 7.383308 -17.929664 0
M  V30 43 C 5.770126 4.527203 -11.996589 0 CFG=1
M  V30 44 C 8.481751 7.271253 -12.279350 0
M  V30 45 C 12.985841 6.048081 -19.792247 0 CFG=1
M  V30 46 N 7.041675 5.270175 -12.030624 0
M  V30 47 C 10.100281 3.077411 -19.349764 0 CFG=2
M  V30 48 C 8.193510 4.085842 -15.438560 0
M  V30 49 C 15.909441 6.064126 -17.431328 0
M  V30 50 H 8.522524 3.514602 -17.988331 0
M  V30 51 H 9.236726 4.947041 -18.642526 0
M  V30 52 H 7.446462 -0.031143 -14.868135 0
M  V30 53 H 5.733312 0.124794 -14.726094 0
M  V30 54 H 6.957226 2.238822 -12.750037 0
M  V30 55 H 5.434918 1.628912 -13.207491 0
M  V30 56 H 13.703007 4.472978 -17.344706 0
M  V30 57 H 12.739402 3.122883 -17.753071 0
M  V30 58 H 9.236304 5.712550 -10.235002 0
M  V30 59 H 10.234836 4.569276 -11.121033 0
M  V30 60 H 13.020894 9.493942 -21.860182 0
M  V30 61 H 5.749668 1.030635 -17.182586 0
M  V30 62 H 4.405587 3.602712 -13.389796 0
M  V30 63 H 5.701335 4.414203 -14.159591 0
M  V30 64 H 15.785987 6.210095 -19.655599 0
M  V30 65 H 16.267573 7.926117 -23.849346 0
M  V30 66 H 16.241646 7.831306 -22.207383 0
M  V30 67 H 12.436727 2.575648 -20.100130 0
M  V30 68 H 6.234839 2.572829 -15.693887 0
M  V30 69 H 8.173732 2.963274 -20.370404 0
M  V30 70 H 9.466532 2.109300 -21.177746 0
M  V30 71 H 12.834605 5.414573 -23.242704 0
M  V30 72 H 11.458503 5.559634 -22.182194 0
M  V30 73 H 11.356390 7.387323 -13.091086 0
M  V30 74 H 11.073107 7.746357 -11.365855 0
M  V30 75 H 11.826304 6.241974 -11.891852 0
M  V30 76 H 8.634835 2.374229 -14.134463 0
M  V30 77 H 8.682074 2.018892 -15.850350 0
M  V30 78 H 5.433961 -1.281510 -18.044618 0
M  V30 79 H 6.079278 -1.928012 -16.540628 0
M  V30 80 H 4.581063 -1.008111 -16.535941 0
M  V30 81 H 9.681616 5.818511 -13.237048 0
M  V30 82 H 11.367373 5.856553 -17.625814 0
M  V30 83 H 12.002346 5.159150 -16.189499 0
M  V30 84 H 9.448315 5.741930 -15.945905 0
M  V30 85 H 10.202331 4.581851 -14.895512 0
M  V30 86 H 13.714926 3.528053 -21.901416 0
M  V30 87 H 14.090844 4.227600 -19.560216 0
M  V30 88 H 8.074539 3.769300 -10.937157 0
M  V30 89 H 8.550743 3.914123 -12.592468 0
M  V30 90 H 10.631600 3.054613 -16.691688 0
M  V30 91 H 15.464557 8.468820 -20.450564 0
M  V30 92 H 14.654673 9.989939 -20.353052 0
M  V30 93 H 13.419885 6.870463 -17.858040 0
M  V30 94 H 14.066951 9.030701 -18.331924 0
M  V30 95 H 12.648132 8.716595 -19.285724 0
M  V30 96 H 4.634840 3.770206 -10.285070 0
M  V30 97 H 5.834835 2.666313 -10.815490 0
M  V30 98 H 6.247736 4.120338 -9.891688 0
M  V30 99 H 14.372157 6.109093 -21.489775 0
M  V30 100 H 13.975876 8.651238 -23.890178 0
M  V30 101 H 15.051440 9.753910 -23.060579 0
M  V30 102 H 4.977039 5.265028 -11.912134 0
M  V30 103 H 11.945615 6.355007 -19.678903 0
M  V30 104 H 10.734041 2.327218 -18.873218 0
M  V30 105 H 7.504174 4.303710 -16.252565 0
M  V30 106 H 7.813087 4.662921 -14.602659 0
M  V30 107 H 15.299353 6.028426 -16.530121 0
M  V30 108 H 16.788496 5.424364 -17.456342 0
M  V30 109 H 15.278408 6.836430 -23.107235 0
M  V30 END ATOM
M  V30 BEGIN BOND
M  V30 1 1 7 2
M  V30 2 1 8 3
M  V30 3 1 12 9
M  V30 4 1 14 2
M  V30 5 1 14 3
M  V30 6 1 19 6
M  V30 7 1 20 14
M  V30 8 1 21 7
M  V30 9 1 22 7
M  V30 10 1 23 5
M  V30 11 1 23 18
M  V30 12 1 24 4
M  V30 13 1 26 22
M  V30 14 2 28 25
M  V30 15 1 29 12
M  V30 16 1 29 16
M  V30 17 1 29 17
M  V30 18 1 30 4
M  V30 19 1 30 12
M  V30 20 2 31 13
M  V30 21 1 31 15
M  V30 22 1 31 26
M  V30 23 2 32 22
M  V30 24 1 34 5
M  V30 25 1 35 1
M  V30 26 1 35 24
M  V30 27 1 35 27
M  V30 28 1 36 6
M  V30 29 1 37 10
M  V30 30 1 38 36
M  V30 31 1 38 37
M  V30 32 1 40 17
M  V30 33 1 40 19
M  V30 34 1 41 6
M  V30 35 1 41 11
M  V30 36 1 42 10
M  V30 37 1 43 8
M  V30 38 1 43 39
M  V30 39 1 44 23
M  V30 40 1 44 28
M  V30 41 2 44 33
M  V30 42 1 45 30
M  V30 43 1 45 37
M  V30 44 1 45 40
M  V30 45 1 46 28
M  V30 46 1 46 34
M  V30 47 1 46 43
M  V30 48 1 47 1
M  V30 49 1 47 9
M  V30 50 1 47 15
M  V30 51 1 48 20
M  V30 52 1 48 27
M  V30 53 1 49 10
M  V30 54 1 49 42
M  V30 55 1 50 1
M  V30 56 1 51 1
M  V30 57 1 52 2
M  V30 58 1 53 2
M  V30 59 1 54 3
M  V30 60 1 55 3
M  V30 61 1 56 4
M  V30 62 1 57 4
M  V30 63 1 58 5
M  V30 64 1 59 5
M  V30 65 1 6 60 CFG=3
M  V30 66 1 7 61 CFG=3
M  V30 67 1 62 8
M  V30 68 1 63 8
M  V30 69 1 10 64 CFG=3
M  V30 70 1 65 11
M  V30 71 1 66 11
M  V30 72 1 12 67 CFG=1
M  V30 73 1 14 68 CFG=3
M  V30 74 1 69 15
M  V30 75 1 70 15
M  V30 76 1 71 17
M  V30 77 1 72 17
M  V30 78 1 73 18
M  V30 79 1 74 18
M  V30 80 1 75 18
M  V30 81 1 76 20
M  V30 82 1 77 20
M  V30 83 1 78 21
M  V30 84 1 79 21
M  V30 85 1 80 21
M  V30 86 1 23 81 CFG=3
M  V30 87 1 82 24
M  V30 88 1 83 24
M  V30 89 1 84 27
M  V30 90 1 85 27
M  V30 91 1 29 86 CFG=1
M  V30 92 1 30 87 CFG=3
M  V30 93 1 88 34
M  V30 94 1 89 34
M  V30 95 1 35 90 CFG=1
M  V30 96 1 91 36
M  V30 97 1 92 36
M  V30 98 1 37 93 CFG=1
M  V30 99 1 94 38
M  V30 100 1 95 38
M  V30 101 1 96 39
M  V30 102 1 97 39
M  V30 103 1 98 39
M  V30 104 1 40 99 CFG=1
M  V30 105 1 100 41
M  V30 106 1 101 41
M  V30 107 1 43 102 CFG=1
M  V30 108 1 45 103 CFG=3
M  V30 109 1 47 104 CFG=1
M  V30 110 1 105 48
M  V30 111 1 106 48
M  V30 112 1 107 49
M  V30 113 1 108 49
M  V30 114 1 109 11
M  V30 END BOND
M  V30 END CTAB
M  END
>  <i_epik_Tot_Q>  (1) 
1

>  <i_epik_Tot_abs_Q>  (1) 
1

>  <i_i_glide_confnum>  (1) 
339

>  <i_i_glide_lignum>  (1) 
88

>  <i_i_glide_posenum>  (1) 
120

>  <i_i_glide_rotatable_bonds>  (1) 
6

>  <i_lp_mmshare_version>  (1) 
72125

>  <i_m_source_file_index>  (1) 
35

>  <i_f3d_flags>  (1) 
0

>  <num_sample>  (1) 
50

>  <b_lp_Chiralities_Consistent>  (1) 
1

>  <r_epik_Charging_Adjusted_Penalty>  (1) 
0.0091647518509246212

>  <r_epik_Ionization_Penalty>  (1) 
0.0045823761218381463

>  <r_epik_Ionization_Penalty_Charging>  (1) 
0.0045823759254623037

>  <r_epik_Ionization_Penalty_Neutral>  (1) 
1.9637584269267853e-10

>  <r_epik_State_Penalty>  (1) 
0.0045823759254623184

>  <r_glide_ring_energy>  (1) 
0

>  <r_i_docking_score>  (1) 
-4.2371085970619111

>  <r_i_glide_ecoul>  (1) 
-2.7383282568942393

>  <r_i_glide_eff_state_penalty>  (1) 
0.0045823759254623184

>  <r_i_glide_einternal>  (1) 
23.318515400008717

>  <r_i_glide_emodel>  (1) 
-23.431847201540215

>  <r_i_glide_emodel_strain>  (1) 
2.217176762437802

>  <r_i_glide_energy>  (1) 
-35.295225534921769

>  <r_i_glide_erotb>  (1) 
0.051949520036259446

>  <r_i_glide_esite>  (1) 
-0.13514127175206658

>  <r_i_glide_evdw>  (1) 
-32.556897278027527

>  <r_i_glide_gscore>  (1) 
-4.2416909729873735

>  <r_i_glide_gscore_strain>  (1) 
0

>  <r_i_glide_hbond>  (1) 
0

>  <r_i_glide_ligand_efficiency>  (1) 
-0.086471604021671658

>  <r_i_glide_ligand_efficiency_ln>  (1) 
-0.86616194766974863

>  <r_i_glide_ligand_efficiency_sa>  (1) 
-0.31642603435134847

>  <r_i_glide_lipo>  (1) 
-1.7615225536794183

>  <r_i_glide_metal>  (1) 
-0

>  <r_i_glide_rewards>  (1) 
-0.35838256515663575

>  <r_lp_Energy>  (1) 
80.647393999999991

>  <r_lp_tautomer_probability>  (1) 
0.99995000000000001

>  <s_epik_cmdline>  (1) 
J2VwaWtfcHl0aG9uJywgJy1waHQnLCAnMS4wJywgJy1waCcsICc3LjQnLCAnLXRuJywgJzgnLCAnLW1hJywgJzUwMCcsICctaW1hZScsICc8aW5maWxlLm1hZT4nLCAnLW9tYWUnLCAnPG91dGZpbGUubWFlPic=

>  <s_epik_input>  (1) 
W0NIMl0xT1tDQEBIXTFbQ0BIXTJbQ0gyXVtDSDJdW0NASF0oW0NIMl1bTkgyXSlPW0NASF0oW0NIMl1bQ0BASF0zRilbQ0BIXTJbQ0BIXShbQ0BIXTM0KVtDSDJdW0NIMl1bQ0BASF01W0NIMl1bQ0BIXShPNClbQ0gyXUMoPU8pT0MoPU8pW0NAQEhdKFtDSDNdKVtDSDJdW0NASF0oW0NIMl1bQ0gyXVtDSDJdNSlbQ0gyXVtDSDJdW0NAQEhdKFtDSDNdKU4oQyg9TylDNj1PKVtDSDJdW0NIMl1bQ0BASF02W0NIM10=

>  <s_glide_docking_method>  (1) 
confgen

>  <s_i_glide_gridfile>  (1) 
gpcr_drd2_6luq_protein_autoprepared_prepared

>  <s_lp_Force_Field>  (1) 
S-OPLS

>  <s_lp_Variant>  (1) 
DiffSBDD_34_num_sample_50-2

>  <s_m_source_file>  (1) 
generated__ligand_DiffSBDD_2026-05-06_prepared.sdf

>  <GenAI_Model>  (1) 
DiffSBDD

>  <Protein>  (1) 
generic_title2

$$$$
DiffSBDD_31_num_sample_50
     RDKit          3D

  0  0  0  0  0  0  0  0  0  0999 V3000
M  V30 BEGIN CTAB
M  V30 COUNTS 71 76 0 0 1
M  V30 BEGIN ATOM
M  V30 1 C 5.675673 4.303992 -20.272815 0
M  V30 2 C 7.676872 4.548516 -18.288937 0
M  V30 3 C 8.763682 5.301530 -7.925644 0
M  V30 4 C 8.167498 4.232464 -10.916610 0
M  V30 5 C 8.883054 6.622130 -10.691116 0
M  V30 6 C 7.527185 6.190979 -14.131292 0
M  V30 7 C 10.775177 7.857116 -9.681958 0 CFG=2
M  V30 8 C 9.907170 5.609883 -17.463385 0
M  V30 9 F 4.713183 4.186535 -21.218769 0
M  V30 10 C 6.333390 3.158142 -19.791836 0
M  V30 11 C 8.738092 4.679611 -17.218540 0
M  V30 12 C 6.564074 6.024001 -11.768791 0
M  V30 13 C 6.801401 3.166472 -14.272925 0
M  V30 14 C 7.786954 3.283182 -15.444483 0
M  V30 15 C 7.286872 5.715330 -15.566098 0
M  V30 16 C 7.330968 3.278528 -18.804927 0
M  V30 17 F 10.152572 8.969296 -9.891670 0
M  V30 18 C 6.018699 5.572144 -19.772597 0
M  V30 19 C 7.015258 5.696010 -18.786184 0
M  V30 20 C 9.646452 6.220157 -8.307686 0
M  V30 21 N 8.219180 4.628858 -15.848233 0
M  V30 22 C 8.346998 3.722085 -12.350955 0
M  V30 23 C 11.932069 7.599347 -10.663723 0
M  V30 24 C 7.707383 5.675507 -10.780166 0 CFG=1
M  V30 25 O 11.574802 6.969305 -11.891632 0
M  V30 26 C 10.124379 4.117054 -17.449941 0
M  V30 27 C 5.625948 7.224915 -11.746043 0
M  V30 28 C 9.717012 6.841496 -9.605821 0
M  V30 29 C 11.192309 7.947715 -8.147831 0 CFG=2
M  V30 30 O 12.558316 8.222788 -7.906909 0
M  V30 31 C 5.198245 5.931280 -11.114820 0
M  V30 32 C 6.692215 5.379236 -13.141983 0 CFG=2
M  V30 33 N 7.074477 3.953546 -13.049404 0 CFG=1 CHG=1
M  V30 34 C 10.667430 6.711231 -7.339400 0
M  V30 35 H 8.807140 4.969334 -6.938161 0
M  V30 36 H 8.020545 4.889003 -8.535144 0
M  V30 37 H 9.063611 4.024255 -10.330978 0
M  V30 38 H 7.319331 3.769307 -10.433132 0
M  V30 39 H 9.058678 7.201040 -11.585206 0
M  V30 40 H 8.587091 6.176351 -13.873799 0
M  V30 41 H 7.219111 7.235841 -14.071851 0
M  V30 42 H 9.964802 6.116118 -18.423604 0
M  V30 43 H 10.300877 6.168896 -16.617449 0
M  V30 44 H 6.070143 2.184064 -20.177943 0
M  V30 45 H 6.707363 2.116241 -13.992066 0
M  V30 46 H 5.834828 3.473342 -14.633862 0
M  V30 47 H 8.634840 2.648999 -15.248982 0
M  V30 48 H 7.286316 2.801167 -16.280358 0
M  V30 49 H 7.453063 6.566286 -16.219204 0
M  V30 50 H 6.253594 5.418948 -15.758271 0
M  V30 51 H 7.832183 2.394369 -18.437776 0
M  V30 52 H 5.515646 6.452692 -20.143304 0
M  V30 53 H 7.273036 6.673094 -18.406065 0
M  V30 54 H 9.181519 4.212361 -12.853419 0
M  V30 55 H 8.571934 2.653948 -12.330659 0
M  V30 56 H 12.634804 6.969207 -10.141908 0
M  V30 57 H 12.486563 8.517923 -10.853041 0
M  V30 58 H 7.155888 5.769289 -9.867854 0
M  V30 59 H 11.058066 6.198536 -11.707870 0
M  V30 60 H 10.676018 3.723196 -16.599246 0
M  V30 61 H 10.320148 3.626419 -18.399803 0
M  V30 62 H 5.834787 8.064888 -11.092001 0
M  V30 63 H 5.098684 7.500362 -12.657121 0
M  V30 64 H 10.660270 8.801150 -7.720549 0
M  V30 65 H 12.779826 9.044643 -8.318389 0
M  V30 66 H 4.634839 5.155021 -11.603675 0
M  V30 67 H 5.066108 5.980416 -10.035960 0
M  V30 68 H 5.682873 5.383596 -13.557252 0
M  V30 69 H 10.239764 6.983574 -6.373227 0
M  V30 70 H 11.433768 5.949148 -7.194847 0
M  V30 71 H 6.393865 3.585104 -12.398683 0
M  V30 END ATOM
M  V30 BEGIN BOND
M  V30 1 1 9 1
M  V30 2 1 10 1
M  V30 3 1 11 2
M  V30 4 1 11 8
M  V30 5 1 14 13
M  V30 6 1 15 6
M  V30 7 1 16 2
M  V30 8 2 16 10
M  V30 9 1 7 17 CFG=3
M  V30 10 2 18 1
M  V30 11 2 19 2
M  V30 12 1 19 18
M  V30 13 2 20 3
M  V30 14 1 21 11
M  V30 15 1 21 14
M  V30 16 1 21 15
M  V30 17 1 22 4
M  V30 18 1 23 7
M  V30 19 1 24 4
M  V30 20 1 24 5
M  V30 21 1 24 12
M  V30 22 1 25 23
M  V30 23 1 26 8
M  V30 24 1 26 11
M  V30 25 1 27 12
M  V30 26 2 28 5
M  V30 27 1 28 7
M  V30 28 1 28 20
M  V30 29 1 29 7
M  V30 30 1 30 29
M  V30 31 1 31 12
M  V30 32 1 31 27
M  V30 33 1 32 6
M  V30 34 1 32 12
M  V30 35 1 33 13
M  V30 36 1 33 22
M  V30 37 1 33 32
M  V30 38 1 34 20
M  V30 39 1 34 29
M  V30 40 1 35 3
M  V30 41 1 36 3
M  V30 42 1 37 4
M  V30 43 1 38 4
M  V30 44 1 39 5
M  V30 45 1 40 6
M  V30 46 1 41 6
M  V30 47 1 42 8
M  V30 48 1 43 8
M  V30 49 1 44 10
M  V30 50 1 45 13
M  V30 51 1 46 13
M  V30 52 1 47 14
M  V30 53 1 48 14
M  V30 54 1 49 15
M  V30 55 1 50 15
M  V30 56 1 51 16
M  V30 57 1 52 18
M  V30 58 1 53 19
M  V30 59 1 54 22
M  V30 60 1 55 22
M  V30 61 1 56 23
M  V30 62 1 57 23
M  V30 63 1 24 58 CFG=1
M  V30 64 1 59 25
M  V30 65 1 60 26
M  V30 66 1 61 26
M  V30 67 1 62 27
M  V30 68 1 63 27
M  V30 69 1 29 64 CFG=1
M  V30 70 1 65 30
M  V30 71 1 66 31
M  V30 72 1 67 31
M  V30 73 1 32 68 CFG=3
M  V30 74 1 69 34
M  V30 75 1 70 34
M  V30 76 1 33 71 CFG=1
M  V30 END BOND
M  V30 END CTAB
M  END
>  <i_epik_Tot_Q>  (1) 
1

>  <i_epik_Tot_abs_Q>  (1) 
1

>  <i_i_glide_confnum>  (1) 
220

>  <i_i_glide_lignum>  (1) 
80

>  <i_i_glide_posenum>  (1) 
230

>  <i_i_glide_rotatable_bonds>  (1) 
6

>  <i_lp_mmshare_version>  (1) 
72125

>  <i_m_source_file_index>  (1) 
32

>  <i_f3d_flags>  (1) 
0

>  <num_sample>  (1) 
50

>  <b_lp_Chiralities_Consistent>  (1) 
1

>  <r_epik_Charging_Adjusted_Penalty>  (1) 
0.0036996964664751512

>  <r_epik_Ionization_Penalty>  (1) 
0.0040620325304727405

>  <r_epik_Ionization_Penalty_Charging>  (1) 
0.0036996964664751512

>  <r_epik_Ionization_Penalty_Neutral>  (1) 
0.00036233606399758918

>  <r_epik_State_Penalty>  (1) 
-0

>  <r_glide_ring_energy>  (1) 
0

>  <r_i_docking_score>  (1) 
-4.2322182787154166

>  <r_i_glide_ecoul>  (1) 
-3.0089276610165299

>  <r_i_glide_eff_state_penalty>  (1) 
-0

>  <r_i_glide_einternal>  (1) 
0.52360043710097237

>  <r_i_glide_emodel>  (1) 
-53.351161803655351

>  <r_i_glide_emodel_strain>  (1) 
3.832681662156773

>  <r_i_glide_energy>  (1) 
-23.369101384775206

>  <r_i_glide_erotb>  (1) 
0.36352394052346937

>  <r_i_glide_esite>  (1) 
-0.038268686575163913

>  <r_i_glide_evdw>  (1) 
-20.360173723758678

>  <r_i_glide_gscore>  (1) 
-4.2322182787154166

>  <r_i_glide_gscore_strain>  (1) 
0

>  <r_i_glide_hbond>  (1) 
0

>  <r_i_glide_ligand_efficiency>  (1) 
-0.12447700819751226

>  <r_i_glide_ligand_efficiency_ln>  (1) 
-0.93501572746998796

>  <r_i_glide_ligand_efficiency_sa>  (1) 
-0.40325718474437477

>  <r_i_glide_lipo>  (1) 
-1.8707438518669386

>  <r_i_glide_metal>  (1) 
-0

>  <r_i_glide_rewards>  (1) 
-1.2173818454563701

>  <r_lp_Energy>  (1) 
33.989857000000001

>  <r_lp_tautomer_probability>  (1) 
1

>  <s_epik_cmdline>  (1) 
J2VwaWtfcHl0aG9uJywgJy1waHQnLCAnMS4wJywgJy1waCcsICc3LjQnLCAnLXRuJywgJzgnLCAnLW1hJywgJzUwMCcsICctaW1hZScsICc8aW5maWxlLm1hZT4nLCAnLW9tYWUnLCAnPG91dGZpbGUubWFlPic=

>  <s_epik_input>  (1) 
RmMxW2NIXVtjSF1jKFtjSF1bY0hdMSlDMihbQ0gyXVtDSDJdMilOKFtDSDJdW0NIMl0zKVtDSDJdW0NIMl1OKFtDQEhdM0M0NVtDSDJdW0NIMl01KVtDSDJdW0NIMl1bQ0BIXTQvW0NIXT1DKC9bQ0BdNihGKVtDSDJdW09IXSlDKD1bQ0gyXSlbQ0gyXVtDQEhdNltPSF0=

>  <s_glide_docking_method>  (1) 
confgen

>  <s_i_glide_gridfile>  (1) 
gpcr_drd2_6luq_protein_autoprepared_prepared

>  <s_lp_Force_Field>  (1) 
S-OPLS

>  <s_lp_Variant>  (1) 
DiffSBDD_31_num_sample_50-3

>  <s_m_source_file>  (1) 
generated__ligand_DiffSBDD_2026-05-06_prepared.sdf

>  <GenAI_Model>  (1) 
DiffSBDD

>  <Protein>  (1) 
generic_title2

$$$$
DiffSBDD_10_num_sample_50
     RDKit          3D

  0  0  0  0  0  0  0  0  0  0999 V3000
M  V30 BEGIN CTAB
M  V30 COUNTS 71 72 0 0 1
M  V30 BEGIN ATOM
M  V30 1 C 7.651047 4.749841 -18.340583 0 CFG=2
M  V30 2 C 11.365217 6.705069 -6.961215 0
M  V30 3 C 8.575007 5.354153 -9.355909 0
M  V30 4 C 6.811458 4.401039 -12.434700 0 CFG=1
M  V30 5 C 7.618431 3.850578 -17.098923 0 CFG=2
M  V30 6 N 9.034860 7.210718 -7.040878 0
M  V30 7 N 8.356047 4.045073 -14.199220 0
M  V30 8 C 7.050764 4.092381 -14.751430 0 CFG=1
M  V30 9 S 7.615798 3.914835 -20.018200 0
M  V30 10 C 11.430825 6.555951 -5.456155 0
M  V30 11 S 5.692244 3.030080 -19.956591 0 CHG=-1
M  V30 12 C 5.611692 6.275910 -18.678541 0
M  V30 13 O 12.869991 8.569002 -1.489241 0
M  V30 14 O 7.583591 4.950762 -21.062573 0
M  V30 15 C 8.934582 4.405759 -17.599959 0 CFG=2
M  V30 16 C 9.408777 6.902060 -11.309381 0
M  V30 17 C 8.181043 3.761572 -12.794860 0 CFG=2
M  V30 18 N 12.233746 7.691979 -3.463548 0
M  V30 19 N 10.242854 7.119896 -9.031004 0
M  V30 20 C 11.619156 7.908517 -4.763815 0
M  V30 21 C 6.401399 6.433673 -14.048657 0
M  V30 22 C 7.109325 6.174967 -18.368754 0
M  V30 23 C 7.337648 2.350147 -17.090120 0
M  V30 24 C 6.794592 5.395315 -11.245615 0
M  V30 25 C 9.449630 6.504333 -9.835882 0
M  V30 26 O 9.440362 5.366048 -16.697214 0
M  V30 27 C 10.249077 6.995808 -7.635281 0
M  V30 28 O 8.611845 2.833690 -20.085940 0
M  V30 29 F 8.123013 2.435742 -12.691674 0
M  V30 30 N 8.782247 8.199380 -11.492106 0
M  V30 31 C 12.379197 8.940896 -2.750754 0
M  V30 32 C 6.222123 4.922762 -13.773078 0 CFG=2
M  V30 33 O 7.015798 4.616746 -16.038677 0
M  V30 34 C 7.449816 4.873267 -9.968941 0
M  V30 35 H 12.277811 6.569192 -7.491110 0
M  V30 36 H 8.901120 4.900753 -8.431588 0
M  V30 37 H 6.170673 3.572465 -12.126581 0
M  V30 38 H 8.896533 7.057795 -6.053307 0
M  V30 39 H 8.918848 3.322834 -14.619947 0
M  V30 40 H 6.637880 3.082877 -14.768845 0
M  V30 41 H 12.234009 5.858136 -5.229157 0
M  V30 42 H 10.522555 6.082782 -5.082402 0
M  V30 43 H 5.260606 7.301569 -18.564788 0
M  V30 44 H 5.389990 5.962760 -19.698406 0
M  V30 45 H 5.037116 5.647161 -17.998540 0
M  V30 46 H 13.431446 9.271815 -1.184695 0
M  V30 47 H 9.682129 3.735338 -18.017915 0
M  V30 48 H 10.441100 7.005681 -11.645954 0
M  V30 49 H 9.007944 6.139948 -11.962152 0
M  V30 50 H 9.025125 4.093344 -12.192010 0
M  V30 51 H 11.689176 7.044657 -2.910964 0
M  V30 52 H 10.652400 8.406208 -4.691227 0
M  V30 53 H 12.239714 8.570825 -5.362376 0
M  V30 54 H 7.446861 6.735480 -13.982100 0
M  V30 55 H 6.044363 6.701359 -15.043364 0
M  V30 56 H 5.832743 7.037606 -13.341616 0
M  V30 57 H 7.276413 6.613675 -17.391023 0
M  V30 58 H 7.687559 6.764827 -19.078990 0
M  V30 59 H 7.745671 1.861774 -17.971559 0
M  V30 60 H 7.797757 1.875199 -16.224414 0
M  V30 61 H 6.265282 2.159117 -17.068430 0
M  V30 62 H 5.745737 5.516371 -10.968607 0
M  V30 63 H 7.040842 6.411260 -11.502337 0
M  V30 64 H 8.803304 5.437587 -15.995206 0
M  V30 65 H 7.914989 8.170232 -10.948812 0
M  V30 66 H 9.348102 8.877080 -11.005436 0
M  V30 67 H 11.433768 9.472212 -2.645698 0
M  V30 68 H 13.091643 9.591739 -3.259141 0
M  V30 69 H 5.169289 4.659061 -13.876203 0
M  V30 70 H 6.943126 4.039104 -9.508420 0
M  V30 71 H 8.184304 7.340261 -7.591368 0
M  V30 END ATOM
M  V30 BEGIN BOND
M  V30 1 1 5 1
M  V30 2 1 8 7
M  V30 3 1 9 1
M  V30 4 1 10 2
M  V30 5 1 11 9
M  V30 6 2 14 9
M  V30 7 1 15 1
M  V30 8 1 15 5
M  V30 9 1 17 4
M  V30 10 1 17 7
M  V30 11 1 20 10
M  V30 12 1 20 18
M  V30 13 1 1 22 CFG=1
M  V30 14 1 22 12
M  V30 15 1 23 5
M  V30 16 1 24 4
M  V30 17 1 25 3
M  V30 18 1 25 16
M  V30 19 2 25 19
M  V30 20 1 26 15
M  V30 21 2 27 2
M  V30 22 1 27 6
M  V30 23 1 27 19
M  V30 24 2 28 9
M  V30 25 1 29 17
M  V30 26 1 30 16
M  V30 27 1 31 13
M  V30 28 1 31 18
M  V30 29 1 32 4
M  V30 30 1 32 8
M  V30 31 1 32 21
M  V30 32 1 5 33 CFG=1
M  V30 33 1 33 8
M  V30 34 2 34 3
M  V30 35 1 34 24
M  V30 36 1 35 2
M  V30 37 1 36 3
M  V30 38 1 4 37 CFG=1
M  V30 39 1 38 6
M  V30 40 1 39 7
M  V30 41 1 8 40 CFG=3
M  V30 42 1 41 10
M  V30 43 1 42 10
M  V30 44 1 43 12
M  V30 45 1 44 12
M  V30 46 1 45 12
M  V30 47 1 46 13
M  V30 48 1 15 47 CFG=3
M  V30 49 1 48 16
M  V30 50 1 49 16
M  V30 51 1 17 50 CFG=1
M  V30 52 1 51 18
M  V30 53 1 52 20
M  V30 54 1 53 20
M  V30 55 1 54 21
M  V30 56 1 55 21
M  V30 57 1 56 21
M  V30 58 1 57 22
M  V30 59 1 58 22
M  V30 60 1 59 23
M  V30 61 1 60 23
M  V30 62 1 61 23
M  V30 63 1 62 24
M  V30 64 1 63 24
M  V30 65 1 64 26
M  V30 66 1 65 30
M  V30 67 1 66 30
M  V30 68 1 67 31
M  V30 69 1 68 31
M  V30 70 1 32 69 CFG=1
M  V30 71 1 70 34
M  V30 72 1 71 6
M  V30 END BOND
M  V30 END CTAB
M  END
>  <i_epik_Tot_Q>  (1) 
-1

>  <i_epik_Tot_abs_Q>  (1) 
1

>  <i_i_glide_confnum>  (1) 
5333

>  <i_i_glide_lignum>  (1) 
41

>  <i_i_glide_posenum>  (1) 
104

>  <i_i_glide_rotatable_bonds>  (1) 
15

>  <i_lp_mmshare_version>  (1) 
72125

>  <i_m_source_file_index>  (1) 
11

>  <i_f3d_flags>  (1) 
0

>  <num_sample>  (1) 
50

>  <b_lp_Chiralities_Consistent>  (1) 
1

>  <r_epik_Charging_Adjusted_Penalty>  (1) 
1.239197207418439

>  <r_epik_Ionization_Penalty>  (1) 
1.2496715491914541

>  <r_epik_Ionization_Penalty_Charging>  (1) 
1.1069707349969355e-11

>  <r_epik_Ionization_Penalty_Neutral>  (1) 
1.2496715491803843

>  <r_epik_State_Penalty>  (1) 
1.2391972074073692

>  <r_glide_ring_energy>  (1) 
1.5860422424224785

>  <r_i_docking_score>  (1) 
-4.2255464296456795

>  <r_i_glide_ecoul>  (1) 
-6.0204599042549862

>  <r_i_glide_eff_state_penalty>  (1) 
1.2391972074073692

>  <r_i_glide_einternal>  (1) 
9.4891224538901842

>  <r_i_glide_emodel>  (1) 
-48.902403798397557

>  <r_i_glide_emodel_strain>  (1) 
3.5723720675338768

>  <r_i_glide_energy>  (1) 
-43.294623318385817

>  <r_i_glide_erotb>  (1) 
0.82803537691766171

>  <r_i_glide_esite>  (1) 
-0.18737997452715494

>  <r_i_glide_evdw>  (1) 
-37.274163414130832

>  <r_i_glide_gscore>  (1) 
-5.4647436370530489

>  <r_i_glide_gscore_strain>  (1) 
0

>  <r_i_glide_hbond>  (1) 
-0.61398222669270841

>  <r_i_glide_ligand_efficiency>  (1) 
-0.12428077734251998

>  <r_i_glide_ligand_efficiency_ln>  (1) 
-0.93354172887145548

>  <r_i_glide_ligand_efficiency_sa>  (1) 
-0.40262147295076706

>  <r_i_glide_lipo>  (1) 
-1.7381239529117507

>  <r_i_glide_metal>  (1) 
-0

>  <r_i_glide_rewards>  (1) 
-0.98651570349430595

>  <r_lp_Energy>  (1) 
23.213093000000001

>  <s_epik_Chemistry_Notes>  (1) 
This compound has an imine and may undergo hydrolysis. This compound contains an acetal/aminal-like group ( X-CH(R)-Y where X, Y are N, S, or O) that may be acid/base labile, releasing an aldehyde.

>  <s_epik_cmdline>  (1) 
J2VwaWtfcHl0aG9uJywgJy1waHQnLCAnMS4wJywgJy1waCcsICc3LjQnLCAnLXRuJywgJzgnLCAnLW1hJywgJzUwMCcsICctaW1hZScsICc8aW5maWxlLm1hZT4nLCAnLW9tYWUnLCAnPG91dGZpbGUubWFlPic=

>  <s_epik_input>  (1) 
W1NIXVMoPU8pKD1PKVtDQEBdMShbQ0gyXVtDSDNdKVtDQEBdKFtDSDNdKShbQ0BASF0xW09IXSlPW0NASF0oW0NAQEhdMltDSDNdKVtOSF1bQ0BASF0oRilbQ0BIXTJbQ0gyXS9bQ0hdPVtDSF1cQyhbQ0gyXVtOSDJdKT1OL0MoPU4vW0hdKS9bQ0gyXVtDSDJdW0NIMl1bTkhdW0NIMl1bT0hd

>  <s_glide_docking_method>  (1) 
confgen

>  <s_i_glide_gridfile>  (1) 
gpcr_drd2_6luq_protein_autoprepared_prepared

>  <s_lp_Force_Field>  (1) 
S-OPLS

>  <s_lp_Variant>  (1) 
DiffSBDD_10_num_sample_50-21

>  <s_m_source_file>  (1) 
generated__ligand_DiffSBDD_2026-05-06_prepared.sdf

>  <GenAI_Model>  (1) 
DiffSBDD

>  <Protein>  (1) 
generic_title2

$$$$
DiffSBDD_9_num_sample_50
     RDKit          3D

  0  0  0  0  0  0  0  0  0  0999 V3000
M  V30 BEGIN CTAB
M  V30 COUNTS 38 40 0 0 1
M  V30 BEGIN ATOM
M  V30 1 C 7.216408 4.435547 -17.620119 0 CFG=2
M  V30 2 F 5.554563 4.287758 -20.292287 0
M  V30 3 C 8.184228 7.246368 -12.291666 0
M  V30 4 C 7.134113 2.527999 -15.969578 0
M  V30 5 C 9.788699 6.656510 -10.407703 0
M  V30 6 C 7.976752 4.565598 -13.046444 0
M  V30 7 C 8.807768 4.897610 -11.959199 0
M  V30 8 F 5.109624 5.934854 -18.951472 0
M  V30 9 F 8.011664 5.520560 -20.875852 0
M  V30 10 C 7.993816 3.279571 -16.987686 0
M  V30 11 C 8.911933 6.257460 -11.576065 0
M  V30 12 O 7.921926 4.803391 -18.800251 0
M  V30 13 C 7.735179 3.282976 -13.558721 0
M  V30 14 F 7.645887 6.961110 -19.298137 0
M  V30 15 C 7.379342 5.689794 -19.687829 0
M  V30 16 C 6.736386 3.349286 -14.719401 0 CFG=1
M  V30 17 C 7.364799 6.863546 -13.379803 0
M  V30 18 C 5.860330 5.549350 -19.984317 0
M  V30 19 C 6.450998 4.964339 -14.879977 0 CFG=1
M  V30 20 C 7.289596 5.503195 -13.726995 0
M  V30 21 F 5.535004 6.321621 -21.022081 0
M  V30 22 C 8.286101 2.152174 -13.091667 0
M  V30 23 S 7.034851 5.769298 -16.409724 0
M  V30 24 H 6.234841 4.061686 -17.893075 0
M  V30 25 H 8.254586 8.285636 -12.005504 0
M  V30 26 H 6.235407 2.169299 -16.470638 0
M  V30 27 H 7.652823 1.615941 -15.678359 0
M  V30 28 H 10.771958 6.969282 -10.759357 0
M  V30 29 H 9.906155 5.827326 -9.709618 0
M  V30 30 H 9.342391 7.488098 -9.861513 0
M  V30 31 H 9.350914 4.133632 -11.423450 0
M  V30 32 H 8.918317 3.635876 -16.530800 0
M  V30 33 H 8.289176 2.577624 -17.768517 0
M  V30 34 H 5.844981 2.907877 -14.274892 0
M  V30 35 H 6.807824 7.603794 -13.934482 0
M  V30 36 H 5.400082 5.197924 -14.716654 0
M  V30 37 H 8.982933 2.169305 -12.271149 0
M  V30 38 H 8.048033 1.194164 -13.528012 0
M  V30 END ATOM
M  V30 BEGIN BOND
M  V30 1 1 7 6
M  V30 2 1 10 1
M  V30 3 1 10 4
M  V30 4 1 11 3
M  V30 5 1 11 5
M  V30 6 2 11 7
M  V30 7 1 12 1
M  V30 8 1 13 6
M  V30 9 1 15 9
M  V30 10 1 15 12
M  V30 11 1 15 14
M  V30 12 1 16 4
M  V30 13 1 16 13
M  V30 14 2 17 3
M  V30 15 1 18 2
M  V30 16 1 18 8
M  V30 17 1 18 15
M  V30 18 1 19 16
M  V30 19 2 20 6
M  V30 20 1 20 17
M  V30 21 1 20 19
M  V30 22 1 21 18
M  V30 23 2 22 13
M  V30 24 1 23 1
M  V30 25 1 23 19
M  V30 26 1 1 24 CFG=3
M  V30 27 1 25 3
M  V30 28 1 26 4
M  V30 29 1 27 4
M  V30 30 1 28 5
M  V30 31 1 29 5
M  V30 32 1 30 5
M  V30 33 1 31 7
M  V30 34 1 32 10
M  V30 35 1 33 10
M  V30 36 1 16 34 CFG=1
M  V30 37 1 35 17
M  V30 38 1 19 36 CFG=1
M  V30 39 1 37 22
M  V30 40 1 38 22
M  V30 END BOND
M  V30 END CTAB
M  END
>  <i_epik_Tot_Q>  (1) 
0

>  <i_epik_Tot_abs_Q>  (1) 
0

>  <i_i_glide_confnum>  (1) 
9

>  <i_i_glide_lignum>  (1) 
20

>  <i_i_glide_posenum>  (1) 
201

>  <i_i_glide_rotatable_bonds>  (1) 
3

>  <i_lp_mmshare_version>  (1) 
72125

>  <i_m_source_file_index>  (1) 
10

>  <i_f3d_flags>  (1) 
0

>  <num_sample>  (1) 
50

>  <b_lp_Chiralities_Consistent>  (1) 
1

>  <r_epik_Charging_Adjusted_Penalty>  (1) 
0

>  <r_epik_Ionization_Penalty>  (1) 
0

>  <r_epik_Ionization_Penalty_Charging>  (1) 
0

>  <r_epik_Ionization_Penalty_Neutral>  (1) 
0

>  <r_epik_State_Penalty>  (1) 
-0

>  <r_glide_ring_energy>  (1) 
0

>  <r_i_docking_score>  (1) 
-4.2206362467737639

>  <r_i_glide_ecoul>  (1) 
-0.27197486338644072

>  <r_i_glide_eff_state_penalty>  (1) 
-0

>  <r_i_glide_einternal>  (1) 
0.090777468389315885

>  <r_i_glide_emodel>  (1) 
-25.732050228709724

>  <r_i_glide_emodel_strain>  (1) 
0

>  <r_i_glide_energy>  (1) 
-19.873638563340489

>  <r_i_glide_erotb>  (1) 
0.31055348549958028

>  <r_i_glide_esite>  (1) 
0

>  <r_i_glide_evdw>  (1) 
-19.601663699954049

>  <r_i_glide_gscore>  (1) 
-4.2206362467737639

>  <r_i_glide_gscore_strain>  (1) 
0

>  <r_i_glide_hbond>  (1) 
0

>  <r_i_glide_ligand_efficiency>  (1) 
-0.18350592377277233

>  <r_i_glide_ligand_efficiency_ln>  (1) 
-1.0205881150834797

>  <r_i_glide_ligand_efficiency_sa>  (1) 
-0.52186643722454573

>  <r_i_glide_lipo>  (1) 
-1.4136359793998901

>  <r_i_glide_metal>  (1) 
-0

>  <r_i_glide_rewards>  (1) 
-2.0966743383677855

>  <r_lp_Energy>  (1) 
13.417608

>  <r_lp_tautomer_probability>  (1) 
1

>  <s_epik_Chemistry_Notes>  (1) 
This compound contains an acetal/aminal-like group ( X-CH(R)-Y where X, Y are N, S, or O) that may be acid/base labile, releasing an aldehyde.

>  <s_epik_cmdline>  (1) 
J2VwaWtfcHl0aG9uJywgJy1waHQnLCAnMS4wJywgJy1waCcsICc3LjQnLCAnLXRuJywgJzgnLCAnLW1hJywgJzUwMCcsICctaW1hZScsICc8aW5maWxlLm1hZT4nLCAnLW9tYWUnLCAnPG91dGZpbGUubWFlPic=

>  <s_epik_input>  (1) 
RkMoRikoRilDKEYpKEYpT1tDQEhdKFMxKVtDSDJdW0NIMl1bQ0BASF0oQzI9W0NIMl0pW0NASF0xYyhjMjMpW2NIXVtjSF1jKFtDSDNdKVtjSF0z

>  <s_glide_docking_method>  (1) 
confgen

>  <s_i_glide_gridfile>  (1) 
gpcr_drd2_6luq_protein_autoprepared_prepared

>  <s_lp_Force_Field>  (1) 
S-OPLS

>  <s_lp_Variant>  (1) 
DiffSBDD_9_num_sample_50-1

>  <s_m_source_file>  (1) 
generated__ligand_DiffSBDD_2026-05-06_prepared.sdf

>  <GenAI_Model>  (1) 
DiffSBDD

>  <Protein>  (1) 
generic_title2

$$$$
DiffSBDD_33_num_sample_50
     RDKit          3D

  0  0  0  0  0  0  0  0  0  0999 V3000
M  V30 BEGIN CTAB
M  V30 COUNTS 69 72 0 0 1
M  V30 BEGIN ATOM
M  V30 1 O 14.879744 2.143472 -17.261042 0
M  V30 2 C 12.668733 4.893698 -16.661606 0
M  V30 3 O 12.714761 0.872134 -18.433257 0
M  V30 4 C 11.333400 2.874305 -18.481011 0
M  V30 5 C 7.806882 3.167252 -13.970273 0
M  V30 6 C 9.761961 5.807387 -19.959787 0
M  V30 7 C 6.176429 6.550148 -17.592887 0
M  V30 8 C 14.862360 -0.102005 -18.122437 0
M  V30 9 N 11.790562 5.156783 -17.744529 0
M  V30 10 C 6.495268 5.207283 -18.258382 0
M  V30 11 C 7.046966 5.660965 -15.358016 0
M  V30 12 C 9.728371 4.742928 -18.880839 0
M  V30 13 N 13.783568 4.144677 -17.121999 0
M  V30 14 C 5.895583 6.383049 -16.093478 0 CFG=1
M  V30 15 N 6.579484 0.116812 -14.287163 0 CHG=1
M  V30 16 C 7.515313 4.372174 -16.054133 0
M  V30 17 C 13.870510 0.436007 -19.140964 0 CFG=2
M  V30 18 C 12.615774 2.209010 -18.100182 0
M  V30 19 C 5.555199 0.406921 -15.310923 0
M  V30 20 C 7.920450 -0.100282 -14.878224 0
M  V30 21 N 7.762360 3.281278 -15.426337 0
M  V30 22 C 7.685519 4.487008 -17.576883 0 CFG=2
M  V30 23 F 14.445027 1.356926 -19.920863 0
M  V30 24 C 5.595066 7.742259 -15.444457 0
M  V30 25 C 13.709029 2.834091 -17.517521 0
M  V30 26 O 8.854973 5.246828 -17.870346 0
M  V30 27 C 14.823242 0.779841 -16.881328 0
M  V30 28 C 6.565914 1.018745 -13.100674 0
M  V30 29 C 6.530864 2.550042 -13.363505 0
M  V30 30 C 9.201577 4.444910 -20.276761 0
M  V30 31 C 11.008542 4.196929 -18.344494 0
M  V30 32 F 10.421534 2.093480 -19.087510 0
M  V30 33 H 12.135691 4.337507 -15.891668 0
M  V30 34 H 13.007094 5.832085 -16.220824 0
M  V30 35 H 8.634838 2.524915 -13.688536 0
M  V30 36 H 8.049356 4.112740 -13.484654 0
M  V30 37 H 9.055772 6.633226 -19.887236 0
M  V30 38 H 10.726915 6.061431 -20.393936 0
M  V30 39 H 5.323375 7.015691 -18.088422 0
M  V30 40 H 7.019341 7.224634 -17.738024 0
M  V30 41 H 14.607266 -1.125085 -17.844157 0
M  V30 42 H 15.857248 -0.135723 -18.563448 0
M  V30 43 H 11.433475 6.101867 -17.764077 0
M  V30 44 H 6.711200 5.409807 -19.303704 0
M  V30 45 H 5.612971 4.569300 -18.289637 0
M  V30 46 H 6.691826 5.466313 -14.348506 0
M  V30 47 H 5.000640 5.769304 -15.993978 0
M  V30 48 H 13.578400 -0.365918 -19.819189 0
M  V30 49 H 14.671881 4.458404 -16.760674 0
M  V30 50 H 5.834839 1.283141 -15.897945 0
M  V30 51 H 5.460529 -0.435714 -15.997015 0
M  V30 52 H 4.578019 0.569236 -14.854196 0
M  V30 53 H 8.297324 0.785242 -15.381810 0
M  V30 54 H 8.640709 -0.383857 -14.113779 0
M  V30 55 H 7.893633 -0.894867 -15.623779 0
M  V30 56 H 7.784116 3.480327 -17.988004 0
M  V30 57 H 6.441297 8.423484 -15.543087 0
M  V30 58 H 4.729294 8.219193 -15.905284 0
M  V30 59 H 5.383782 7.632976 -14.380402 0
M  V30 60 H 13.931932 0.582877 -16.291674 0
M  V30 61 H 15.673660 0.569136 -16.234113 0
M  V30 62 H 7.404657 0.770125 -12.448665 0
M  V30 63 H 5.674318 0.757917 -12.528784 0
M  V30 64 H 6.412745 3.010296 -12.381665 0
M  V30 65 H 5.636838 2.861891 -13.891668 0
M  V30 66 H 9.808649 3.810750 -20.919486 0
M  V30 67 H 8.133998 4.341428 -20.434019 0
M  V30 68 H 6.310933 -0.786295 -13.910917 0
M  V30 69 H 7.907635 6.322501 -15.265235 0
M  V30 END ATOM
M  V30 BEGIN BOND
M  V30 1 1 9 2
M  V30 2 1 10 7
M  V30 3 1 12 6
M  V30 4 1 13 2
M  V30 5 1 14 7
M  V30 6 1 14 11
M  V30 7 1 16 11
M  V30 8 1 17 3
M  V30 9 1 17 8
M  V30 10 1 18 3
M  V30 11 1 18 4
M  V30 12 1 19 15
M  V30 13 1 20 15
M  V30 14 1 21 5
M  V30 15 2 21 16
M  V30 16 1 22 10
M  V30 17 1 22 16
M  V30 18 1 23 17
M  V30 19 1 24 14
M  V30 20 1 25 1
M  V30 21 1 25 13
M  V30 22 2 25 18
M  V30 23 1 26 12
M  V30 24 1 26 22
M  V30 25 1 27 1
M  V30 26 1 27 8
M  V30 27 1 28 15
M  V30 28 1 29 5
M  V30 29 1 29 28
M  V30 30 1 30 6
M  V30 31 1 30 12
M  V30 32 2 31 4
M  V30 33 1 31 9
M  V30 34 1 31 12
M  V30 35 1 32 4
M  V30 36 1 33 2
M  V30 37 1 34 2
M  V30 38 1 35 5
M  V30 39 1 36 5
M  V30 40 1 37 6
M  V30 41 1 38 6
M  V30 42 1 39 7
M  V30 43 1 40 7
M  V30 44 1 41 8
M  V30 45 1 42 8
M  V30 46 1 43 9
M  V30 47 1 44 10
M  V30 48 1 45 10
M  V30 49 1 46 11
M  V30 50 1 14 47 CFG=3
M  V30 51 1 17 48 CFG=3
M  V30 52 1 49 13
M  V30 53 1 50 19
M  V30 54 1 51 19
M  V30 55 1 52 19
M  V30 56 1 53 20
M  V30 57 1 54 20
M  V30 58 1 55 20
M  V30 59 1 22 56 CFG=3
M  V30 60 1 57 24
M  V30 61 1 58 24
M  V30 62 1 59 24
M  V30 63 1 60 27
M  V30 64 1 61 27
M  V30 65 1 62 28
M  V30 66 1 63 28
M  V30 67 1 64 29
M  V30 68 1 65 29
M  V30 69 1 66 30
M  V30 70 1 67 30
M  V30 71 1 68 15
M  V30 72 1 69 11
M  V30 END BOND
M  V30 END CTAB
M  END
>  <i_epik_Tot_Q>  (1) 
1

>  <i_epik_Tot_abs_Q>  (1) 
1

>  <i_i_glide_confnum>  (1) 
202

>  <i_i_glide_lignum>  (1) 
83

>  <i_i_glide_posenum>  (1) 
292

>  <i_i_glide_rotatable_bonds>  (1) 
7

>  <i_lp_mmshare_version>  (1) 
72125

>  <i_m_source_file_index>  (1) 
34

>  <i_f3d_flags>  (1) 
0

>  <num_sample>  (1) 
50

>  <b_lp_Chiralities_Consistent>  (1) 
1

>  <r_epik_Charging_Adjusted_Penalty>  (1) 
0.41789118993368612

>  <r_epik_Ionization_Penalty>  (1) 
0.0076682513750627552

>  <r_epik_Ionization_Penalty_Charging>  (1) 
0.0072113509810821487

>  <r_epik_Ionization_Penalty_Neutral>  (1) 
0.0004569003939806066

>  <r_epik_State_Penalty>  (1) 
0.41067983895260396

>  <r_glide_ring_energy>  (1) 
0

>  <r_i_docking_score>  (1) 
-4.2161684888158826

>  <r_i_glide_ecoul>  (1) 
-3.7880496417009186

>  <r_i_glide_eff_state_penalty>  (1) 
0.41067983895260396

>  <r_i_glide_einternal>  (1) 
8.9141949643761187

>  <r_i_glide_emodel>  (1) 
-38.889874857545998

>  <r_i_glide_emodel_strain>  (1) 
1.9174178624359968

>  <r_i_glide_energy>  (1) 
-33.150981903408834

>  <r_i_glide_erotb>  (1) 
0.58078846603177925

>  <r_i_glide_esite>  (1) 
-0.0097134841150456133

>  <r_i_glide_evdw>  (1) 
-29.362932261707918

>  <r_i_glide_gscore>  (1) 
-4.6268483277684869

>  <r_i_glide_gscore_strain>  (1) 
0

>  <r_i_glide_hbond>  (1) 
-0.074785656483182195

>  <r_i_glide_ligand_efficiency>  (1) 
-0.13175526527549633

>  <r_i_glide_ligand_efficiency_ln>  (1) 
-0.94411505305824694

>  <r_i_glide_ligand_efficiency_sa>  (1) 
-0.41829689340134418

>  <r_i_glide_lipo>  (1) 
-2.2952175265795165

>  <r_i_glide_metal>  (1) 
-0

>  <r_i_glide_rewards>  (1) 
-0.79156606728198819

>  <r_lp_Energy>  (1) 
46.360869999999998

>  <r_lp_tautomer_probability>  (1) 
0.49999519497573586

>  <s_epik_Chemistry_Notes>  (1) 
This compound has an imine and may undergo hydrolysis. This compound contains an acetal/aminal-like group ( X-CH(R)-Y where X, Y are N, S, or O) that may be acid/base labile, releasing an aldehyde.

>  <s_epik_cmdline>  (1) 
J2VwaWtfcHl0aG9uJywgJy1waHQnLCAnMS4wJywgJy1waCcsICc3LjQnLCAnLXRuJywgJzgnLCAnLW1hJywgJzUwMCcsICctaW1hZScsICc8aW5maWxlLm1hZT4nLCAnLW9tYWUnLCAnPG91dGZpbGUubWFlPic=

>  <s_epik_input>  (1) 
TzFbQ0BASF0oRilbQ0gyXVtDSDJdT0MoW0NAQEhdMTIpPU5bQ0gyXVtOSF1DKD1DMkYpQzMoW0NIMl1bQ0gyXTMpT1tDQEBIXShbQ0gyXVtDSDJdW0NAQEhdNFtDSDNdKUMoPVtDSF00KVtOSF1bQ0gyXVtDSDJdW0NIMl1OKFtDSDNdKVtDSDNd

>  <s_glide_docking_method>  (1) 
confgen

>  <s_i_glide_gridfile>  (1) 
gpcr_drd2_6luq_protein_autoprepared_prepared

>  <s_lp_Force_Field>  (1) 
S-OPLS

>  <s_lp_Variant>  (1) 
DiffSBDD_33_num_sample_50-1

>  <s_m_source_file>  (1) 
generated__ligand_DiffSBDD_2026-05-06_prepared.sdf

>  <GenAI_Model>  (1) 
DiffSBDD

>  <Protein>  (1) 
generic_title2

$$$$
DiffSBDD_34_num_sample_50
     RDKit          3D

  0  0  0  0  0  0  0  0  0  0999 V3000
M  V30 BEGIN CTAB
M  V30 COUNTS 109 114 0 0 1
M  V30 BEGIN ATOM
M  V30 1 C 10.663403 3.513480 -19.837246 0
M  V30 2 C 6.963709 -0.123808 -18.062696 0
M  V30 3 C 6.771139 0.923140 -15.749619 0
M  V30 4 C 13.750975 3.856376 -18.747511 0
M  V30 5 C 5.924968 5.805138 -12.839241 0
M  V30 6 C 14.269341 9.078489 -21.557300 0 CFG=1
M  V30 7 C 6.954350 0.091957 -19.601700 0 CFG=2
M  V30 8 C 7.008040 2.153710 -14.857694 0
M  V30 9 O 12.315084 3.753200 -21.513277 0
M  V30 10 C 16.134946 6.569526 -18.928285 0 CFG=1
M  V30 11 N 15.435456 10.969205 -22.691725 0 CHG=1
M  V30 12 C 13.724258 3.696386 -21.336226 0 CFG=1
M  V30 13 O 10.843413 -0.398462 -21.430043 0
M  V30 14 C 7.185930 1.160558 -17.228359 0 CFG=1
M  V30 15 C 10.765780 1.970907 -21.897874 0
M  V30 16 F 13.999187 3.551865 -23.666916 0
M  V30 17 C 13.933882 5.735148 -22.799500 0
M  V30 18 C 7.425149 7.681345 -12.129313 0
M  V30 19 O 13.647612 7.831012 -21.836205 0
M  V30 20 C 8.628311 1.726964 -17.358483 0
M  V30 21 C 5.805787 -0.678336 -20.279428 0
M  V30 22 C 8.290954 -0.289592 -20.257582 0
M  V30 23 C 7.035023 6.208508 -11.892545 0 CFG=2
M  V30 24 C 12.411339 4.297093 -18.104028 0
M  V30 25 O 9.005889 3.051259 -12.660146 0
M  V30 26 O 8.941363 0.796126 -20.809897 0
M  V30 27 C 10.045464 3.915846 -17.392685 0
M  V30 28 C 8.048071 3.806197 -12.504848 0
M  V30 29 C 14.357130 4.277730 -22.607061 0 CFG=1
M  V30 30 C 14.192761 4.499758 -20.097282 0 CFG=1
M  V30 31 C 10.200728 0.652057 -21.359887 0
M  V30 32 O 8.696450 -1.454756 -20.264580 0
M  V30 33 O 9.375897 5.678980 -11.632918 0
M  V30 34 C 5.600359 4.358367 -12.550918 0
M  V30 35 C 11.147183 3.445551 -18.373202 0 CFG=1
M  V30 36 C 15.034079 9.122905 -20.223225 0
M  V30 37 C 14.635919 6.843179 -19.059686 0 CFG=1
M  V30 38 C 14.333806 8.359346 -19.086413 0
M  V30 39 C 6.775213 0.919402 -12.583115 0
M  V30 40 C 14.366221 6.621706 -21.620677 0 CFG=1
M  V30 41 C 15.104463 9.532116 -22.767329 0
M  V30 42 O 16.800982 7.271719 -17.868249 0
M  V30 43 C 6.418742 2.157911 -13.427416 0 CFG=1
M  V30 44 C 8.259707 5.279086 -11.969942 0
M  V30 45 C 13.964620 6.047337 -20.225836 0 CFG=1
M  V30 46 N 6.743079 3.465785 -12.795930 0
M  V30 47 C 11.558067 2.762988 -20.836251 0 CFG=2
M  V30 48 C 8.656371 3.263089 -17.515006 0
M  V30 49 C 16.739607 5.849201 -17.745971 0
M  V30 50 H 9.672697 3.077734 -19.906364 0
M  V30 51 H 10.528633 4.551351 -20.145175 0
M  V30 52 H 7.699247 -0.877566 -17.775911 0
M  V30 53 H 6.003126 -0.550748 -17.770693 0
M  V30 54 H 7.324267 0.073265 -15.346593 0
M  V30 55 H 5.717203 0.645975 -15.709060 0
M  V30 56 H 14.524470 4.100342 -18.021267 0
M  V30 57 H 13.798311 2.769350 -18.806197 0
M  V30 58 H 6.215736 5.939938 -13.882662 0
M  V30 59 H 5.047099 6.428820 -12.669072 0
M  V30 60 H 13.434840 9.768813 -21.485979 0
M  V30 61 H 6.784380 1.150670 -19.799336 0
M  V30 62 H 8.082613 2.308987 -14.807468 0
M  V30 63 H 6.602655 3.028668 -15.360844 0
M  V30 64 H 16.704772 6.558014 -19.854069 0
M  V30 65 H 15.795183 11.289398 -23.579415 0
M  V30 66 H 14.605430 11.505064 -22.451351 0
M  V30 67 H 14.058896 2.660115 -21.259358 0
M  V30 68 H 6.494667 1.903872 -17.629170 0
M  V30 69 H 9.961163 2.580267 -22.309725 0
M  V30 70 H 11.424327 1.725384 -22.731453 0
M  V30 71 H 14.356172 6.124475 -23.726006 0
M  V30 72 H 12.850364 5.783432 -22.921437 0
M  V30 73 H 8.252016 7.993632 -11.491269 0
M  V30 74 H 7.716199 7.863504 -13.164228 0
M  V30 75 H 6.587945 8.336957 -11.891599 0
M  V30 76 H 9.234517 1.415147 -16.508424 0
M  V30 77 H 9.136878 1.297069 -18.215655 0
M  V30 78 H 5.834894 -0.569238 -21.364593 0
M  V30 79 H 5.848294 -1.744102 -20.049720 0
M  V30 80 H 4.835654 -0.306933 -19.947860 0
M  V30 81 H 6.662669 6.125518 -10.870508 0
M  V30 82 H 12.192957 5.344306 -18.299856 0
M  V30 83 H 12.580717 4.262759 -17.026023 0
M  V30 84 H 9.912679 4.993206 -17.502107 0
M  V30 85 H 10.397882 3.772687 -16.370449 0
M  V30 86 H 15.444454 4.206261 -22.553751 0
M  V30 87 H 15.273838 4.359416 -20.114292 0
M  V30 88 H 4.744840 4.084930 -13.168823 0
M  V30 89 H 5.279451 4.237226 -11.514604 0
M  V30 90 H 11.372946 2.406154 -18.129472 0
M  V30 91 H 16.054488 8.765907 -20.354788 0
M  V30 92 H 15.137141 10.166388 -19.924951 0
M  V30 93 H 14.186908 6.494227 -18.130857 0
M  V30 94 H 14.662814 8.786682 -18.138106 0
M  V30 95 H 13.256673 8.533100 -19.118478 0
M  V30 96 H 6.469348 0.001472 -13.086652 0
M  V30 97 H 7.840115 0.829772 -12.377220 0
M  V30 98 H 6.234965 0.938063 -11.635718 0
M  V30 99 H 15.442298 6.774484 -21.697623 0
M  V30 100 H 16.016435 8.942793 -22.865121 0
M  V30 101 H 14.528385 9.373630 -23.679834 0
M  V30 102 H 5.336432 2.083858 -13.511290 0
M  V30 103 H 12.888038 6.204498 -20.162334 0
M  V30 104 H 12.194713 2.053301 -20.306230 0
M  V30 105 H 8.176126 3.545359 -18.451031 0
M  V30 106 H 8.037218 3.731867 -16.757034 0
M  V30 107 H 16.100225 5.500447 -16.937613 0
M  V30 108 H 17.695371 5.344991 -17.869952 0
M  V30 109 H 16.125722 11.125706 -21.972235 0
M  V30 END ATOM
M  V30 BEGIN BOND
M  V30 1 1 7 2
M  V30 2 1 8 3
M  V30 3 1 12 9
M  V30 4 1 14 2
M  V30 5 1 14 3
M  V30 6 1 19 6
M  V30 7 1 20 14
M  V30 8 1 21 7
M  V30 9 1 22 7
M  V30 10 1 23 5
M  V30 11 1 23 18
M  V30 12 1 24 4
M  V30 13 1 26 22
M  V30 14 2 28 25
M  V30 15 1 29 12
M  V30 16 1 29 16
M  V30 17 1 29 17
M  V30 18 1 30 4
M  V30 19 1 30 12
M  V30 20 2 31 13
M  V30 21 1 31 15
M  V30 22 1 31 26
M  V30 23 2 32 22
M  V30 24 1 34 5
M  V30 25 1 35 1
M  V30 26 1 35 24
M  V30 27 1 35 27
M  V30 28 1 36 6
M  V30 29 1 37 10
M  V30 30 1 38 36
M  V30 31 1 38 37
M  V30 32 1 40 17
M  V30 33 1 40 19
M  V30 34 1 41 6
M  V30 35 1 41 11
M  V30 36 1 42 10
M  V30 37 1 43 8
M  V30 38 1 43 39
M  V30 39 1 44 23
M  V30 40 1 44 28
M  V30 41 2 44 33
M  V30 42 1 45 30
M  V30 43 1 45 37
M  V30 44 1 45 40
M  V30 45 1 46 28
M  V30 46 1 46 34
M  V30 47 1 46 43
M  V30 48 1 47 1
M  V30 49 1 47 9
M  V30 50 1 47 15
M  V30 51 1 48 20
M  V30 52 1 48 27
M  V30 53 1 49 10
M  V30 54 1 49 42
M  V30 55 1 50 1
M  V30 56 1 51 1
M  V30 57 1 52 2
M  V30 58 1 53 2
M  V30 59 1 54 3
M  V30 60 1 55 3
M  V30 61 1 56 4
M  V30 62 1 57 4
M  V30 63 1 58 5
M  V30 64 1 59 5
M  V30 65 1 6 60 CFG=1
M  V30 66 1 7 61 CFG=1
M  V30 67 1 62 8
M  V30 68 1 63 8
M  V30 69 1 10 64 CFG=3
M  V30 70 1 65 11
M  V30 71 1 66 11
M  V30 72 1 12 67 CFG=1
M  V30 73 1 14 68 CFG=3
M  V30 74 1 69 15
M  V30 75 1 70 15
M  V30 76 1 71 17
M  V30 77 1 72 17
M  V30 78 1 73 18
M  V30 79 1 74 18
M  V30 80 1 75 18
M  V30 81 1 76 20
M  V30 82 1 77 20
M  V30 83 1 78 21
M  V30 84 1 79 21
M  V30 85 1 80 21
M  V30 86 1 23 81 CFG=1
M  V30 87 1 82 24
M  V30 88 1 83 24
M  V30 89 1 84 27
M  V30 90 1 85 27
M  V30 91 1 29 86 CFG=1
M  V30 92 1 30 87 CFG=1
M  V30 93 1 88 34
M  V30 94 1 89 34
M  V30 95 1 35 90 CFG=1
M  V30 96 1 91 36
M  V30 97 1 92 36
M  V30 98 1 37 93 CFG=1
M  V30 99 1 94 38
M  V30 100 1 95 38
M  V30 101 1 96 39
M  V30 102 1 97 39
M  V30 103 1 98 39
M  V30 104 1 40 99 CFG=1
M  V30 105 1 100 41
M  V30 106 1 101 41
M  V30 107 1 43 102 CFG=3
M  V30 108 1 45 103 CFG=1
M  V30 109 1 47 104 CFG=1
M  V30 110 1 105 48
M  V30 111 1 106 48
M  V30 112 1 107 49
M  V30 113 1 108 49
M  V30 114 1 109 11
M  V30 END BOND
M  V30 END CTAB
M  END
>  <i_epik_Tot_Q>  (1) 
1

>  <i_epik_Tot_abs_Q>  (1) 
1

>  <i_i_glide_confnum>  (1) 
257

>  <i_i_glide_lignum>  (1) 
88

>  <i_i_glide_posenum>  (1) 
345

>  <i_i_glide_rotatable_bonds>  (1) 
6

>  <i_lp_mmshare_version>  (1) 
72125

>  <i_m_source_file_index>  (1) 
35

>  <i_f3d_flags>  (1) 
0

>  <num_sample>  (1) 
50

>  <b_lp_Chiralities_Consistent>  (1) 
1

>  <r_epik_Charging_Adjusted_Penalty>  (1) 
0.0091647518509246212

>  <r_epik_Ionization_Penalty>  (1) 
0.0045823761218381463

>  <r_epik_Ionization_Penalty_Charging>  (1) 
0.0045823759254623037

>  <r_epik_Ionization_Penalty_Neutral>  (1) 
1.9637584269267853e-10

>  <r_epik_State_Penalty>  (1) 
0.0045823759254623184

>  <r_glide_ring_energy>  (1) 
0

>  <r_i_docking_score>  (1) 
-4.2138107826848099

>  <r_i_glide_ecoul>  (1) 
-4.0127035899568329

>  <r_i_glide_eff_state_penalty>  (1) 
0.0045823759254623184

>  <r_i_glide_einternal>  (1) 
5.9891874638165277

>  <r_i_glide_emodel>  (1) 
-36.668541592476174

>  <r_i_glide_emodel_strain>  (1) 
0.88807971122980689

>  <r_i_glide_energy>  (1) 
-38.54921577239422

>  <r_i_glide_erotb>  (1) 
0.051949520036259446

>  <r_i_glide_esite>  (1) 
-0.030984975276929668

>  <r_i_glide_evdw>  (1) 
-34.536512182437384

>  <r_i_glide_gscore>  (1) 
-4.2183931586102723

>  <r_i_glide_gscore_strain>  (1) 
0

>  <r_i_glide_hbond>  (1) 
0

>  <r_i_glide_ligand_efficiency>  (1) 
-0.085996138422138976

>  <r_i_glide_ligand_efficiency_ln>  (1) 
-0.86139934132746343

>  <r_i_glide_ligand_efficiency_sa>  (1) 
-0.31468616036805908

>  <r_i_glide_lipo>  (1) 
-1.1516376433665565

>  <r_i_glide_metal>  (1) 
-0

>  <r_i_glide_rewards>  (1) 
-0.75898891238765176

>  <r_lp_Energy>  (1) 
80.647393999999991

>  <r_lp_tautomer_probability>  (1) 
0.99995000000000001

>  <s_epik_cmdline>  (1) 
J2VwaWtfcHl0aG9uJywgJy1waHQnLCAnMS4wJywgJy1waCcsICc3LjQnLCAnLXRuJywgJzgnLCAnLW1hJywgJzUwMCcsICctaW1hZScsICc8aW5maWxlLm1hZT4nLCAnLW9tYWUnLCAnPG91dGZpbGUubWFlPic=

>  <s_epik_input>  (1) 
W0NIMl0xT1tDQEBIXTFbQ0BIXTJbQ0gyXVtDSDJdW0NASF0oW0NIMl1bTkgyXSlPW0NASF0oW0NIMl1bQ0BASF0zRilbQ0BIXTJbQ0BIXShbQ0BIXTM0KVtDSDJdW0NIMl1bQ0BASF01W0NIMl1bQ0BIXShPNClbQ0gyXUMoPU8pT0MoPU8pW0NAQEhdKFtDSDNdKVtDSDJdW0NASF0oW0NIMl1bQ0gyXVtDSDJdNSlbQ0gyXVtDSDJdW0NAQEhdKFtDSDNdKU4oQyg9TylDNj1PKVtDSDJdW0NIMl1bQ0BASF02W0NIM10=

>  <s_glide_docking_method>  (1) 
confgen

>  <s_i_glide_gridfile>  (1) 
gpcr_drd2_6luq_protein_autoprepared_prepared

>  <s_lp_Force_Field>  (1) 
S-OPLS

>  <s_lp_Variant>  (1) 
DiffSBDD_34_num_sample_50-2

>  <s_m_source_file>  (1) 
generated__ligand_DiffSBDD_2026-05-06_prepared.sdf

>  <GenAI_Model>  (1) 
DiffSBDD

>  <Protein>  (1) 
generic_title2

$$$$
DiffSBDD_12_num_sample_50
     RDKit          3D

  0  0  0  0  0  0  0  0  0  0999 V3000
M  V30 BEGIN CTAB
M  V30 COUNTS 66 67 0 0 1
M  V30 BEGIN ATOM
M  V30 1 C 6.381469 5.713478 -18.706472 0 CFG=2
M  V30 2 C 9.654186 6.896542 -10.634071 0
M  V30 3 O 9.434593 8.170830 -6.291879 0
M  V30 4 C 7.675927 3.324816 -14.852343 0
M  V30 5 C 6.757407 6.068298 -11.466685 0
M  V30 6 C 6.739887 6.498950 -19.986019 0
M  V30 7 O 6.621420 6.530522 -17.563148 0
M  V30 8 F 5.943997 7.561143 -20.106398 0
M  V30 9 C 7.254208 4.030881 -13.545966 0 CFG=1
M  V30 10 C 9.820317 5.751075 -7.902880 0
M  V30 11 C 7.181720 4.412432 -18.538261 0
M  V30 12 C 9.740149 8.328847 -7.654767 0
M  V30 13 F 8.007517 6.911062 -19.969708 0
M  V30 14 C 8.425123 4.467449 -12.618180 0 CFG=2
M  V30 15 C 4.514137 7.672218 -17.340933 0
M  V30 16 F 6.550216 5.721042 -21.052434 0
M  V30 17 C 10.816765 7.270389 -9.687154 0
M  V30 18 C 9.426165 3.331995 -12.348000 0
M  V30 19 C 9.026660 5.518904 -10.300793 0 CFG=1
M  V30 20 C 5.701084 5.684281 -12.507699 0
M  V30 21 C 7.015768 6.387833 -14.613076 0
M  V30 22 C 6.323464 5.230767 -13.837792 0 CFG=1
M  V30 23 C 6.064674 7.325327 -15.376259 0
M  V30 24 C 8.623652 5.460878 -8.816910 0
M  V30 25 C 10.493729 7.108369 -8.192246 0 CFG=2
M  V30 26 C 7.892048 5.034015 -11.268898 0 CFG=1
M  V30 27 C 5.518806 6.721264 -16.685346 0 CFG=2
M  V30 28 F 8.486338 4.645929 -18.405360 0
M  V30 29 H 5.328474 5.433985 -18.773330 0
M  V30 30 H 10.010903 6.903407 -11.663817 0
M  V30 31 H 8.907412 7.684664 -10.573407 0
M  V30 32 H 8.721065 7.549302 -6.225948 0
M  V30 33 H 8.462796 3.866077 -15.379514 0
M  V30 34 H 8.031632 2.312259 -14.672397 0
M  V30 35 H 6.823107 3.213879 -15.519246 0
M  V30 36 H 6.230887 6.169279 -10.520363 0
M  V30 37 H 7.154229 7.048058 -11.720942 0
M  V30 38 H 6.662847 3.294009 -13.001030 0
M  V30 39 H 10.563529 4.969423 -8.042576 0
M  V30 40 H 9.512583 5.682068 -6.861235 0
M  V30 41 H 6.859354 3.868929 -17.654112 0
M  V30 42 H 7.056659 3.752975 -19.396743 0
M  V30 43 H 8.835921 8.542468 -8.221267 0
M  V30 44 H 10.401385 9.186817 -7.739306 0
M  V30 45 H 8.976931 5.254939 -13.130239 0
M  V30 46 H 3.727466 7.965627 -16.646500 0
M  V30 47 H 5.035366 8.568753 -17.674945 0
M  V30 48 H 4.027541 7.230648 -18.209843 0
M  V30 49 H 11.156198 8.283722 -9.898948 0
M  V30 50 H 11.672768 6.644852 -9.889441 0
M  V30 51 H 9.242111 2.840161 -11.400573 0
M  V30 52 H 9.434639 2.543953 -13.091542 0
M  V30 53 H 10.423649 3.754789 -12.291584 0
M  V30 54 H 9.834545 4.797657 -10.363943 0
M  V30 55 H 5.080461 4.883230 -12.102998 0
M  V30 56 H 5.034653 6.530874 -12.662427 0
M  V30 57 H 7.611979 6.989983 -13.929029 0
M  V30 58 H 7.737196 5.992877 -15.325436 0
M  V30 59 H 5.506011 4.856891 -14.451560 0
M  V30 60 H 5.242614 7.623923 -14.727947 0
M  V30 61 H 6.599510 8.246601 -15.617217 0
M  V30 62 H 8.212565 4.483750 -8.570448 0
M  V30 63 H 7.834917 6.169011 -8.602477 0
M  V30 64 H 11.447422 7.097051 -7.661197 0
M  V30 65 H 7.409916 4.189023 -10.777212 0
M  V30 66 H 5.034083 5.769428 -16.473372 0
M  V30 END ATOM
M  V30 BEGIN BOND
M  V30 1 1 6 1
M  V30 2 1 7 1
M  V30 3 1 8 6
M  V30 4 1 9 4
M  V30 5 1 11 1
M  V30 6 1 12 3
M  V30 7 1 13 6
M  V30 8 1 14 9
M  V30 9 1 16 6
M  V30 10 1 17 2
M  V30 11 1 18 14
M  V30 12 1 19 2
M  V30 13 1 20 5
M  V30 14 1 22 9
M  V30 15 1 22 20
M  V30 16 1 22 21
M  V30 17 1 23 21
M  V30 18 1 24 10
M  V30 19 1 24 19
M  V30 20 1 25 10
M  V30 21 1 25 12
M  V30 22 1 25 17
M  V30 23 1 26 5
M  V30 24 1 26 14
M  V30 25 1 26 19
M  V30 26 1 27 7
M  V30 27 1 27 15
M  V30 28 1 27 23
M  V30 29 1 28 11
M  V30 30 1 1 29 CFG=3
M  V30 31 1 30 2
M  V30 32 1 31 2
M  V30 33 1 32 3
M  V30 34 1 33 4
M  V30 35 1 34 4
M  V30 36 1 35 4
M  V30 37 1 36 5
M  V30 38 1 37 5
M  V30 39 1 9 38 CFG=1
M  V30 40 1 39 10
M  V30 41 1 40 10
M  V30 42 1 41 11
M  V30 43 1 42 11
M  V30 44 1 43 12
M  V30 45 1 44 12
M  V30 46 1 14 45 CFG=3
M  V30 47 1 46 15
M  V30 48 1 47 15
M  V30 49 1 48 15
M  V30 50 1 49 17
M  V30 51 1 50 17
M  V30 52 1 51 18
M  V30 53 1 52 18
M  V30 54 1 53 18
M  V30 55 1 19 54 CFG=1
M  V30 56 1 55 20
M  V30 57 1 56 20
M  V30 58 1 57 21
M  V30 59 1 58 21
M  V30 60 1 22 59 CFG=3
M  V30 61 1 60 23
M  V30 62 1 61 23
M  V30 63 1 62 24
M  V30 64 1 63 24
M  V30 65 1 25 64 CFG=1
M  V30 66 1 26 65 CFG=1
M  V30 67 1 27 66 CFG=1
M  V30 END BOND
M  V30 END CTAB
M  END
>  <i_epik_Tot_Q>  (1) 
0

>  <i_epik_Tot_abs_Q>  (1) 
0

>  <i_i_glide_confnum>  (1) 
376

>  <i_i_glide_lignum>  (1) 
47

>  <i_i_glide_posenum>  (1) 
371

>  <i_i_glide_rotatable_bonds>  (1) 
10

>  <i_lp_mmshare_version>  (1) 
72125

>  <i_m_source_file_index>  (1) 
13

>  <i_f3d_flags>  (1) 
0

>  <num_sample>  (1) 
50

>  <b_lp_Chiralities_Consistent>  (1) 
1

>  <r_epik_Charging_Adjusted_Penalty>  (1) 
0

>  <r_epik_Ionization_Penalty>  (1) 
3.7258490457677376e-07

>  <r_epik_Ionization_Penalty_Charging>  (1) 
0

>  <r_epik_Ionization_Penalty_Neutral>  (1) 
3.7258490457677376e-07

>  <r_epik_State_Penalty>  (1) 
-0

>  <r_glide_ring_energy>  (1) 
0

>  <r_i_docking_score>  (1) 
-4.2110309854679011

>  <r_i_glide_ecoul>  (1) 
-1.9668039367980952

>  <r_i_glide_eff_state_penalty>  (1) 
-0

>  <r_i_glide_einternal>  (1) 
6.3173363032252858

>  <r_i_glide_emodel>  (1) 
-23.740247776711719

>  <r_i_glide_emodel_strain>  (1) 
2.5485848294063942

>  <r_i_glide_energy>  (1) 
-24.937014860831713

>  <r_i_glide_erotb>  (1) 
0.81823453102936505

>  <r_i_glide_esite>  (1) 
0

>  <r_i_glide_evdw>  (1) 
-22.970210924033619

>  <r_i_glide_gscore>  (1) 
-4.2110309854679011

>  <r_i_glide_gscore_strain>  (1) 
0

>  <r_i_glide_hbond>  (1) 
0

>  <r_i_glide_ligand_efficiency>  (1) 
-0.15039396376671074

>  <r_i_glide_ligand_efficiency_ln>  (1) 
-0.9720295926882726

>  <r_i_glide_ligand_efficiency_sa>  (1) 
-0.45668465181066192

>  <r_i_glide_lipo>  (1) 
-1.7438525051158336

>  <r_i_glide_metal>  (1) 
-0

>  <r_i_glide_rewards>  (1) 
-1.8418818746600376

>  <r_lp_Energy>  (1) 
30.869408

>  <r_lp_tautomer_probability>  (1) 
1

>  <s_epik_cmdline>  (1) 
J2VwaWtfcHl0aG9uJywgJy1waHQnLCAnMS4wJywgJy1waCcsICc3LjQnLCAnLXRuJywgJzgnLCAnLW1hJywgJzUwMCcsICctaW1hZScsICc8aW5maWxlLm1hZT4nLCAnLW9tYWUnLCAnPG91dGZpbGUubWFlPic=

>  <s_epik_input>  (1) 
RkMoRikoRilbQ0BASF0oW0NIMl1GKU9bQ0BIXShbQ0gzXSlbQ0gyXVtDSDJdW0NAQEhdMVtDSDJdW0NIMl1bQ0BASF0oW0NAQEhdKFtDSDNdKVtDQEBIXTFbQ0gzXSlbQ0BIXTJbQ0gyXVtDSDJdW0NASF0oW0NIMl1bQ0gyXTIpW0NIMl1bT0hd

>  <s_glide_docking_method>  (1) 
confgen

>  <s_i_glide_gridfile>  (1) 
gpcr_drd2_6luq_protein_autoprepared_prepared

>  <s_lp_Force_Field>  (1) 
S-OPLS

>  <s_lp_Variant>  (1) 
DiffSBDD_12_num_sample_50-1

>  <s_m_source_file>  (1) 
generated__ligand_DiffSBDD_2026-05-06_prepared.sdf

>  <GenAI_Model>  (1) 
DiffSBDD

>  <Protein>  (1) 
generic_title2

$$$$
DiffSBDD_40_num_sample_50
     RDKit          3D

  0  0  0  0  0  0  0  0  0  0999 V3000
M  V30 BEGIN CTAB
M  V30 COUNTS 79 82 0 0 1
M  V30 BEGIN ATOM
M  V30 1 C 8.821870 4.811505 -19.039034 0 CFG=1
M  V30 2 S 8.226906 7.747576 -12.291642 0
M  V30 3 C 5.458184 4.040833 -13.230750 0
M  V30 4 C 5.602430 5.167765 -18.994840 0 CFG=2
M  V30 5 C 6.714515 4.071728 -13.718405 0
M  V30 6 C 9.704479 8.521402 -21.546710 0
M  V30 7 C 8.037563 6.043188 -19.580545 0 CFG=2
M  V30 8 C 8.401601 8.586585 -21.893363 0
M  V30 9 C 6.631458 6.297928 -18.963443 0
M  V30 10 C 8.960742 4.645801 -17.504235 0
M  V30 11 C 10.106431 5.773585 -12.624100 0
M  V30 12 C 7.832527 9.878837 -22.475786 0 CFG=1
M  V30 13 C 7.704781 5.211526 -13.382679 0 CFG=1
M  V30 14 C 6.228878 7.494338 -22.076311 0
M  V30 15 C 6.629897 9.592863 -23.366971 0 CFG=2
M  V30 16 C 7.529028 7.412444 -21.714407 0
M  V30 17 C 7.236285 2.970189 -14.656291 0 CFG=1
M  V30 18 C 9.728355 6.929188 -11.690255 0 CFG=2
M  V30 19 S 6.554994 0.741966 -13.096167 0
M  V30 20 C 5.451553 4.316193 -20.314555 0
M  V30 21 F 6.097645 10.722474 -23.834665 0
M  V30 22 C 8.072136 6.106736 -21.134246 0
M  V30 23 C 5.583829 8.732771 -22.663255 0
M  V30 24 C 7.114081 6.322904 -12.474633 0
M  V30 25 F 7.434830 10.684870 -21.491677 0
M  V30 26 O 5.034774 3.165378 -20.235481 0
M  V30 27 O 8.234823 3.454903 -15.550015 0
M  V30 28 O 8.381039 3.599054 -19.613943 0
M  V30 29 C 7.830313 1.743517 -13.916602 0
M  V30 30 C 12.534685 8.058365 -8.828957 0
M  V30 31 N 9.834665 6.441541 -7.921244 0
M  V30 32 C 7.749528 4.074857 -16.732702 0
M  V30 33 N 8.937064 5.501230 -9.745808 0
M  V30 34 O 4.683577 5.396319 -19.933749 0
M  V30 35 C 10.194275 7.162347 -9.095173 0
M  V30 36 C 9.037776 4.684576 -12.804761 0
M  V30 37 C 9.643055 6.569299 -10.229517 0
M  V30 38 C 9.076708 5.486094 -8.441020 0
M  V30 39 C 11.051687 8.384556 -9.008100 0
M  V30 40 H 9.840506 4.936238 -19.409627 0
M  V30 41 H 5.087264 4.812027 -12.575996 0
M  V30 42 H 4.787018 3.236105 -13.486209 0
M  V30 43 H 5.034885 4.969208 -18.092294 0
M  V30 44 H 10.353956 9.369262 -21.676708 0
M  V30 45 H 10.136710 7.627991 -21.131075 0
M  V30 46 H 8.623803 6.903670 -19.253607 0
M  V30 47 H 6.785799 6.543738 -17.914902 0
M  V30 48 H 6.184451 7.208813 -19.361007 0
M  V30 49 H 9.793988 3.961053 -17.341356 0
M  V30 50 H 9.271423 5.586063 -17.047796 0
M  V30 51 H 10.349941 6.169285 -13.604340 0
M  V30 52 H 11.034847 5.333764 -12.290667 0
M  V30 53 H 8.580551 10.402200 -23.079632 0
M  V30 54 H 7.934511 5.691971 -14.333555 0
M  V30 55 H 5.586268 6.639283 -21.948356 0
M  V30 56 H 6.998845 9.032452 -24.215639 0
M  V30 57 H 6.401721 2.599026 -15.249144 0
M  V30 58 H 10.513337 7.677537 -11.790715 0
M  V30 59 H 5.946826 0.319989 -14.209519 0
M  V30 60 H 9.075803 5.911453 -21.505441 0
M  V30 61 H 7.514849 5.285477 -21.576762 0
M  V30 62 H 4.816242 8.430995 -23.376467 0
M  V30 63 H 5.088771 9.285809 -21.864476 0
M  V30 64 H 6.192273 6.715543 -12.904952 0
M  V30 65 H 6.866337 5.940127 -11.484348 0
M  V30 66 H 8.985516 2.912423 -19.375413 0
M  V30 67 H 8.331085 1.095332 -14.635613 0
M  V30 68 H 8.576363 2.018465 -13.173572 0
M  V30 69 H 13.133059 8.968892 -8.785375 0
M  V30 70 H 12.696044 7.506047 -7.902907 0
M  V30 71 H 12.899375 7.455998 -9.660904 0
M  V30 72 H 7.039565 4.860452 -16.478087 0
M  V30 73 H 7.218157 3.325397 -17.320533 0
M  V30 74 H 8.394738 4.849543 -10.291779 0
M  V30 75 H 8.868777 4.126918 -11.886160 0
M  V30 76 H 9.480816 3.972683 -13.491594 0
M  V30 77 H 8.603207 4.735801 -7.826784 0
M  V30 78 H 10.919922 9.005227 -9.891402 0
M  V30 79 H 10.718366 8.978784 -8.159084 0
M  V30 END ATOM
M  V30 BEGIN BOND
M  V30 1 2 5 3
M  V30 2 1 7 1
M  V30 3 2 8 6
M  V30 4 1 9 4
M  V30 5 1 9 7
M  V30 6 1 10 1
M  V30 7 1 12 8
M  V30 8 1 13 5
M  V30 9 1 15 12
M  V30 10 1 16 8
M  V30 11 2 16 14
M  V30 12 1 17 5
M  V30 13 1 18 2
M  V30 14 1 18 11
M  V30 15 1 20 4
M  V30 16 1 21 15
M  V30 17 1 22 7
M  V30 18 1 22 16
M  V30 19 1 23 14
M  V30 20 1 23 15
M  V30 21 1 24 2
M  V30 22 1 24 13
M  V30 23 1 25 12
M  V30 24 2 26 20
M  V30 25 1 27 17
M  V30 26 1 28 1
M  V30 27 1 29 17
M  V30 28 1 29 19
M  V30 29 1 32 10
M  V30 30 1 32 27
M  V30 31 1 34 4
M  V30 32 1 34 20
M  V30 33 1 35 31
M  V30 34 1 36 11
M  V30 35 1 36 13
M  V30 36 1 37 18
M  V30 37 1 37 33
M  V30 38 2 37 35
M  V30 39 2 38 31
M  V30 40 1 38 33
M  V30 41 1 39 30
M  V30 42 1 39 35
M  V30 43 1 1 40 CFG=3
M  V30 44 1 41 3
M  V30 45 1 42 3
M  V30 46 1 4 43 CFG=1
M  V30 47 1 44 6
M  V30 48 1 45 6
M  V30 49 1 7 46 CFG=1
M  V30 50 1 47 9
M  V30 51 1 48 9
M  V30 52 1 49 10
M  V30 53 1 50 10
M  V30 54 1 51 11
M  V30 55 1 52 11
M  V30 56 1 12 53 CFG=3
M  V30 57 1 13 54 CFG=3
M  V30 58 1 55 14
M  V30 59 1 15 56 CFG=3
M  V30 60 1 17 57 CFG=3
M  V30 61 1 18 58 CFG=1
M  V30 62 1 59 19
M  V30 63 1 60 22
M  V30 64 1 61 22
M  V30 65 1 62 23
M  V30 66 1 63 23
M  V30 67 1 64 24
M  V30 68 1 65 24
M  V30 69 1 66 28
M  V30 70 1 67 29
M  V30 71 1 68 29
M  V30 72 1 69 30
M  V30 73 1 70 30
M  V30 74 1 71 30
M  V30 75 1 72 32
M  V30 76 1 73 32
M  V30 77 1 74 33
M  V30 78 1 75 36
M  V30 79 1 76 36
M  V30 80 1 77 38
M  V30 81 1 78 39
M  V30 82 1 79 39
M  V30 END BOND
M  V30 END CTAB
M  END
>  <i_epik_Tot_Q>  (1) 
0

>  <i_epik_Tot_abs_Q>  (1) 
0

>  <i_i_glide_confnum>  (1) 
1857

>  <i_i_glide_lignum>  (1) 
99

>  <i_i_glide_posenum>  (1) 
105

>  <i_i_glide_rotatable_bonds>  (1) 
16

>  <i_lp_mmshare_version>  (1) 
72125

>  <i_m_source_file_index>  (1) 
41

>  <i_f3d_flags>  (1) 
0

>  <num_sample>  (1) 
50

>  <b_lp_Chiralities_Consistent>  (1) 
1

>  <r_epik_Charging_Adjusted_Penalty>  (1) 
1.047397364093839

>  <r_epik_Ionization_Penalty>  (1) 
0.40552415828257216

>  <r_epik_Ionization_Penalty_Charging>  (1) 
0.39366408803935488

>  <r_epik_Ionization_Penalty_Neutral>  (1) 
0.011860070243217283

>  <r_epik_State_Penalty>  (1) 
0.65373327605448417

>  <r_glide_ring_energy>  (1) 
0

>  <r_i_docking_score>  (1) 
-4.2006917959962635

>  <r_i_glide_ecoul>  (1) 
-1.105155947401101

>  <r_i_glide_eff_state_penalty>  (1) 
0.65373327605448417

>  <r_i_glide_einternal>  (1) 
13.116766141795596

>  <r_i_glide_emodel>  (1) 
-37.805976434273212

>  <r_i_glide_emodel_strain>  (1) 
3.7549434160502813

>  <r_i_glide_energy>  (1) 
-44.213870625305631

>  <r_i_glide_erotb>  (1) 
0.63692825108646745

>  <r_i_glide_esite>  (1) 
-0.13462609183281482

>  <r_i_glide_evdw>  (1) 
-43.10871467790453

>  <r_i_glide_gscore>  (1) 
-4.8544250720507476

>  <r_i_glide_gscore_strain>  (1) 
0

>  <r_i_glide_hbond>  (1) 
0

>  <r_i_glide_ligand_efficiency>  (1) 
-0.10771004605118624

>  <r_i_glide_ligand_efficiency_ln>  (1) 
-0.90074756478934404

>  <r_i_glide_ligand_efficiency_sa>  (1) 
-0.36526754069636569

>  <r_i_glide_lipo>  (1) 
-1.9807457509001858

>  <r_i_glide_metal>  (1) 
-0

>  <r_i_glide_rewards>  (1) 
-1.054772354398823

>  <r_lp_Energy>  (1) 
16.317681999999998

>  <r_lp_tautomer_probability>  (1) 
0.49999999999999867

>  <s_epik_Chemistry_Notes>  (1) 
This compound has an ester and may undergo hydrolysis at high or low pH.

>  <s_epik_cmdline>  (1) 
J2VwaWtfcHl0aG9uJywgJy1waHQnLCAnMS4wJywgJy1waCcsICc3LjQnLCAnLXRuJywgJzgnLCAnLW1hJywgJzUwMCcsICctaW1hZScsICc8aW5maWxlLm1hZT4nLCAnLW9tYWUnLCAnPG91dGZpbGUubWFlPic=

>  <s_epik_input>  (1) 
W0NIMl09QzFbQ0BIXShGKVtDQEhdKEYpW0NIMl1bQ0hdPUMxW0NIMl1bQ0BASF0oW0NIMl1bQ0BASF0yQyg9TylPMilbQ0BIXShbT0hdKVtDSDJdW0NIMl1PW0NAQEhdKFtDSDJdW1NIXSlDKD1bQ0gyXSlbQ0BIXTNbQ0gyXVNbQ0BIXShbQ0gyXVtDSDJdMylDND1OW0NIXT1OW0NAQEhdNFtDSDJdW0NIM10=

>  <s_glide_docking_method>  (1) 
confgen

>  <s_i_glide_gridfile>  (1) 
gpcr_drd2_6luq_protein_autoprepared_prepared

>  <s_lp_Force_Field>  (1) 
S-OPLS

>  <s_lp_Variant>  (1) 
DiffSBDD_40_num_sample_50-2

>  <s_m_source_file>  (1) 
generated__ligand_DiffSBDD_2026-05-06_prepared.sdf

>  <GenAI_Model>  (1) 
DiffSBDD

>  <Protein>  (1) 
generic_title2

$$$$
DiffSBDD_8_num_sample_50
     RDKit          3D

  0  0  0  0  0  0  0  0  0  0999 V3000
M  V30 BEGIN CTAB
M  V30 COUNTS 64 69 0 0 1
M  V30 BEGIN ATOM
M  V30 1 C 9.783672 5.863494 -11.026854 0 CFG=2
M  V30 2 O 8.847257 -0.322112 -16.902907 0
M  V30 3 C 11.230505 7.246702 -9.227393 0 CFG=1
M  V30 4 N 10.893333 7.821599 -6.996650 0
M  V30 5 F 6.695677 2.434409 -17.782851 0
M  V30 6 C 7.213277 1.210928 -17.880922 0 CFG=2
M  V30 7 C 7.855399 1.087442 -19.260207 0
M  V30 8 C 7.181392 -0.226063 -14.712700 0
M  V30 9 C 6.870155 2.257184 -13.386020 0
M  V30 10 C 8.331735 2.266359 -20.080299 0
M  V30 11 O 5.418992 -1.897503 -20.585581 0
M  V30 12 C 9.602151 7.244419 -7.305783 0 CFG=2
M  V30 13 O 4.365388 -1.713746 -18.389751 0 CHG=-1
M  V30 14 O 12.845817 8.438155 -7.931643 0
M  V30 15 O 6.188846 0.237413 -17.942454 0
M  V30 16 N 7.544177 1.035881 -15.362969 0
M  V30 17 C 6.939278 3.545844 -12.580017 0
M  V30 18 N 5.314995 -1.335444 -19.374030 0 CHG=1
M  V30 19 N 7.155117 0.085957 -20.010243 0
M  V30 20 C 6.263754 -0.329554 -19.177762 0
M  V30 21 C 7.448968 2.268749 -14.758058 0
M  V30 22 O 7.834806 3.292522 -15.323270 0
M  V30 23 C 11.742797 7.902204 -7.988346 0
M  V30 24 C 10.815803 6.777418 -11.725299 0
M  V30 25 C 9.732162 7.380591 -8.886800 0 CFG=2
M  V30 26 O 8.635037 8.066641 -6.707486 0
M  V30 27 C 9.323055 1.220149 -19.631395 0
M  V30 28 C 8.437374 5.309986 -11.531906 0 CFG=2
M  V30 29 C 7.984768 5.462334 -10.044296 0
M  V30 30 C 8.173196 0.916619 -16.700908 0 CFG=1
M  V30 31 C 6.159749 -0.140177 -13.619821 0
M  V30 32 C 11.532112 7.710018 -10.666684 0
M  V30 33 C 8.382523 3.952936 -12.216080 0
M  V30 34 C 8.980019 6.637004 -10.008306 0 CFG=2
M  V30 35 C 6.288351 1.145058 -12.892532 0
M  V30 36 H 10.234847 5.009049 -10.536925 0
M  V30 37 H 8.477068 -0.972758 -16.323003 0
M  V30 38 H 11.435142 6.192604 -9.090079 0
M  V30 39 H 11.078878 8.218997 -6.089226 0
M  V30 40 H 8.104579 -0.629400 -14.291643 0
M  V30 41 H 6.818505 -0.942086 -15.452791 0
M  V30 42 H 8.059013 2.292348 -21.132714 0
M  V30 43 H 8.384743 3.236807 -19.589429 0
M  V30 44 H 9.524354 6.210506 -6.972514 0
M  V30 45 H 6.347772 3.441902 -11.668639 0
M  V30 46 H 6.456114 4.335059 -13.157371 0
M  V30 47 H 10.330956 7.381270 -12.490993 0
M  V30 48 H 11.551836 6.171949 -12.257303 0
M  V30 49 H 9.469904 8.431360 -9.058381 0
M  V30 50 H 7.758316 7.769187 -6.981455 0
M  V30 51 H 10.031639 1.500725 -18.853994 0
M  V30 52 H 9.726067 0.568824 -20.404833 0
M  V30 53 H 7.938598 6.057287 -12.155083 0
M  V30 54 H 6.935095 5.729715 -9.922537 0
M  V30 55 H 8.265699 4.626625 -9.400100 0
M  V30 56 H 8.983706 1.645571 -16.761632 0
M  V30 57 H 6.306707 -0.957243 -12.913249 0
M  V30 58 H 5.145778 -0.224166 -14.012208 0
M  V30 59 H 11.144773 8.726126 -10.690451 0
M  V30 60 H 12.600399 7.779808 -10.856323 0
M  V30 61 H 9.000669 3.991990 -13.111983 0
M  V30 62 H 8.846790 3.191020 -11.589373 0
M  V30 63 H 8.607832 7.448984 -10.642904 0
M  V30 64 H 5.864923 1.169908 -11.899038 0
M  V30 END ATOM
M  V30 BEGIN BOND
M  V30 1 1 6 5 CFG=1
M  V30 2 1 7 6
M  V30 3 1 10 7
M  V30 4 1 12 4
M  V30 5 1 15 6
M  V30 6 1 16 8
M  V30 7 1 17 9
M  V30 8 2 18 11
M  V30 9 1 18 13
M  V30 10 1 19 7
M  V30 11 1 20 15
M  V30 12 1 20 18
M  V30 13 2 20 19
M  V30 14 1 21 9
M  V30 15 1 21 16
M  V30 16 2 22 21
M  V30 17 1 23 3
M  V30 18 1 23 4
M  V30 19 2 23 14
M  V30 20 1 24 1
M  V30 21 1 25 3
M  V30 22 1 25 12
M  V30 23 1 26 12
M  V30 24 1 27 7
M  V30 25 1 27 10
M  V30 26 1 28 1
M  V30 27 1 29 28
M  V30 28 1 30 2
M  V30 29 1 30 6
M  V30 30 1 30 16
M  V30 31 1 31 8
M  V30 32 1 32 3
M  V30 33 1 32 24
M  V30 34 1 33 17
M  V30 35 1 33 28
M  V30 36 1 34 1
M  V30 37 1 34 25
M  V30 38 1 34 29
M  V30 39 2 35 9
M  V30 40 1 35 31
M  V30 41 1 1 36 CFG=1
M  V30 42 1 37 2
M  V30 43 1 3 38 CFG=3
M  V30 44 1 39 4
M  V30 45 1 40 8
M  V30 46 1 41 8
M  V30 47 1 42 10
M  V30 48 1 43 10
M  V30 49 1 12 44 CFG=3
M  V30 50 1 45 17
M  V30 51 1 46 17
M  V30 52 1 47 24
M  V30 53 1 48 24
M  V30 54 1 25 49 CFG=1
M  V30 55 1 50 26
M  V30 56 1 51 27
M  V30 57 1 52 27
M  V30 58 1 28 53 CFG=3
M  V30 59 1 54 29
M  V30 60 1 55 29
M  V30 61 1 30 56 CFG=1
M  V30 62 1 57 31
M  V30 63 1 58 31
M  V30 64 1 59 32
M  V30 65 1 60 32
M  V30 66 1 61 33
M  V30 67 1 62 33
M  V30 68 1 34 63 CFG=3
M  V30 69 1 64 35
M  V30 END BOND
M  V30 END CTAB
M  END
>  <i_epik_Tot_Q>  (1) 
0

>  <i_epik_Tot_abs_Q>  (1) 
2

>  <i_i_glide_confnum>  (1) 
497

>  <i_i_glide_lignum>  (1) 
19

>  <i_i_glide_posenum>  (1) 
350

>  <i_i_glide_rotatable_bonds>  (1) 
8

>  <i_lp_mmshare_version>  (1) 
72125

>  <i_m_source_file_index>  (1) 
9

>  <i_f3d_flags>  (1) 
0

>  <num_sample>  (1) 
50

>  <b_lp_Chiralities_Consistent>  (1) 
1

>  <r_epik_Charging_Adjusted_Penalty>  (1) 
0.96578762746863478

>  <r_epik_Ionization_Penalty>  (1) 
0.96579538567658219

>  <r_epik_Ionization_Penalty_Charging>  (1) 
0

>  <r_epik_Ionization_Penalty_Neutral>  (1) 
0.96579538567658219

>  <r_epik_State_Penalty>  (1) 
0.96578762746863478

>  <r_glide_ring_energy>  (1) 
0

>  <r_i_docking_score>  (1) 
-4.1910552016652627

>  <r_i_glide_ecoul>  (1) 
-5.4177090072789698

>  <r_i_glide_eff_state_penalty>  (1) 
0.96578762746863478

>  <r_i_glide_einternal>  (1) 
10.276986394584128

>  <r_i_glide_emodel>  (1) 
-36.985752836785515

>  <r_i_glide_emodel_strain>  (1) 
0.92473122335425728

>  <r_i_glide_energy>  (1) 
-36.11109922707368

>  <r_i_glide_erotb>  (1) 
0.41978570389785574

>  <r_i_glide_esite>  (1) 
-0.057519962662458325

>  <r_i_glide_evdw>  (1) 
-30.693390219794711

>  <r_i_glide_gscore>  (1) 
-5.1568428291338977

>  <r_i_glide_gscore_strain>  (1) 
0

>  <r_i_glide_hbond>  (1) 
-0.16

>  <r_i_glide_ligand_efficiency>  (1) 
-0.11974443433329322

>  <r_i_glide_ligand_efficiency_ln>  (1) 
-0.92002963222418588

>  <r_i_glide_ligand_efficiency_sa>  (1) 
-0.39169198498022539

>  <r_i_glide_lipo>  (1) 
-1.1435091651864664

>  <r_i_glide_metal>  (1) 
-0

>  <r_i_glide_rewards>  (1) 
-1.8682735431012465

>  <r_lp_Energy>  (1) 
65.271344999999997

>  <s_epik_Chemistry_Notes>  (1) 
This compound has an imine and may undergo hydrolysis. This compound contains an acetal/aminal-like group ( X-CH(R)-Y where X, Y are N, S, or O) that may be acid/base labile, releasing an aldehyde.

>  <s_epik_cmdline>  (1) 
J2VwaWtfcHl0aG9uJywgJy1waHQnLCAnMS4wJywgJy1waCcsICc3LjQnLCAnLXRuJywgJzgnLCAnLW1hJywgJzUwMCcsICctaW1hZScsICc8aW5maWxlLm1hZT4nLCAnLW9tYWUnLCAnPG91dGZpbGUubWFlPic=

>  <s_epik_input>  (1) 
W09IXVtDQEBIXTFbTkhdQyg9TylbQ0BIXShbQ0gyXVtDSDJdMilbQ0BIXTFbQ0BASF0oW0NASF0yMylbQ0gyXVtDQEBIXTNbQ0gyXVtDSDJdQzQ9W0NIXVtDSDJdW0NIMl1OKEM0PU8pW0NAQEhdKFtPSF0pW0NAQF0oRikoQzU2W0NIMl1bQ0gyXTYpT0MoPU41KVtOK10oPU8pW08tXQ==

>  <s_glide_docking_method>  (1) 
confgen

>  <s_i_glide_gridfile>  (1) 
gpcr_drd2_6luq_protein_autoprepared_prepared

>  <s_lp_Force_Field>  (1) 
S-OPLS

>  <s_lp_Variant>  (1) 
DiffSBDD_8_num_sample_50-2

>  <s_m_source_file>  (1) 
generated__ligand_DiffSBDD_2026-05-06_prepared.sdf

>  <GenAI_Model>  (1) 
DiffSBDD

>  <Protein>  (1) 
generic_title2

$$$$
DiffSBDD_10_num_sample_50
     RDKit          3D

  0  0  0  0  0  0  0  0  0  0999 V3000
M  V30 BEGIN CTAB
M  V30 COUNTS 73 74 0 0 1
M  V30 BEGIN ATOM
M  V30 1 C 5.983734 6.762154 -21.445074 0 CFG=2
M  V30 2 C 10.132850 7.579781 -10.555872 0
M  V30 3 C 8.993361 4.739928 -14.170979 0
M  V30 4 C 7.536995 3.070328 -17.129636 0 CFG=1
M  V30 5 C 5.626811 6.045322 -20.131694 0 CFG=2
M  V30 6 N 8.258366 8.324778 -11.891705 0
M  V30 7 N 7.004079 2.839946 -19.415662 0
M  V30 8 C 6.483479 4.101493 -18.966776 0 CFG=1
M  V30 9 S 5.480376 8.569902 -21.513415 0
M  V30 10 C 10.030625 8.661095 -9.490734 0
M  V30 11 S 5.245773 8.792593 -23.600602 0 CHG=-1
M  V30 12 C 8.537424 7.061926 -21.751206 0
M  V30 13 O 8.372906 4.969147 -8.349744 0
M  V30 14 O 4.149809 8.783309 -20.924354 0
M  V30 15 C 4.778143 5.848972 -21.379462 0 CFG=2
M  V30 16 C 7.134848 5.564354 -12.541314 0
M  V30 17 C 7.915225 2.305674 -18.409660 0 CFG=1
M  V30 18 N 9.034846 7.034458 -7.890154 0 CHG=1
M  V30 19 N 9.470892 6.437027 -12.539239 0
M  V30 20 C 10.049475 8.091538 -8.061194 0
M  V30 21 C 8.380894 5.416769 -17.871270 0
M  V30 22 C 7.237365 6.427634 -22.267182 0
M  V30 23 C 5.105333 6.732068 -18.870504 0
M  V30 24 C 8.537639 3.008925 -15.959814 0
M  V30 25 C 8.601733 5.637430 -13.044163 0
M  V30 26 O 4.906412 4.553902 -21.932815 0
M  V30 27 C 9.306553 7.465595 -11.612876 0
M  V30 28 O 6.612896 9.406225 -21.091858 0
M  V30 29 F 9.167532 2.549755 -18.792957 0
M  V30 30 N 6.956141 5.769106 -11.091675 0 CHG=1
M  V30 31 C 9.542425 5.657336 -7.961749 0
M  V30 32 C 7.171885 4.473976 -17.639342 0 CFG=2
M  V30 33 O 6.686830 5.105588 -19.908691 0
M  V30 34 C 8.135457 3.907917 -14.802282 0
M  V30 35 H 10.931628 6.867463 -10.433863 0
M  V30 36 H 10.030858 4.796245 -14.471097 0
M  V30 37 H 6.634717 2.571022 -16.770438 0
M  V30 38 H 8.059136 9.124450 -11.305416 0
M  V30 39 H 7.475523 2.933156 -20.304244 0
M  V30 40 H 5.411781 3.959940 -18.821743 0
M  V30 41 H 9.124852 9.251121 -9.629975 0
M  V30 42 H 10.873376 9.343753 -9.606119 0
M  V30 43 H 9.400245 6.624819 -22.253378 0
M  V30 44 H 8.571207 8.133190 -21.941787 0
M  V30 45 H 8.660890 6.900249 -20.680344 0
M  V30 46 H 8.279424 4.194575 -7.813776 0
M  V30 47 H 3.791286 6.284612 -21.491693 0
M  V30 48 H 6.516214 6.267636 -13.098984 0
M  V30 49 H 6.715345 4.572627 -12.683326 0
M  V30 50 H 7.808250 1.225474 -18.302713 0
M  V30 51 H 8.327421 7.178784 -8.609662 0
M  V30 52 H 9.825943 8.894598 -7.357441 0
M  V30 53 H 11.040871 7.717428 -7.799950 0
M  V30 54 H 9.090983 5.007680 -18.589402 0
M  V30 55 H 8.060991 6.385432 -18.255181 0
M  V30 56 H 8.922938 5.614371 -16.948437 0
M  V30 57 H 7.373253 5.346589 -22.284285 0
M  V30 58 H 7.076447 6.713488 -23.305781 0
M  V30 59 H 4.224255 7.333030 -19.067306 0
M  V30 60 H 4.793284 6.004647 -18.124605 0
M  V30 61 H 5.874446 7.370573 -18.438801 0
M  V30 62 H 9.534048 3.297591 -16.293449 0
M  V30 63 H 8.612254 1.981948 -15.601186 0
M  V30 64 H 5.063237 4.647090 -22.860947 0
M  V30 65 H 6.000465 5.588791 -10.821668 0
M  V30 66 H 7.570098 5.161913 -10.566542 0
M  V30 67 H 9.912400 5.369292 -6.981196 0
M  V30 68 H 10.325080 5.517741 -8.704363 0
M  V30 69 H 6.463501 4.969358 -16.976050 0
M  V30 70 H 7.104258 3.853869 -14.503116 0
M  V30 71 H 7.741625 8.269033 -12.758202 0
M  V30 72 H 8.544588 7.152030 -7.012982 0
M  V30 73 H 7.167746 6.733598 -10.832988 0
M  V30 END ATOM
M  V30 BEGIN BOND
M  V30 1 1 5 1
M  V30 2 1 8 7
M  V30 3 1 9 1
M  V30 4 1 10 2
M  V30 5 1 11 9
M  V30 6 2 14 9
M  V30 7 1 15 1
M  V30 8 1 15 5
M  V30 9 1 17 4
M  V30 10 1 17 7
M  V30 11 1 20 10
M  V30 12 1 20 18
M  V30 13 1 1 22 CFG=3
M  V30 14 1 22 12
M  V30 15 1 23 5
M  V30 16 1 24 4
M  V30 17 1 25 3
M  V30 18 1 25 16
M  V30 19 2 25 19
M  V30 20 1 26 15
M  V30 21 2 27 2
M  V30 22 1 27 6
M  V30 23 1 27 19
M  V30 24 2 28 9
M  V30 25 1 29 17
M  V30 26 1 30 16
M  V30 27 1 31 13
M  V30 28 1 31 18
M  V30 29 1 32 4
M  V30 30 1 32 8
M  V30 31 1 32 21
M  V30 32 1 5 33 CFG=1
M  V30 33 1 33 8
M  V30 34 2 34 3
M  V30 35 1 34 24
M  V30 36 1 35 2
M  V30 37 1 36 3
M  V30 38 1 4 37 CFG=1
M  V30 39 1 38 6
M  V30 40 1 39 7
M  V30 41 1 8 40 CFG=1
M  V30 42 1 41 10
M  V30 43 1 42 10
M  V30 44 1 43 12
M  V30 45 1 44 12
M  V30 46 1 45 12
M  V30 47 1 46 13
M  V30 48 1 15 47 CFG=1
M  V30 49 1 48 16
M  V30 50 1 49 16
M  V30 51 1 17 50 CFG=1
M  V30 52 1 51 18
M  V30 53 1 52 20
M  V30 54 1 53 20
M  V30 55 1 54 21
M  V30 56 1 55 21
M  V30 57 1 56 21
M  V30 58 1 57 22
M  V30 59 1 58 22
M  V30 60 1 59 23
M  V30 61 1 60 23
M  V30 62 1 61 23
M  V30 63 1 62 24
M  V30 64 1 63 24
M  V30 65 1 64 26
M  V30 66 1 65 30
M  V30 67 1 66 30
M  V30 68 1 67 31
M  V30 69 1 68 31
M  V30 70 1 32 69 CFG=1
M  V30 71 1 70 34
M  V30 72 1 71 6
M  V30 73 1 72 18
M  V30 74 1 73 30
M  V30 END BOND
M  V30 END CTAB
M  END
>  <i_epik_Tot_Q>  (1) 
1

>  <i_epik_Tot_abs_Q>  (1) 
3

>  <i_i_glide_confnum>  (1) 
3361

>  <i_i_glide_lignum>  (1) 
32

>  <i_i_glide_posenum>  (1) 
397

>  <i_i_glide_rotatable_bonds>  (1) 
15

>  <i_lp_mmshare_version>  (1) 
72125

>  <i_m_source_file_index>  (1) 
11

>  <i_f3d_flags>  (1) 
0

>  <num_sample>  (1) 
50

>  <b_lp_Chiralities_Consistent>  (1) 
1

>  <r_epik_Charging_Adjusted_Penalty>  (1) 
2.168687317063887

>  <r_epik_Ionization_Penalty>  (1) 
1.1047352072338965

>  <r_epik_Ionization_Penalty_Charging>  (1) 
1.0999234457570315

>  <r_epik_Ionization_Penalty_Neutral>  (1) 
0.0048117614768649203

>  <r_epik_State_Penalty>  (1) 
1.0687638713068555

>  <r_glide_ring_energy>  (1) 
0

>  <r_i_docking_score>  (1) 
-4.1910002758745577

>  <r_i_glide_ecoul>  (1) 
-9.2986119385809918

>  <r_i_glide_eff_state_penalty>  (1) 
1.0687638713068555

>  <r_i_glide_einternal>  (1) 
8.7769938805785834

>  <r_i_glide_emodel>  (1) 
-50.211654903740346

>  <r_i_glide_emodel_strain>  (1) 
4.1170154843023283

>  <r_i_glide_energy>  (1) 
-39.750047677931555

>  <r_i_glide_erotb>  (1) 
0.57553451871204087

>  <r_i_glide_esite>  (1) 
-0.31720682137141787

>  <r_i_glide_evdw>  (1) 
-30.451435739350565

>  <r_i_glide_gscore>  (1) 
-5.2597641471814134

>  <r_i_glide_gscore_strain>  (1) 
0.029253871075582083

>  <r_i_glide_hbond>  (1) 
-0.36370400795911273

>  <r_i_glide_ligand_efficiency>  (1) 
-0.12326471399631052

>  <r_i_glide_ligand_efficiency_ln>  (1) 
-0.92590951451662318

>  <r_i_glide_ligand_efficiency_sa>  (1) 
-0.3993298221435414

>  <r_i_glide_lipo>  (1) 
-0.91741641308943633

>  <r_i_glide_metal>  (1) 
-0

>  <r_i_glide_rewards>  (1) 
-1.3488617167943922

>  <r_lp_Energy>  (1) 
27.209377

>  <s_epik_Chemistry_Notes>  (1) 
This compound has an imine and may undergo hydrolysis. This compound contains an acetal/aminal-like group ( X-CH(R)-Y where X, Y are N, S, or O) that may be acid/base labile, releasing an aldehyde.

>  <s_epik_cmdline>  (1) 
J2VwaWtfcHl0aG9uJywgJy1waHQnLCAnMS4wJywgJy1waCcsICc3LjQnLCAnLXRuJywgJzgnLCAnLW1hJywgJzUwMCcsICctaW1hZScsICc8aW5maWxlLm1hZT4nLCAnLW9tYWUnLCAnPG91dGZpbGUubWFlPic=

>  <s_epik_input>  (1) 
W1NIXVMoPU8pKD1PKVtDQEBdMShbQ0gyXVtDSDNdKVtDQEBdKFtDSDNdKShbQ0BASF0xW09IXSlPW0NASF0oW0NAQEhdMltDSDNdKVtOSF1bQ0BASF0oRilbQ0BIXTJbQ0gyXVxbQ0hdPVtDSF1cQyhbQ0gyXVtOSDJdKT1OXEMoPU5cW0hdKVxbQ0gyXVtDSDJdW0NIMl1bTkhdW0NIMl1bT0hd

>  <s_glide_docking_method>  (1) 
confgen

>  <s_i_glide_gridfile>  (1) 
gpcr_drd2_6luq_protein_autoprepared_prepared

>  <s_lp_Force_Field>  (1) 
S-OPLS

>  <s_lp_Variant>  (1) 
DiffSBDD_10_num_sample_50-12

>  <s_m_source_file>  (1) 
generated__ligand_DiffSBDD_2026-05-06_prepared.sdf

>  <GenAI_Model>  (1) 
DiffSBDD

>  <Protein>  (1) 
generic_title2

$$$$
DiffSBDD_25_num_sample_50
     RDKit          3D

  0  0  0  0  0  0  0  0  0  0999 V3000
M  V30 BEGIN CTAB
M  V30 COUNTS 70 75 0 0 1
M  V30 BEGIN ATOM
M  V30 1 C 9.629266 3.353093 -18.608792 0 CFG=2
M  V30 2 C 9.099298 5.874865 -7.779478 0
M  V30 3 C 6.364764 4.186746 -12.325144 0
M  V30 4 C 10.976404 7.311777 -8.357014 0
M  V30 5 S 10.860890 5.552854 -18.199801 0
M  V30 6 C 8.752759 5.769302 -9.138979 0
M  V30 7 C 9.111831 6.347523 -11.596017 0 CFG=2
M  V30 8 C 10.209176 6.647303 -7.390319 0
M  V30 9 C 9.760214 5.141655 -12.351936 0
M  V30 10 C 7.520276 2.557109 -19.259194 0 CFG=2
M  V30 11 C 10.810014 3.789460 -17.763574 0
M  V30 12 C 6.593838 0.100301 -17.171663 0
M  V30 13 C 6.560608 0.702419 -14.004501 0
M  V30 14 C 6.185661 2.183795 -13.799494 0
M  V30 15 N 7.502903 0.844739 -16.363586 0
M  V30 16 F 7.778730 2.036725 -20.462179 0
M  V30 17 O 5.955015 -0.885130 -16.811697 0
M  V30 18 C 10.636118 7.212032 -9.730599 0
M  V30 19 N 6.930830 2.859248 -12.716518 0 CFG=1 CHG=1
M  V30 20 C 9.510871 6.444129 -10.119575 0
M  V30 21 C 8.718845 4.556308 -18.559230 0 CFG=1
M  V30 22 O 9.566280 5.620785 -18.956743 0
M  V30 23 C 6.222234 1.944641 -18.750811 0
M  V30 24 C 12.598417 8.500670 -10.291517 0
M  V30 25 O 11.396631 7.845002 -10.691635 0
M  V30 26 Cl 10.634984 6.778810 -5.723187 0
M  V30 27 C 7.496719 4.120415 -19.374813 0 CFG=1
M  V30 28 N 8.626116 4.277901 -12.254148 0
M  V30 29 C 7.737320 0.436026 -14.966926 0
M  V30 30 C 8.696197 2.166916 -18.332040 0 CFG=2
M  V30 31 C 7.509341 4.662092 -20.815313 0
M  V30 32 C 8.260800 2.032524 -16.850473 0
M  V30 33 C 8.393907 3.045295 -12.959614 0
M  V30 34 C 7.548309 5.092883 -12.558161 0 CFG=2
M  V30 35 O 6.526644 0.601138 -18.428563 0
M  V30 36 O 7.679978 6.169610 -11.723071 0
M  V30 37 H 9.998937 3.244830 -19.631431 0
M  V30 38 H 8.507564 5.369305 -7.035493 0
M  V30 39 H 6.099533 4.187392 -11.266231 0
M  V30 40 H 5.510475 4.515593 -12.918583 0
M  V30 41 H 11.826515 7.895156 -8.043407 0
M  V30 42 H 7.894036 5.182427 -9.429370 0
M  V30 43 H 9.379020 7.277695 -12.098984 0
M  V30 44 H 9.967586 5.378417 -13.396729 0
M  V30 45 H 10.644460 4.720602 -11.891628 0
M  V30 46 H 11.735101 3.275392 -18.025441 0
M  V30 47 H 10.635492 3.697161 -16.691914 0
M  V30 48 H 6.769422 0.238521 -13.039201 0
M  V30 49 H 5.683239 0.173769 -14.378903 0
M  V30 50 H 5.139125 2.206395 -13.491657 0
M  V30 51 H 6.254933 2.756727 -14.722416 0
M  V30 52 H 8.393751 4.759916 -17.536255 0
M  V30 53 H 5.452198 1.974813 -19.522229 0
M  V30 54 H 5.834823 2.482411 -17.891509 0
M  V30 55 H 13.156436 8.848652 -11.157433 0
M  V30 56 H 12.378587 9.370877 -9.673677 0
M  V30 57 H 13.264206 7.830240 -9.746172 0
M  V30 58 H 6.606183 4.515490 -18.884096 0
M  V30 59 H 8.634874 0.895568 -14.566113 0
M  V30 60 H 7.958478 -0.630700 -14.964104 0
M  V30 61 H 9.168528 1.235604 -18.649128 0
M  V30 62 H 8.410663 4.361378 -21.350516 0
M  V30 63 H 6.647377 4.304146 -21.378363 0
M  V30 64 H 7.476790 5.751884 -20.818105 0
M  V30 65 H 7.719455 2.919023 -16.524032 0
M  V30 66 H 9.191412 2.042737 -16.291708 0
M  V30 67 H 8.603916 3.183519 -14.020731 0
M  V30 68 H 8.993237 2.223321 -12.566393 0
M  V30 69 H 7.596765 5.430718 -13.597162 0
M  V30 70 H 6.850329 2.278597 -11.894262 0
M  V30 END ATOM
M  V30 BEGIN BOND
M  V30 1 2 6 2
M  V30 2 1 8 2
M  V30 3 2 8 4
M  V30 4 1 9 7
M  V30 5 1 11 1
M  V30 6 1 11 5
M  V30 7 1 14 13
M  V30 8 1 15 12
M  V30 9 1 10 16 CFG=3
M  V30 10 2 17 12
M  V30 11 1 18 4
M  V30 12 1 19 3
M  V30 13 1 19 14
M  V30 14 1 20 6
M  V30 15 1 20 7
M  V30 16 2 20 18
M  V30 17 1 21 1
M  V30 18 1 22 5
M  V30 19 1 22 21
M  V30 20 1 23 10
M  V30 21 1 25 18
M  V30 22 1 25 24
M  V30 23 1 26 8
M  V30 24 1 27 10
M  V30 25 1 27 21
M  V30 26 1 28 9
M  V30 27 1 29 13
M  V30 28 1 29 15
M  V30 29 1 30 1
M  V30 30 1 30 10
M  V30 31 1 31 27
M  V30 32 1 32 15
M  V30 33 1 32 30
M  V30 34 1 33 19
M  V30 35 1 33 28
M  V30 36 1 34 3
M  V30 37 1 34 28
M  V30 38 1 35 12
M  V30 39 1 35 23
M  V30 40 1 36 7
M  V30 41 1 36 34
M  V30 42 1 1 37 CFG=3
M  V30 43 1 38 2
M  V30 44 1 39 3
M  V30 45 1 40 3
M  V30 46 1 41 4
M  V30 47 1 42 6
M  V30 48 1 7 43 CFG=3
M  V30 49 1 44 9
M  V30 50 1 45 9
M  V30 51 1 46 11
M  V30 52 1 47 11
M  V30 53 1 48 13
M  V30 54 1 49 13
M  V30 55 1 50 14
M  V30 56 1 51 14
M  V30 57 1 21 52 CFG=1
M  V30 58 1 53 23
M  V30 59 1 54 23
M  V30 60 1 55 24
M  V30 61 1 56 24
M  V30 62 1 57 24
M  V30 63 1 27 58 CFG=1
M  V30 64 1 59 29
M  V30 65 1 60 29
M  V30 66 1 30 61 CFG=3
M  V30 67 1 62 31
M  V30 68 1 63 31
M  V30 69 1 64 31
M  V30 70 1 65 32
M  V30 71 1 66 32
M  V30 72 1 67 33
M  V30 73 1 68 33
M  V30 74 1 34 69 CFG=3
M  V30 75 1 19 70 CFG=1
M  V30 END BOND
M  V30 END CTAB
M  END
>  <i_epik_Tot_Q>  (1) 
1

>  <i_epik_Tot_abs_Q>  (1) 
1

>  <i_i_glide_confnum>  (1) 
33

>  <i_i_glide_lignum>  (1) 
67

>  <i_i_glide_posenum>  (1) 
175

>  <i_i_glide_rotatable_bonds>  (1) 
6

>  <i_lp_mmshare_version>  (1) 
72125

>  <i_m_source_file_index>  (1) 
26

>  <i_f3d_flags>  (1) 
0

>  <num_sample>  (1) 
50

>  <b_lp_Chiralities_Consistent>  (1) 
1

>  <r_epik_Charging_Adjusted_Penalty>  (1) 
0.023952579331408368

>  <r_epik_Ionization_Penalty>  (1) 
0.024408664809918493

>  <r_epik_Ionization_Penalty_Charging>  (1) 
0.023952579331408368

>  <r_epik_Ionization_Penalty_Neutral>  (1) 
0.00045608547851012601

>  <r_epik_State_Penalty>  (1) 
-0

>  <r_glide_ring_energy>  (1) 
0

>  <r_i_docking_score>  (1) 
-4.1900765941489038

>  <r_i_glide_ecoul>  (1) 
-0.72441551379422797

>  <r_i_glide_eff_state_penalty>  (1) 
-0

>  <r_i_glide_einternal>  (1) 
7.1590040344384978

>  <r_i_glide_emodel>  (1) 
-43.799107105793617

>  <r_i_glide_emodel_strain>  (1) 
0

>  <r_i_glide_energy>  (1) 
-38.395303701789395

>  <r_i_glide_erotb>  (1) 
0.35075509399968952

>  <r_i_glide_esite>  (1) 
0

>  <r_i_glide_evdw>  (1) 
-37.670888187995168

>  <r_i_glide_gscore>  (1) 
-4.1900765941489038

>  <r_i_glide_gscore_strain>  (1) 
0

>  <r_i_glide_hbond>  (1) 
0

>  <r_i_glide_ligand_efficiency>  (1) 
-0.11639101650413622

>  <r_i_glide_ligand_efficiency_ln>  (1) 
-0.91416151005591106

>  <r_i_glide_ligand_efficiency_sa>  (1) 
-0.38431466892155164

>  <r_i_glide_lipo>  (1) 
-1.5294342297972321

>  <r_i_glide_metal>  (1) 
-0

>  <r_i_glide_rewards>  (1) 
-1.0191907218824687

>  <r_lp_Energy>  (1) 
70.690685999999999

>  <r_lp_tautomer_probability>  (1) 
1

>  <s_epik_Chemistry_Notes>  (1) 
This compound has an ester and may undergo hydrolysis at high or low pH. This compound contains an acetal/aminal-like group ( X-CH(R)-Y where X, Y are N, S, or O) that may be acid/base labile, releasing an aldehyde.

>  <s_epik_cmdline>  (1) 
J2VwaWtfcHl0aG9uJywgJy1waHQnLCAnMS4wJywgJy1waCcsICc3LjQnLCAnLXRuJywgJzgnLCAnLW1hJywgJzUwMCcsICctaW1hZScsICc8aW5maWxlLm1hZT4nLCAnLW9tYWUnLCAnPG91dGZpbGUubWFlPic=

>  <s_epik_input>  (1) 
W0NIMl0xU09bQ0BASF0oW0NASF0yW0NIM10pW0NAQEhdMVtDQEhdKFtDQF0yM0YpW0NIMl1OKEMoPU8pT1tDSDJdMylbQ0gyXVtDSDJdW0NIMl1OKFtDSDJdNClbQ0gyXVtDQEhdKE40NSlPW0NASF0oW0NIMl01KWMoW2NIXVtjSF1jNkNsKWMoW2NIXTYpT1tDSDNd

>  <s_glide_docking_method>  (1) 
confgen

>  <s_i_glide_gridfile>  (1) 
gpcr_drd2_6luq_protein_autoprepared_prepared

>  <s_lp_Force_Field>  (1) 
S-OPLS

>  <s_lp_Variant>  (1) 
DiffSBDD_25_num_sample_50-1

>  <s_m_source_file>  (1) 
generated__ligand_DiffSBDD_2026-05-06_prepared.sdf

>  <GenAI_Model>  (1) 
DiffSBDD

>  <Protein>  (1) 
generic_title2

$$$$
DiffSBDD_34_num_sample_50
     RDKit          3D

  0  0  0  0  0  0  0  0  0  0999 V3000
M  V30 BEGIN CTAB
M  V30 COUNTS 109 114 0 0 1
M  V30 BEGIN ATOM
M  V30 1 C 9.750214 3.991447 -18.317913 0
M  V30 2 C 6.647005 0.605675 -15.391100 0
M  V30 3 C 6.205355 2.389065 -13.563805 0
M  V30 4 C 13.039271 4.188247 -17.693775 0
M  V30 5 C 9.489784 5.239629 -11.382836 0
M  V30 6 C 14.161296 8.753147 -21.358143 0 CFG=1
M  V30 7 C 6.560101 0.339279 -16.921455 0 CFG=2
M  V30 8 C 5.507220 3.763662 -13.344218 0
M  V30 9 O 11.262183 3.952749 -20.170373 0
M  V30 10 C 15.783105 6.249407 -18.303535 0 CFG=1
M  V30 11 N 15.905265 7.902782 -22.960645 0 CHG=1
M  V30 12 C 12.658589 3.665853 -20.189424 0 CFG=1
M  V30 13 O 9.603583 -0.111676 -19.829377 0
M  V30 14 C 6.772059 2.103066 -14.997576 0 CFG=1
M  V30 15 C 9.520065 2.273335 -20.228662 0
M  V30 16 F 12.553431 3.159430 -22.484358 0
M  V30 17 C 13.065051 5.394557 -21.981257 0
M  V30 18 C 11.034074 7.019784 -12.243674 0
M  V30 19 O 13.327348 7.602933 -21.405940 0
M  V30 20 C 8.188172 2.647437 -15.163059 0
M  V30 21 C 5.750043 -0.931233 -17.234389 0
M  V30 22 C 7.930402 0.252525 -17.610424 0
M  V30 23 C 9.668417 6.348978 -12.366789 0 CFG=2
M  V30 24 C 11.814712 4.901263 -17.075238 0
M  V30 25 O 6.021414 7.306796 -12.425302 0
M  V30 26 O 8.065493 1.156165 -18.640128 0
M  V30 27 C 9.652889 4.699021 -15.836434 0
M  V30 28 C 7.041657 6.633175 -12.263934 0
M  V30 29 C 13.198702 3.921900 -21.601769 0 CFG=1
M  V30 30 C 13.429365 4.528886 -19.161274 0 CFG=1
M  V30 31 C 9.077914 0.969486 -19.551661 0
M  V30 32 O 8.793516 -0.548785 -17.238813 0
M  V30 33 O 8.612699 8.515785 -12.291640 0
M  V30 34 C 8.265683 4.486738 -11.804207 0
M  V30 35 C 10.502310 4.088242 -16.977036 0 CFG=1
M  V30 36 C 15.063180 8.869565 -20.120210 0
M  V30 37 C 14.395710 6.873550 -18.543294 0 CFG=1
M  V30 38 C 14.403840 8.400896 -18.809138 0
M  V30 39 C 5.630979 3.709029 -10.697889 0
M  V30 40 C 13.820148 6.323857 -21.015181 0 CFG=1
M  V30 41 C 14.901650 8.951626 -22.695812 0
M  V30 42 O 16.740270 6.316383 -19.367806 0
M  V30 43 C 5.781050 4.518052 -12.006963 0 CFG=1
M  V30 44 C 8.465150 7.292680 -12.292077 0
M  V30 45 C 13.480277 6.059618 -19.518690 0 CFG=1
M  V30 46 N 7.044939 5.274281 -12.044368 0
M  V30 47 C 10.474696 3.101140 -19.342600 0 CFG=2
M  V30 48 C 8.244763 4.134083 -15.578123 0
M  V30 49 C 17.079911 7.003447 -18.150360 0
M  V30 50 H 8.768423 3.561857 -18.138341 0
M  V30 51 H 9.558097 4.982996 -18.730761 0
M  V30 52 H 7.446658 0.020756 -14.932939 0
M  V30 53 H 5.730628 0.210619 -14.952721 0
M  V30 54 H 6.978550 2.220622 -12.816682 0
M  V30 55 H 5.460218 1.633128 -13.318011 0
M  V30 56 H 13.887780 4.434944 -17.057724 0
M  V30 57 H 12.945703 3.109435 -17.572271 0
M  V30 58 H 9.429655 5.598126 -10.352911 0
M  V30 59 H 10.305013 4.532412 -11.469287 0
M  V30 60 H 13.449444 9.574714 -21.298794 0
M  V30 61 H 6.018929 1.167488 -17.379760 0
M  V30 62 H 4.432387 3.600438 -13.420219 0
M  V30 63 H 5.722066 4.435140 -14.173441 0
M  V30 64 H 15.770410 5.290055 -17.794850 0
M  V30 65 H 16.398541 8.112587 -23.816362 0
M  V30 66 H 16.564252 7.854605 -22.196292 0
M  V30 67 H 12.840311 2.608423 -19.987758 0
M  V30 68 H 6.234807 2.650424 -15.747185 0
M  V30 69 H 8.651680 2.862476 -20.523614 0
M  V30 70 H 10.037098 1.998294 -21.148713 0
M  V30 71 H 13.428624 5.548141 -22.997249 0
M  V30 72 H 12.007062 5.661332 -21.996986 0
M  V30 73 H 11.176042 7.686585 -13.089908 0
M  V30 74 H 11.130289 7.581636 -11.313247 0
M  V30 75 H 11.836825 6.286406 -12.291772 0
M  V30 76 H 8.634819 2.467770 -14.197614 0
M  V30 77 H 8.748613 2.067255 -15.891246 0
M  V30 78 H 5.721584 -1.134286 -18.305691 0
M  V30 79 H 6.172866 -1.807754 -16.740946 0
M  V30 80 H 4.716649 -0.830315 -16.899809 0
M  V30 81 H 9.634022 5.914738 -13.362068 0
M  V30 82 H 11.614098 5.867791 -17.532383 0
M  V30 83 H 12.116227 5.152966 -16.057100 0
M  V30 84 H 9.550192 5.769144 -16.013397 0
M  V30 85 H 10.221402 4.607661 -14.911787 0
M  V30 86 H 14.245572 3.620590 -21.660232 0
M  V30 87 H 14.451998 4.166107 -19.266608 0
M  V30 88 H 8.110219 3.769048 -11.016115 0
M  V30 89 H 8.500540 3.929584 -12.701897 0
M  V30 90 H 10.756624 3.069958 -16.691661 0
M  V30 91 H 16.006556 8.364252 -20.292152 0
M  V30 92 H 15.332950 9.921574 -20.009201 0
M  V30 93 H 13.912844 6.800134 -17.568663 0
M  V30 94 H 14.904752 8.892724 -17.973587 0
M  V30 95 H 13.380876 8.774027 -18.778797 0
M  V30 96 H 4.634854 3.761191 -10.291703 0
M  V30 97 H 5.834839 2.652414 -10.844720 0
M  V30 98 H 6.265524 4.085644 -9.894194 0
M  V30 99 H 14.889421 6.212898 -21.190642 0
M  V30 100 H 14.184295 8.964879 -23.517802 0
M  V30 101 H 15.402796 9.920581 -22.701888 0
M  V30 102 H 4.977267 5.243893 -11.927719 0
M  V30 103 H 12.465197 6.440686 -19.404987 0
M  V30 104 H 11.098883 2.388249 -18.799149 0
M  V30 105 H 7.618961 4.307611 -16.452601 0
M  V30 106 H 7.799975 4.741595 -14.793659 0
M  V30 107 H 17.108210 8.086812 -18.233152 0
M  V30 108 H 17.882516 6.541381 -17.579469 0
M  V30 109 H 15.436992 7.012487 -23.052289 0
M  V30 END ATOM
M  V30 BEGIN BOND
M  V30 1 1 7 2
M  V30 2 1 8 3
M  V30 3 1 12 9
M  V30 4 1 14 2
M  V30 5 1 14 3
M  V30 6 1 19 6
M  V30 7 1 20 14
M  V30 8 1 21 7
M  V30 9 1 22 7
M  V30 10 1 23 5
M  V30 11 1 23 18
M  V30 12 1 24 4
M  V30 13 1 26 22
M  V30 14 2 28 25
M  V30 15 1 29 12
M  V30 16 1 29 16
M  V30 17 1 29 17
M  V30 18 1 30 4
M  V30 19 1 30 12
M  V30 20 2 31 13
M  V30 21 1 31 15
M  V30 22 1 31 26
M  V30 23 2 32 22
M  V30 24 1 34 5
M  V30 25 1 35 1
M  V30 26 1 35 24
M  V30 27 1 35 27
M  V30 28 1 36 6
M  V30 29 1 37 10
M  V30 30 1 38 36
M  V30 31 1 38 37
M  V30 32 1 40 17
M  V30 33 1 40 19
M  V30 34 1 41 6
M  V30 35 1 41 11
M  V30 36 1 42 10
M  V30 37 1 43 8
M  V30 38 1 43 39
M  V30 39 1 44 23
M  V30 40 1 44 28
M  V30 41 2 44 33
M  V30 42 1 45 30
M  V30 43 1 45 37
M  V30 44 1 45 40
M  V30 45 1 46 28
M  V30 46 1 46 34
M  V30 47 1 46 43
M  V30 48 1 47 1
M  V30 49 1 47 9
M  V30 50 1 47 15
M  V30 51 1 48 20
M  V30 52 1 48 27
M  V30 53 1 49 10
M  V30 54 1 49 42
M  V30 55 1 50 1
M  V30 56 1 51 1
M  V30 57 1 52 2
M  V30 58 1 53 2
M  V30 59 1 54 3
M  V30 60 1 55 3
M  V30 61 1 56 4
M  V30 62 1 57 4
M  V30 63 1 58 5
M  V30 64 1 59 5
M  V30 65 1 6 60 CFG=1
M  V30 66 1 7 61 CFG=3
M  V30 67 1 62 8
M  V30 68 1 63 8
M  V30 69 1 10 64 CFG=1
M  V30 70 1 65 11
M  V30 71 1 66 11
M  V30 72 1 12 67 CFG=1
M  V30 73 1 14 68 CFG=3
M  V30 74 1 69 15
M  V30 75 1 70 15
M  V30 76 1 71 17
M  V30 77 1 72 17
M  V30 78 1 73 18
M  V30 79 1 74 18
M  V30 80 1 75 18
M  V30 81 1 76 20
M  V30 82 1 77 20
M  V30 83 1 78 21
M  V30 84 1 79 21
M  V30 85 1 80 21
M  V30 86 1 23 81 CFG=3
M  V30 87 1 82 24
M  V30 88 1 83 24
M  V30 89 1 84 27
M  V30 90 1 85 27
M  V30 91 1 29 86 CFG=1
M  V30 92 1 30 87 CFG=1
M  V30 93 1 88 34
M  V30 94 1 89 34
M  V30 95 1 35 90 CFG=1
M  V30 96 1 91 36
M  V30 97 1 92 36
M  V30 98 1 37 93 CFG=1
M  V30 99 1 94 38
M  V30 100 1 95 38
M  V30 101 1 96 39
M  V30 102 1 97 39
M  V30 103 1 98 39
M  V30 104 1 40 99 CFG=1
M  V30 105 1 100 41
M  V30 106 1 101 41
M  V30 107 1 43 102 CFG=1
M  V30 108 1 45 103 CFG=3
M  V30 109 1 47 104 CFG=1
M  V30 110 1 105 48
M  V30 111 1 106 48
M  V30 112 1 107 49
M  V30 113 1 108 49
M  V30 114 1 109 11
M  V30 END BOND
M  V30 END CTAB
M  END
>  <i_epik_Tot_Q>  (1) 
1

>  <i_epik_Tot_abs_Q>  (1) 
1

>  <i_i_glide_confnum>  (1) 
339

>  <i_i_glide_lignum>  (1) 
88

>  <i_i_glide_posenum>  (1) 
120

>  <i_i_glide_rotatable_bonds>  (1) 
6

>  <i_lp_mmshare_version>  (1) 
72125

>  <i_m_source_file_index>  (1) 
35

>  <i_f3d_flags>  (1) 
0

>  <num_sample>  (1) 
50

>  <b_lp_Chiralities_Consistent>  (1) 
1

>  <r_epik_Charging_Adjusted_Penalty>  (1) 
0.0091647518509246212

>  <r_epik_Ionization_Penalty>  (1) 
0.0045823761218381463

>  <r_epik_Ionization_Penalty_Charging>  (1) 
0.0045823759254623037

>  <r_epik_Ionization_Penalty_Neutral>  (1) 
1.9637584269267853e-10

>  <r_epik_State_Penalty>  (1) 
0.0045823759254623184

>  <r_glide_ring_energy>  (1) 
0

>  <r_i_docking_score>  (1) 
-4.1748123273640587

>  <r_i_glide_ecoul>  (1) 
-2.8644922382440194

>  <r_i_glide_eff_state_penalty>  (1) 
0.0045823759254623184

>  <r_i_glide_einternal>  (1) 
37.645772704870325

>  <r_i_glide_emodel>  (1) 
-16.118461216062386

>  <r_i_glide_emodel_strain>  (1) 
1.0765739562051806

>  <r_i_glide_energy>  (1) 
-34.034430464934417

>  <r_i_glide_erotb>  (1) 
0.051949520036259446

>  <r_i_glide_esite>  (1) 
-0.1382336473728753

>  <r_i_glide_evdw>  (1) 
-31.169938226690398

>  <r_i_glide_gscore>  (1) 
-4.1793947032895211

>  <r_i_glide_gscore_strain>  (1) 
0

>  <r_i_glide_hbond>  (1) 
0

>  <r_i_glide_ligand_efficiency>  (1) 
-0.085200251578858341

>  <r_i_glide_ligand_efficiency_ln>  (1) 
-0.85342716472567504

>  <r_i_glide_ligand_efficiency_sa>  (1) 
-0.31177376709791005

>  <r_i_glide_lipo>  (1) 
-1.737884607726037

>  <r_i_glide_metal>  (1) 
-0

>  <r_i_glide_rewards>  (1) 
-0.36705522115574563

>  <r_lp_Energy>  (1) 
80.647393999999991

>  <r_lp_tautomer_probability>  (1) 
0.99995000000000001

>  <s_epik_cmdline>  (1) 
J2VwaWtfcHl0aG9uJywgJy1waHQnLCAnMS4wJywgJy1waCcsICc3LjQnLCAnLXRuJywgJzgnLCAnLW1hJywgJzUwMCcsICctaW1hZScsICc8aW5maWxlLm1hZT4nLCAnLW9tYWUnLCAnPG91dGZpbGUubWFlPic=

>  <s_epik_input>  (1) 
W0NIMl0xT1tDQEBIXTFbQ0BIXTJbQ0gyXVtDSDJdW0NASF0oW0NIMl1bTkgyXSlPW0NASF0oW0NIMl1bQ0BASF0zRilbQ0BIXTJbQ0BIXShbQ0BIXTM0KVtDSDJdW0NIMl1bQ0BASF01W0NIMl1bQ0BIXShPNClbQ0gyXUMoPU8pT0MoPU8pW0NAQEhdKFtDSDNdKVtDSDJdW0NASF0oW0NIMl1bQ0gyXVtDSDJdNSlbQ0gyXVtDSDJdW0NAQEhdKFtDSDNdKU4oQyg9TylDNj1PKVtDSDJdW0NIMl1bQ0BASF02W0NIM10=

>  <s_glide_docking_method>  (1) 
confgen

>  <s_i_glide_gridfile>  (1) 
gpcr_drd2_6luq_protein_autoprepared_prepared

>  <s_lp_Force_Field>  (1) 
S-OPLS

>  <s_lp_Variant>  (1) 
DiffSBDD_34_num_sample_50-2

>  <s_m_source_file>  (1) 
generated__ligand_DiffSBDD_2026-05-06_prepared.sdf

>  <GenAI_Model>  (1) 
DiffSBDD

>  <Protein>  (1) 
generic_title2

$$$$
DiffSBDD_10_num_sample_50
     RDKit          3D

  0  0  0  0  0  0  0  0  0  0999 V3000
M  V30 BEGIN CTAB
M  V30 COUNTS 72 73 0 0 1
M  V30 BEGIN ATOM
M  V30 1 C 5.755560 5.546268 -21.415438 0 CFG=2
M  V30 2 C 8.104266 4.248337 -11.519438 0
M  V30 3 C 7.282609 3.114826 -14.515518 0
M  V30 4 C 8.326963 4.750690 -16.861918 0 CFG=1
M  V30 5 C 7.089101 6.165406 -20.957021 0 CFG=2
M  V30 6 N 5.912257 5.222658 -11.793281 0
M  V30 7 N 7.034834 6.507575 -17.827916 0
M  V30 8 C 8.056627 6.210972 -18.766257 0 CFG=1
M  V30 9 S 5.434858 5.506078 -23.254244 0
M  V30 10 C 8.775074 5.505559 -10.992521 0
M  V30 11 S 3.434904 6.169296 -23.197088 0 CHG=-1
M  V30 12 C 5.609494 3.038783 -20.796519 0
M  V30 13 O 9.834873 8.026335 -7.178346 0
M  V30 14 O 6.211065 6.543642 -23.946907 0
M  V30 15 C 5.804273 6.988249 -20.952661 0 CFG=2
M  V30 16 C 5.841354 1.082167 -13.802032 0
M  V30 17 C 6.897680 5.331497 -16.994331 0 CFG=2
M  V30 18 N 9.434804 6.695097 -8.899111 0 CHG=1
M  V30 19 N 6.234990 2.989540 -12.329194 0
M  V30 20 C 9.020178 5.401979 -9.479861 0
M  V30 21 C 9.927892 4.470535 -18.976104 0
M  V30 22 C 5.020685 4.447456 -20.635510 0
M  V30 23 C 8.266029 6.481662 -21.867240 0
M  V30 24 C 8.387647 3.203104 -16.797708 0
M  V30 25 C 6.452877 2.445619 -13.465049 0
M  V30 26 O 5.154311 7.233349 -19.718720 0
M  V30 27 C 6.802459 4.174244 -11.867338 0
M  V30 28 O 5.426853 4.120905 -23.746605 0
M  V30 29 F 6.354205 5.672346 -15.826023 0
M  V30 30 N 6.634900 -0.022611 -13.298551 0
M  V30 31 C 9.554468 6.669129 -7.432436 0
M  V30 32 C 9.118947 5.383859 -18.031165 0 CFG=2
M  V30 33 O 7.516279 5.449674 -19.799513 0
M  V30 34 C 7.561792 2.542336 -15.705719 0
M  V30 35 H 8.730162 3.370449 -11.606736 0
M  V30 36 H 7.651838 4.098226 -14.271583 0
M  V30 37 H 8.767079 5.144505 -15.944987 0
M  V30 38 H 6.173005 6.112127 -11.387276 0
M  V30 39 H 6.165947 6.743420 -18.309001 0
M  V30 40 H 8.481760 7.132035 -19.165991 0
M  V30 41 H 8.158684 6.378967 -11.207983 0
M  V30 42 H 9.712933 5.652582 -11.529548 0
M  V30 43 H 5.144790 2.349570 -20.091653 0
M  V30 44 H 5.442228 2.630969 -21.791328 0
M  V30 45 H 6.682558 3.034240 -20.604816 0
M  V30 46 H 9.110809 8.387323 -6.685778 0
M  V30 47 H 5.681097 7.794947 -21.673146 0
M  V30 48 H 4.872867 1.016495 -13.307458 0
M  V30 49 H 5.617082 0.959593 -14.859139 0
M  V30 50 H 6.236016 4.624722 -17.493314 0
M  V30 51 H 8.694447 7.360088 -9.118059 0
M  V30 52 H 9.773800 4.642127 -9.267634 0
M  V30 53 H 8.097968 5.086466 -8.988166 0
M  V30 54 H 9.303772 3.723238 -19.465968 0
M  V30 55 H 10.410634 5.056928 -19.757962 0
M  V30 56 H 10.714555 3.944288 -18.436114 0
M  V30 57 H 5.035650 4.692775 -19.575227 0
M  V30 58 H 3.969828 4.446865 -20.923781 0
M  V30 59 H 8.036114 7.312608 -22.532428 0
M  V30 60 H 9.139424 6.776273 -21.286469 0
M  V30 61 H 8.531368 5.606104 -22.460593 0
M  V30 62 H 9.417779 2.863057 -16.691688 0
M  V30 63 H 8.022501 2.800689 -17.743088 0
M  V30 64 H 4.239382 7.387918 -19.906110 0
M  V30 65 H 6.107254 -0.886832 -13.407865 0
M  V30 66 H 7.472806 -0.128226 -13.852612 0
M  V30 67 H 10.371240 6.023545 -7.105923 0
M  V30 68 H 8.625349 6.365896 -6.947551 0
M  V30 69 H 9.815095 6.103368 -17.597237 0
M  V30 70 H 7.193841 1.555655 -15.930839 0
M  V30 71 H 4.934368 5.097904 -12.000331 0
M  V30 72 H 10.300437 7.012771 -9.307333 0
M  V30 END ATOM
M  V30 BEGIN BOND
M  V30 1 1 5 1
M  V30 2 1 8 7
M  V30 3 1 9 1
M  V30 4 1 10 2
M  V30 5 1 11 9
M  V30 6 2 14 9
M  V30 7 1 15 1
M  V30 8 1 15 5
M  V30 9 1 17 4
M  V30 10 1 17 7
M  V30 11 1 20 10
M  V30 12 1 20 18
M  V30 13 1 1 22 CFG=1
M  V30 14 1 22 12
M  V30 15 1 23 5
M  V30 16 1 24 4
M  V30 17 1 25 3
M  V30 18 1 25 16
M  V30 19 2 25 19
M  V30 20 1 26 15
M  V30 21 2 27 2
M  V30 22 1 27 6
M  V30 23 1 27 19
M  V30 24 2 28 9
M  V30 25 1 29 17
M  V30 26 1 30 16
M  V30 27 1 31 13
M  V30 28 1 31 18
M  V30 29 1 32 4
M  V30 30 1 32 8
M  V30 31 1 32 21
M  V30 32 1 5 33 CFG=1
M  V30 33 1 33 8
M  V30 34 2 34 3
M  V30 35 1 34 24
M  V30 36 1 35 2
M  V30 37 1 36 3
M  V30 38 1 4 37 CFG=1
M  V30 39 1 38 6
M  V30 40 1 39 7
M  V30 41 1 8 40 CFG=3
M  V30 42 1 41 10
M  V30 43 1 42 10
M  V30 44 1 43 12
M  V30 45 1 44 12
M  V30 46 1 45 12
M  V30 47 1 46 13
M  V30 48 1 15 47 CFG=3
M  V30 49 1 48 16
M  V30 50 1 49 16
M  V30 51 1 17 50 CFG=3
M  V30 52 1 51 18
M  V30 53 1 52 20
M  V30 54 1 53 20
M  V30 55 1 54 21
M  V30 56 1 55 21
M  V30 57 1 56 21
M  V30 58 1 57 22
M  V30 59 1 58 22
M  V30 60 1 59 23
M  V30 61 1 60 23
M  V30 62 1 61 23
M  V30 63 1 62 24
M  V30 64 1 63 24
M  V30 65 1 64 26
M  V30 66 1 65 30
M  V30 67 1 66 30
M  V30 68 1 67 31
M  V30 69 1 68 31
M  V30 70 1 32 69 CFG=1
M  V30 71 1 70 34
M  V30 72 1 71 6
M  V30 73 1 72 18
M  V30 END BOND
M  V30 END CTAB
M  END
>  <i_epik_Tot_Q>  (1) 
0

>  <i_epik_Tot_abs_Q>  (1) 
2

>  <i_i_glide_confnum>  (1) 
3061

>  <i_i_glide_lignum>  (1) 
26

>  <i_i_glide_posenum>  (1) 
43

>  <i_i_glide_rotatable_bonds>  (1) 
15

>  <i_lp_mmshare_version>  (1) 
72125

>  <i_m_source_file_index>  (1) 
11

>  <i_f3d_flags>  (1) 
0

>  <num_sample>  (1) 
50

>  <b_lp_Chiralities_Consistent>  (1) 
1

>  <r_epik_Charging_Adjusted_Penalty>  (1) 
0.33639934582642134

>  <r_epik_Ionization_Penalty>  (1) 
0.23315943830934333

>  <r_epik_Ionization_Penalty_Charging>  (1) 
0.10316865490585193

>  <r_epik_Ionization_Penalty_Neutral>  (1) 
0.12999078340349141

>  <r_epik_State_Penalty>  (1) 
0.23323069092056939

>  <r_glide_ring_energy>  (1) 
0

>  <r_i_docking_score>  (1) 
-4.1616769128725135

>  <r_i_glide_ecoul>  (1) 
-7.1402268111718445

>  <r_i_glide_eff_state_penalty>  (1) 
0.23323069092056939

>  <r_i_glide_einternal>  (1) 
6.3175726920740907

>  <r_i_glide_emodel>  (1) 
-49.450525663254425

>  <r_i_glide_emodel_strain>  (1) 
0.23002729960606416

>  <r_i_glide_energy>  (1) 
-38.350885981318896

>  <r_i_glide_erotb>  (1) 
0.82510599487301828

>  <r_i_glide_esite>  (1) 
-0.17650233492036377

>  <r_i_glide_evdw>  (1) 
-31.21065917014705

>  <r_i_glide_gscore>  (1) 
-4.394907603793083

>  <r_i_glide_gscore_strain>  (1) 
0

>  <r_i_glide_hbond>  (1) 
-0.42429398525917061

>  <r_i_glide_ligand_efficiency>  (1) 
-0.12240226214330922

>  <r_i_glide_ligand_efficiency_ln>  (1) 
-0.91943116113699908

>  <r_i_glide_ligand_efficiency_sa>  (1) 
-0.39653581294252477

>  <r_i_glide_lipo>  (1) 
-1.2267723233266632

>  <r_i_glide_metal>  (1) 
-0

>  <r_i_glide_rewards>  (1) 
-0.76087797497677478

>  <r_lp_Energy>  (1) 
25.865628999999998

>  <s_epik_Chemistry_Notes>  (1) 
This compound has an imine and may undergo hydrolysis. This compound contains an acetal/aminal-like group ( X-CH(R)-Y where X, Y are N, S, or O) that may be acid/base labile, releasing an aldehyde.

>  <s_epik_cmdline>  (1) 
J2VwaWtfcHl0aG9uJywgJy1waHQnLCAnMS4wJywgJy1waCcsICc3LjQnLCAnLXRuJywgJzgnLCAnLW1hJywgJzUwMCcsICctaW1hZScsICc8aW5maWxlLm1hZT4nLCAnLW9tYWUnLCAnPG91dGZpbGUubWFlPic=

>  <s_epik_input>  (1) 
W1NIXVMoPU8pKD1PKVtDQEBdMShbQ0gyXVtDSDNdKVtDQEBdKFtDSDNdKShbQ0BASF0xW09IXSlPW0NASF0oW0NAQEhdMltDSDNdKVtOSF1bQ0BASF0oRilbQ0BIXTJbQ0gyXVxbQ0hdPVtDSF1cQyhbQ0gyXVtOSDJdKT1OL0MoPU4vW0hdKS9bQ0gyXVtDSDJdW0NIMl1bTkhdW0NIMl1bT0hd

>  <s_glide_docking_method>  (1) 
confgen

>  <s_i_glide_gridfile>  (1) 
gpcr_drd2_6luq_protein_autoprepared_prepared

>  <s_lp_Force_Field>  (1) 
S-OPLS

>  <s_lp_Variant>  (1) 
DiffSBDD_10_num_sample_50-6

>  <s_m_source_file>  (1) 
generated__ligand_DiffSBDD_2026-05-06_prepared.sdf

>  <GenAI_Model>  (1) 
DiffSBDD

>  <Protein>  (1) 
generic_title2

$$$$
DiffSBDD_46_num_sample_50
     RDKit          3D

  0  0  0  0  0  0  0  0  0  0999 V3000
M  V30 BEGIN CTAB
M  V30 COUNTS 66 68 0 0 1
M  V30 BEGIN ATOM
M  V30 1 O 5.876501 7.477375 -15.418125 0
M  V30 2 C 7.825238 2.802139 -18.464849 0
M  V30 3 C 6.357781 6.689624 -14.687825 0
M  V30 4 C 8.404972 4.164168 -18.881956 0
M  V30 5 O 6.797292 1.184473 -16.064680 0
M  V30 6 O 7.193298 3.389789 -14.195491 0
M  V30 7 O 12.733377 8.569303 -8.785603 0
M  V30 8 O 9.035069 5.866414 -10.831552 0
M  V30 9 C 7.090743 4.571234 -11.326514 0
M  V30 10 N 8.811770 0.625789 -17.834229 0
M  V30 11 C 11.648119 8.129729 -8.415838 0
M  V30 12 O 6.781084 2.393537 -18.973533 0
M  V30 13 O 11.703137 9.541363 -6.549698 0
M  V30 14 C 11.295022 10.169339 -4.349383 0
M  V30 15 C 7.309275 5.142190 -19.344308 0
M  V30 16 F 8.634570 4.230164 -15.654595 0
M  V30 17 N 11.084891 8.486328 -7.239930 0
M  V30 18 C 7.944179 2.022189 -15.985543 0 CFG=2
M  V30 19 C 10.832877 7.187180 -9.186774 0
M  V30 20 C 8.044629 5.455694 -11.693759 0
M  V30 21 C 9.489128 3.985637 -19.955526 0
M  V30 22 C 8.899277 5.609502 -9.437096 0
M  V30 23 C 6.300362 4.399405 -13.730021 0 CFG=1
M  V30 24 C 7.547163 3.433177 -15.506340 0 CFG=1
M  V30 25 C 9.312935 6.812014 -7.214892 0
M  V30 26 C 7.109682 -0.200535 -16.256818 0
M  V30 27 C 8.138885 6.100899 -13.064592 0
M  V30 28 C 12.079838 9.203977 -5.227419 0
M  V30 29 C 9.744667 8.184424 -6.741776 0
M  V30 30 C 8.596243 2.002031 -17.392667 0 CFG=2
M  V30 31 C 9.750367 6.579542 -8.644022 0
M  V30 32 C 5.988269 4.098585 -12.252688 0
M  V30 33 O 8.248646 -1.555983 -17.891881 0
M  V30 34 C 6.896120 5.794718 -13.888071 0
M  V30 35 C 8.110602 -0.435795 -17.407997 0
M  V30 36 H 8.879997 4.598897 -18.003434 0
M  V30 37 H 7.084463 4.160483 -10.330387 0
M  V30 38 H 9.463826 0.475588 -18.588831 0
M  V30 39 H 11.548081 10.088633 -3.292054 0
M  V30 40 H 11.434847 11.189453 -4.691772 0
M  V30 41 H 10.234830 10.040566 -4.473245 0
M  V30 42 H 6.528087 5.249480 -18.590425 0
M  V30 43 H 7.724022 6.134177 -19.525862 0
M  V30 44 H 6.836279 4.806941 -20.268139 0
M  V30 45 H 8.634829 1.598511 -15.255939 0
M  V30 46 H 11.112309 6.969325 -10.205249 0
M  V30 47 H 10.307373 3.359426 -19.598425 0
M  V30 48 H 9.084410 3.524132 -20.857264 0
M  V30 49 H 9.917084 4.947920 -20.237796 0
M  V30 50 H 9.180728 4.584041 -9.195667 0
M  V30 51 H 7.867277 5.768637 -9.122853 0
M  V30 52 H 5.372487 4.318688 -14.291745 0
M  V30 53 H 6.735023 3.824274 -16.116470 0
M  V30 54 H 8.235400 6.702991 -7.105365 0
M  V30 55 H 9.765387 6.038091 -6.594205 0
M  V30 56 H 7.534824 -0.607524 -15.338725 0
M  V30 57 H 6.188452 -0.749247 -16.452986 0
M  V30 58 H 8.284627 7.177179 -12.955319 0
M  V30 59 H 9.016830 5.699679 -13.570236 0
M  V30 60 H 11.871963 8.167384 -4.954457 0
M  V30 61 H 13.151062 9.369227 -5.108737 0
M  V30 62 H 9.059533 8.942091 -7.124772 0
M  V30 63 H 9.679354 8.211119 -5.657811 0
M  V30 64 H 9.589384 2.442680 -17.296114 0
M  V30 65 H 5.835837 3.028805 -12.114012 0
M  V30 66 H 5.064726 4.593725 -11.951162 0
M  V30 END ATOM
M  V30 BEGIN BOND
M  V30 1 2 3 1
M  V30 2 1 4 2
M  V30 3 2 11 7
M  V30 4 2 12 2
M  V30 5 1 15 4
M  V30 6 1 17 11
M  V30 7 1 17 13
M  V30 8 1 18 5
M  V30 9 1 19 11
M  V30 10 1 20 8
M  V30 11 2 20 9
M  V30 12 1 21 4
M  V30 13 1 22 8
M  V30 14 1 23 6
M  V30 15 1 24 6
M  V30 16 1 24 16
M  V30 17 1 24 18
M  V30 18 1 26 5
M  V30 19 1 27 20
M  V30 20 1 28 13
M  V30 21 1 28 14
M  V30 22 1 29 17
M  V30 23 1 29 25
M  V30 24 1 30 2
M  V30 25 1 30 10
M  V30 26 1 30 18
M  V30 27 2 31 19
M  V30 28 1 31 22
M  V30 29 1 31 25
M  V30 30 1 32 9
M  V30 31 1 32 23
M  V30 32 2 34 3
M  V30 33 1 34 23
M  V30 34 1 34 27
M  V30 35 1 35 10
M  V30 36 1 35 26
M  V30 37 2 35 33
M  V30 38 1 36 4
M  V30 39 1 37 9
M  V30 40 1 38 10
M  V30 41 1 39 14
M  V30 42 1 40 14
M  V30 43 1 41 14
M  V30 44 1 42 15
M  V30 45 1 43 15
M  V30 46 1 44 15
M  V30 47 1 18 45 CFG=1
M  V30 48 1 46 19
M  V30 49 1 47 21
M  V30 50 1 48 21
M  V30 51 1 49 21
M  V30 52 1 50 22
M  V30 53 1 51 22
M  V30 54 1 23 52 CFG=3
M  V30 55 1 24 53 CFG=3
M  V30 56 1 54 25
M  V30 57 1 55 25
M  V30 58 1 56 26
M  V30 59 1 57 26
M  V30 60 1 58 27
M  V30 61 1 59 27
M  V30 62 1 60 28
M  V30 63 1 61 28
M  V30 64 1 62 29
M  V30 65 1 63 29
M  V30 66 1 30 64 CFG=1
M  V30 67 1 65 32
M  V30 68 1 66 32
M  V30 END BOND
M  V30 END CTAB
M  END
>  <i_epik_Tot_Q>  (1) 
0

>  <i_epik_Tot_abs_Q>  (1) 
0

>  <i_i_glide_confnum>  (1) 
372

>  <i_i_glide_lignum>  (1) 
113

>  <i_i_glide_posenum>  (1) 
108

>  <i_i_glide_rotatable_bonds>  (1) 
10

>  <i_lp_mmshare_version>  (1) 
72125

>  <i_m_source_file_index>  (1) 
47

>  <i_f3d_flags>  (1) 
0

>  <num_sample>  (1) 
50

>  <b_lp_Chiralities_Consistent>  (1) 
1

>  <r_epik_Charging_Adjusted_Penalty>  (1) 
0

>  <r_epik_Ionization_Penalty>  (1) 
2.9296726468019972e-06

>  <r_epik_Ionization_Penalty_Charging>  (1) 
0

>  <r_epik_Ionization_Penalty_Neutral>  (1) 
2.9296726468019972e-06

>  <r_epik_State_Penalty>  (1) 
-0

>  <r_glide_ring_energy>  (1) 
0

>  <r_i_docking_score>  (1) 
-4.1508977816515484

>  <r_i_glide_ecoul>  (1) 
-0.038894248715245716

>  <r_i_glide_eff_state_penalty>  (1) 
-0

>  <r_i_glide_einternal>  (1) 
9.4940341861777959

>  <r_i_glide_emodel>  (1) 
-49.331678673530376

>  <r_i_glide_emodel_strain>  (1) 
1.0798221336562648

>  <r_i_glide_energy>  (1) 
-44.328394822816236

>  <r_i_glide_erotb>  (1) 
0.66665793866395417

>  <r_i_glide_esite>  (1) 
-0.0019322261747945311

>  <r_i_glide_evdw>  (1) 
-44.289500574100991

>  <r_i_glide_gscore>  (1) 
-4.1508977816515484

>  <r_i_glide_gscore_strain>  (1) 
0

>  <r_i_glide_hbond>  (1) 
0

>  <r_i_glide_ligand_efficiency>  (1) 
-0.11859707947575852

>  <r_i_glide_ligand_efficiency_ln>  (1) 
-0.91121418728525738

>  <r_i_glide_ligand_efficiency_sa>  (1) 
-0.38793891115991241

>  <r_i_glide_lipo>  (1) 
-1.5218513507648785

>  <r_i_glide_metal>  (1) 
-0

>  <r_i_glide_rewards>  (1) 
-1.0734629773634927

>  <r_lp_Energy>  (1) 
33.611015999999999

>  <r_lp_tautomer_probability>  (1) 
1

>  <s_epik_Chemistry_Notes>  (1) 
This compound has a N-S or N-O group and may undergo hydrolysis at high or low pH.

>  <s_epik_cmdline>  (1) 
J2VwaWtfcHl0aG9uJywgJy1waHQnLCAnMS4wJywgJy1waCcsICc3LjQnLCAnLXRuJywgJzgnLCAnLW1hJywgJzUwMCcsICctaW1hZScsICc8aW5maWxlLm1hZT4nLCAnLW9tYWUnLCAnPG91dGZpbGUubWFlPic=

>  <s_epik_input>  (1) 
W0NIM11bQ0hdKFtDSDNdKUMoPU8pW0NAQEhdMVtOSF1DKD1PKVtDSDJdT1tDQEBIXTFbQ0BIXShGKU9bQ0BIXShDKD1DPU8pW0NIMl0yKVtDSDJdW0NIXT1DMk9bQ0gyXUMoPVtDSF0zKVtDSDJdW0NIMl1OKEMzPU8pT1tDSDJdW0NIM10=

>  <s_glide_docking_method>  (1) 
confgen

>  <s_i_glide_gridfile>  (1) 
gpcr_drd2_6luq_protein_autoprepared_prepared

>  <s_lp_Force_Field>  (1) 
S-OPLS

>  <s_lp_Variant>  (1) 
DiffSBDD_46_num_sample_50-1

>  <s_m_source_file>  (1) 
generated__ligand_DiffSBDD_2026-05-06_prepared.sdf

>  <GenAI_Model>  (1) 
DiffSBDD

>  <Protein>  (1) 
generic_title2

$$$$
DiffSBDD_35_num_sample_50
     RDKit          3D

  0  0  0  0  0  0  0  0  0  0999 V3000
M  V30 BEGIN CTAB
M  V30 COUNTS 55 58 0 0 1
M  V30 BEGIN ATOM
M  V30 1 C 7.554962 4.802137 -18.190720 0
M  V30 2 C 4.499959 5.667474 -22.225180 0
M  V30 3 C 6.784685 5.524386 -21.016173 0 CFG=1
M  V30 4 O 8.775538 3.313286 -16.777360 0
M  V30 5 C 4.895145 3.859756 -20.486786 0
M  V30 6 O 10.460293 6.969301 -11.581156 0
M  V30 7 O 6.544984 6.898617 -17.498439 0
M  V30 8 C 6.522858 5.957723 -13.542344 0 CFG=1
M  V30 9 C 7.371831 3.945598 -12.153159 0 CFG=1
M  V30 10 C 8.634852 3.566089 -12.910671 0
M  V30 11 C 6.443249 6.521995 -19.885452 0
M  V30 12 C 5.553512 4.734337 -21.579373 0
M  V30 13 C 7.487839 4.838946 -10.986635 0 CFG=1
M  V30 14 C 6.972749 6.738444 -12.375086 0 CFG=2
M  V30 15 C 6.452161 2.462437 -21.762163 0
M  V30 16 C 9.274397 6.644570 -11.569689 0
M  V30 17 C 8.216762 4.608847 -16.806498 0 CFG=2
M  V30 18 C 8.731314 5.617870 -10.569695 0
M  V30 19 C 6.826478 6.143611 -18.427561 0
M  V30 20 O 5.879672 7.592063 -20.121568 0
M  V30 21 C 7.289262 4.782683 -15.618132 0
M  V30 22 C 7.423866 5.756408 -14.706501 0
M  V30 23 Cl 7.616454 6.414254 -22.326902 0
M  V30 24 O 8.339182 7.137204 -12.406238 0
M  V30 25 C 6.578552 5.280592 -12.141222 0 CFG=2
M  V30 26 C 5.524965 2.460033 -20.547262 0
M  V30 27 O 6.032967 7.659169 -11.891667 0
M  V30 28 C 6.005363 3.662785 -22.594783 0
M  V30 29 H 8.352661 4.698630 -18.924073 0
M  V30 30 H 6.846769 3.994406 -18.365191 0
M  V30 31 H 3.687216 5.098721 -22.676593 0
M  V30 32 H 4.046667 6.338615 -21.496594 0
M  V30 33 H 4.930909 6.280545 -23.016461 0
M  V30 34 H 7.516395 4.799010 -20.678366 0
M  V30 35 H 8.079168 2.675445 -16.815762 0
M  V30 36 H 4.945538 4.281929 -19.487296 0
M  V30 37 H 3.834834 3.769313 -20.691667 0
M  V30 38 H 5.515868 6.168752 -13.898761 0
M  V30 39 H 6.723138 3.081590 -12.023743 0
M  V30 40 H 9.233180 4.430016 -13.192569 0
M  V30 41 H 9.252717 2.914455 -12.291712 0
M  V30 42 H 8.373270 3.013732 -13.811815 0
M  V30 43 H 6.952876 4.482871 -10.108007 0
M  V30 44 H 6.402632 1.528181 -22.322888 0
M  V30 45 H 7.485554 2.596530 -21.440405 0
M  V30 46 H 9.039652 5.319718 -16.712849 0
M  V30 47 H 9.520131 4.908058 -10.320929 0
M  V30 48 H 8.499800 6.158421 -9.651368 0
M  V30 49 H 6.482972 4.073383 -15.521721 0
M  V30 50 H 8.234838 6.459681 -14.811746 0
M  V30 51 H 4.746326 1.703959 -20.662080 0
M  V30 52 H 6.074571 2.219079 -19.637204 0
M  V30 53 H 6.234807 7.769302 -10.955790 0
M  V30 54 H 5.160577 3.353120 -23.212674 0
M  V30 55 H 6.782646 4.000334 -23.279940 0
M  V30 END ATOM
M  V30 BEGIN BOND
M  V30 1 1 10 9
M  V30 2 1 11 3
M  V30 3 1 12 2
M  V30 4 1 12 3
M  V30 5 1 12 5
M  V30 6 1 13 9
M  V30 7 1 14 8
M  V30 8 2 16 6
M  V30 9 1 17 1
M  V30 10 1 17 4
M  V30 11 1 18 13
M  V30 12 1 18 16
M  V30 13 1 19 1
M  V30 14 2 19 7
M  V30 15 1 19 11
M  V30 16 2 20 11
M  V30 17 1 21 17
M  V30 18 1 22 8
M  V30 19 2 22 21
M  V30 20 1 23 3
M  V30 21 1 24 14
M  V30 22 1 24 16
M  V30 23 1 25 8
M  V30 24 1 25 9
M  V30 25 1 25 13
M  V30 26 1 25 14 CFG=1
M  V30 27 1 26 5
M  V30 28 1 26 15
M  V30 29 1 14 27 CFG=1
M  V30 30 1 28 12
M  V30 31 1 28 15
M  V30 32 1 29 1
M  V30 33 1 30 1
M  V30 34 1 31 2
M  V30 35 1 32 2
M  V30 36 1 33 2
M  V30 37 1 3 34 CFG=1
M  V30 38 1 35 4
M  V30 39 1 36 5
M  V30 40 1 37 5
M  V30 41 1 8 38 CFG=3
M  V30 42 1 9 39 CFG=1
M  V30 43 1 40 10
M  V30 44 1 41 10
M  V30 45 1 42 10
M  V30 46 1 13 43 CFG=1
M  V30 47 1 44 15
M  V30 48 1 45 15
M  V30 49 1 17 46 CFG=1
M  V30 50 1 47 18
M  V30 51 1 48 18
M  V30 52 1 49 21
M  V30 53 1 50 22
M  V30 54 1 51 26
M  V30 55 1 52 26
M  V30 56 1 53 27
M  V30 57 1 54 28
M  V30 58 1 55 28
M  V30 END BOND
M  V30 END CTAB
M  END
>  <i_epik_Tot_Q>  (1) 
0

>  <i_epik_Tot_abs_Q>  (1) 
0

>  <i_i_glide_confnum>  (1) 
174

>  <i_i_glide_lignum>  (1) 
90

>  <i_i_glide_posenum>  (1) 
249

>  <i_i_glide_rotatable_bonds>  (1) 
9

>  <i_lp_mmshare_version>  (1) 
72125

>  <i_m_source_file_index>  (1) 
36

>  <i_f3d_flags>  (1) 
0

>  <num_sample>  (1) 
50

>  <b_lp_Chiralities_Consistent>  (1) 
1

>  <r_epik_Charging_Adjusted_Penalty>  (1) 
0

>  <r_epik_Ionization_Penalty>  (1) 
1.4539570635880344e-05

>  <r_epik_Ionization_Penalty_Charging>  (1) 
0

>  <r_epik_Ionization_Penalty_Neutral>  (1) 
1.4539570635880344e-05

>  <r_epik_State_Penalty>  (1) 
-0

>  <r_glide_ring_energy>  (1) 
0.0026261030611502726

>  <r_i_docking_score>  (1) 
-4.1326410008614678

>  <r_i_glide_ecoul>  (1) 
-6.5324864825526747

>  <r_i_glide_eff_state_penalty>  (1) 
-0

>  <r_i_glide_einternal>  (1) 
6.2640827088179245

>  <r_i_glide_emodel>  (1) 
-34.75827440994351

>  <r_i_glide_emodel_strain>  (1) 
0.58111961941339985

>  <r_i_glide_energy>  (1) 
-32.943180238322284

>  <r_i_glide_erotb>  (1) 
0.81694813045343473

>  <r_i_glide_esite>  (1) 
-0.09519252568133596

>  <r_i_glide_evdw>  (1) 
-26.410693755769611

>  <r_i_glide_gscore>  (1) 
-4.1326410008614678

>  <r_i_glide_gscore_strain>  (1) 
0

>  <r_i_glide_hbond>  (1) 
-0.16

>  <r_i_glide_ligand_efficiency>  (1) 
-0.14759432145933812

>  <r_i_glide_ligand_efficiency_ln>  (1) 
-0.95393488261114767

>  <r_i_glide_ligand_efficiency_sa>  (1) 
-0.44818328885489767

>  <r_i_glide_lipo>  (1) 
-1.160168847590263

>  <r_i_glide_metal>  (1) 
-0

>  <r_i_glide_rewards>  (1) 
-1.2338200978719216

>  <r_lp_Energy>  (1) 
41.196965999999996

>  <r_lp_tautomer_probability>  (1) 
1

>  <s_epik_Chemistry_Notes>  (1) 
This compound has an ester and may undergo hydrolysis at high or low pH.

>  <s_epik_cmdline>  (1) 
J2VwaWtfcHl0aG9uJywgJy1waHQnLCAnMS4wJywgJy1waCcsICc3LjQnLCAnLXRuJywgJzgnLCAnLW1hJywgJzUwMCcsICctaW1hZScsICc8aW5maWxlLm1hZT4nLCAnLW9tYWUnLCAnPG91dGZpbGUubWFlPic=

>  <s_epik_input>  (1) 
W0NIMl0xW0NIMl1bQ0gyXVtDSDJdQzEoW0NIM10pW0NAQEhdKENsKUMoPU8pQyg9TylbQ0gyXVtDQEhdKFtPSF0pL1tDSF09W0NIXS9bQ0BASF0yW0NAXTMoW09IXSlPQyg9TylbQ0gyXVtDQEBIXShDMjM0KVtDQEBIXTRbQ0gzXQ==

>  <s_glide_docking_method>  (1) 
confgen

>  <s_i_glide_gridfile>  (1) 
gpcr_drd2_6luq_protein_autoprepared_prepared

>  <s_lp_Force_Field>  (1) 
S-OPLS

>  <s_lp_Variant>  (1) 
DiffSBDD_35_num_sample_50-2

>  <s_m_source_file>  (1) 
generated__ligand_DiffSBDD_2026-05-06_prepared.sdf

>  <GenAI_Model>  (1) 
DiffSBDD

>  <Protein>  (1) 
generic_title2

$$$$
DiffSBDD_10_num_sample_50
     RDKit          3D

  0  0  0  0  0  0  0  0  0  0999 V3000
M  V30 BEGIN CTAB
M  V30 COUNTS 72 73 0 0 1
M  V30 BEGIN ATOM
M  V30 1 C 7.145856 5.092715 -16.696057 0 CFG=2
M  V30 2 C 11.435013 7.139780 -5.935379 0
M  V30 3 C 10.636854 7.422431 -8.837704 0
M  V30 4 C 8.267380 6.570606 -11.294457 0 CFG=1
M  V30 5 C 6.986928 6.291388 -15.735906 0 CFG=2
M  V30 6 N 11.035065 9.517130 -5.718086 0
M  V30 7 N 6.544717 6.544285 -12.827481 0
M  V30 8 C 7.764180 6.879299 -13.529449 0 CFG=1
M  V30 9 S 6.411449 5.259620 -18.411280 0
M  V30 10 C 10.716523 6.736162 -4.691704 0
M  V30 11 S 7.814774 6.569319 -19.282660 0 CHG=-1
M  V30 12 C 9.510379 4.298409 -17.364898 0
M  V30 13 O 12.216635 9.369270 -1.704246 0
M  V30 14 O 6.526977 3.969243 -19.107545 0
M  V30 15 C 6.052583 5.141039 -15.652367 0 CFG=2
M  V30 16 C 12.810035 8.391114 -9.880580 0
M  V30 17 C 6.889603 5.959681 -11.543701 0 CFG=1
M  V30 18 N 12.484447 7.903393 -3.310503 0 CHG=1
M  V30 19 N 12.223567 8.723139 -7.537297 0
M  V30 20 C 11.604030 6.709500 -3.422068 0
M  V30 21 C 9.709226 5.278396 -13.011242 0
M  V30 22 C 8.220431 4.002831 -16.595137 0
M  V30 23 C 6.343904 7.660978 -15.971166 0
M  V30 24 C 9.051673 5.982798 -10.130688 0
M  V30 25 C 11.901997 8.211324 -8.666139 0
M  V30 26 O 6.235263 4.317747 -14.512039 0
M  V30 27 C 11.549709 8.415637 -6.366714 0
M  V30 28 O 5.114867 5.953337 -18.364146 0
M  V30 29 F 6.948083 4.633704 -11.667729 0
M  V30 30 N 14.189850 8.169289 -9.491658 0
M  V30 31 C 12.971320 8.227492 -1.955659 0
M  V30 32 C 8.969413 6.584778 -12.637442 0 CFG=2
M  V30 33 O 7.953536 6.181101 -14.710895 0
M  V30 34 C 10.315815 6.777963 -9.963486 0
M  V30 35 H 11.881992 6.339717 -6.508730 0
M  V30 36 H 9.974794 7.391465 -7.989153 0
M  V30 37 H 8.122042 7.631250 -11.091630 0
M  V30 38 H 10.379525 9.412629 -4.958432 0
M  V30 39 H 5.985254 5.874523 -13.343685 0
M  V30 40 H 7.743288 7.945352 -13.752416 0
M  V30 41 H 10.269704 5.769300 -4.853011 0
M  V30 42 H 9.851165 7.380057 -4.691662 0
M  V30 43 H 10.254450 3.525633 -17.176154 0
M  V30 44 H 9.335328 4.328138 -18.439954 0
M  V30 45 H 9.936783 5.255467 -17.061397 0
M  V30 46 H 12.818141 10.080822 -1.491133 0
M  V30 47 H 5.033257 5.369302 -15.908571 0
M  V30 48 H 12.616438 7.740532 -10.721707 0
M  V30 49 H 12.683958 9.407051 -10.250759 0
M  V30 50 H 6.159722 6.179684 -10.763964 0
M  V30 51 H 11.986637 8.712482 -3.653646 0
M  V30 52 H 12.234721 5.820957 -3.436991 0
M  V30 53 H 10.975622 6.598049 -2.537165 0
M  V30 54 H 9.039305 4.421897 -13.050420 0
M  V30 55 H 10.190805 5.368306 -13.985691 0
M  V30 56 H 10.492393 5.042073 -12.292054 0
M  V30 57 H 8.490255 3.846076 -15.551828 0
M  V30 58 H 7.791966 3.059909 -16.935698 0
M  V30 59 H 5.494814 7.797156 -15.300365 0
M  V30 60 H 7.034800 8.474516 -15.774259 0
M  V30 61 H 5.990948 7.771156 -16.992690 0
M  V30 62 H 9.289873 4.932427 -10.297615 0
M  V30 63 H 8.457886 6.026278 -9.217053 0
M  V30 64 H 7.116890 4.482207 -14.200147 0
M  V30 65 H 14.782211 8.550334 -10.216396 0
M  V30 66 H 14.344439 8.781854 -8.701990 0
M  V30 67 H 14.000449 8.569370 -1.901130 0
M  V30 68 H 12.803415 7.439363 -1.225196 0
M  V30 69 H 9.668086 7.419935 -12.691665 0
M  V30 70 H 10.967829 6.805115 -10.814018 0
M  V30 71 H 11.053355 10.427244 -6.157061 0
M  V30 72 H 13.280155 7.754067 -3.914141 0
M  V30 END ATOM
M  V30 BEGIN BOND
M  V30 1 1 5 1
M  V30 2 1 8 7
M  V30 3 1 9 1
M  V30 4 1 10 2
M  V30 5 1 11 9
M  V30 6 2 14 9
M  V30 7 1 15 1
M  V30 8 1 15 5
M  V30 9 1 17 4
M  V30 10 1 17 7
M  V30 11 1 20 10
M  V30 12 1 20 18
M  V30 13 1 1 22 CFG=3
M  V30 14 1 22 12
M  V30 15 1 23 5
M  V30 16 1 24 4
M  V30 17 1 25 3
M  V30 18 1 25 16
M  V30 19 2 25 19
M  V30 20 1 26 15
M  V30 21 2 27 2
M  V30 22 1 27 6
M  V30 23 1 27 19
M  V30 24 2 28 9
M  V30 25 1 29 17
M  V30 26 1 30 16
M  V30 27 1 31 13
M  V30 28 1 31 18
M  V30 29 1 32 4
M  V30 30 1 32 8
M  V30 31 1 32 21
M  V30 32 1 5 33 CFG=1
M  V30 33 1 33 8
M  V30 34 2 34 3
M  V30 35 1 34 24
M  V30 36 1 35 2
M  V30 37 1 36 3
M  V30 38 1 4 37 CFG=1
M  V30 39 1 38 6
M  V30 40 1 39 7
M  V30 41 1 8 40 CFG=3
M  V30 42 1 41 10
M  V30 43 1 42 10
M  V30 44 1 43 12
M  V30 45 1 44 12
M  V30 46 1 45 12
M  V30 47 1 46 13
M  V30 48 1 15 47 CFG=3
M  V30 49 1 48 16
M  V30 50 1 49 16
M  V30 51 1 17 50 CFG=1
M  V30 52 1 51 18
M  V30 53 1 52 20
M  V30 54 1 53 20
M  V30 55 1 54 21
M  V30 56 1 55 21
M  V30 57 1 56 21
M  V30 58 1 57 22
M  V30 59 1 58 22
M  V30 60 1 59 23
M  V30 61 1 60 23
M  V30 62 1 61 23
M  V30 63 1 62 24
M  V30 64 1 63 24
M  V30 65 1 64 26
M  V30 66 1 65 30
M  V30 67 1 66 30
M  V30 68 1 67 31
M  V30 69 1 68 31
M  V30 70 1 32 69 CFG=1
M  V30 71 1 70 34
M  V30 72 1 71 6
M  V30 73 1 72 18
M  V30 END BOND
M  V30 END CTAB
M  END
>  <i_epik_Tot_Q>  (1) 
0

>  <i_epik_Tot_abs_Q>  (1) 
2

>  <i_i_glide_confnum>  (1) 
4107

>  <i_i_glide_lignum>  (1) 
22

>  <i_i_glide_posenum>  (1) 
203

>  <i_i_glide_rotatable_bonds>  (1) 
15

>  <i_lp_mmshare_version>  (1) 
72125

>  <i_m_source_file_index>  (1) 
11

>  <i_f3d_flags>  (1) 
0

>  <num_sample>  (1) 
50

>  <b_lp_Chiralities_Consistent>  (1) 
1

>  <r_epik_Charging_Adjusted_Penalty>  (1) 
0.33639934582642134

>  <r_epik_Ionization_Penalty>  (1) 
0.23315943830934333

>  <r_epik_Ionization_Penalty_Charging>  (1) 
0.10316865490585193

>  <r_epik_Ionization_Penalty_Neutral>  (1) 
0.12999078340349141

>  <r_epik_State_Penalty>  (1) 
0.23323069092056939

>  <r_glide_ring_energy>  (1) 
0

>  <r_i_docking_score>  (1) 
-4.1275154149632121

>  <r_i_glide_ecoul>  (1) 
-5.8685921092776514

>  <r_i_glide_eff_state_penalty>  (1) 
0.23323069092056939

>  <r_i_glide_einternal>  (1) 
6.5059404289644132

>  <r_i_glide_emodel>  (1) 
-40.627205820377924

>  <r_i_glide_emodel_strain>  (1) 
5.7489901162610835

>  <r_i_glide_energy>  (1) 
-34.992524783295494

>  <r_i_glide_erotb>  (1) 
0.82510599487301828

>  <r_i_glide_esite>  (1) 
-0.0094003443794792568

>  <r_i_glide_evdw>  (1) 
-29.123932674017844

>  <r_i_glide_gscore>  (1) 
-4.3607461058837815

>  <r_i_glide_gscore_strain>  (1) 
0.43724752906527087

>  <r_i_glide_hbond>  (1) 
-0.32094936340239755

>  <r_i_glide_ligand_efficiency>  (1) 
-0.12139751220480036

>  <r_i_glide_ligand_efficiency_ln>  (1) 
-0.91188392805127427

>  <r_i_glide_ligand_efficiency_sa>  (1) 
-0.39328081318439861

>  <r_i_glide_lipo>  (1) 
-1.6816154915658588

>  <r_i_glide_metal>  (1) 
-0

>  <r_i_glide_rewards>  (1) 
-1.2746489803817955

>  <r_lp_Energy>  (1) 
22.791024

>  <s_epik_Chemistry_Notes>  (1) 
This compound has an imine and may undergo hydrolysis. This compound contains an acetal/aminal-like group ( X-CH(R)-Y where X, Y are N, S, or O) that may be acid/base labile, releasing an aldehyde.

>  <s_epik_cmdline>  (1) 
J2VwaWtfcHl0aG9uJywgJy1waHQnLCAnMS4wJywgJy1waCcsICc3LjQnLCAnLXRuJywgJzgnLCAnLW1hJywgJzUwMCcsICctaW1hZScsICc8aW5maWxlLm1hZT4nLCAnLW9tYWUnLCAnPG91dGZpbGUubWFlPic=

>  <s_epik_input>  (1) 
W1NIXVMoPU8pKD1PKVtDQEBdMShbQ0gyXVtDSDNdKVtDQEBdKFtDSDNdKShbQ0BASF0xW09IXSlPW0NASF0oW0NAQEhdMltDSDNdKVtOSF1bQ0BASF0oRilbQ0BIXTJbQ0gyXVxbQ0hdPVtDSF1cQyhbQ0gyXVtOSDJdKT1OL0MoPU4vW0hdKS9bQ0gyXVtDSDJdW0NIMl1bTkhdW0NIMl1bT0hd

>  <s_glide_docking_method>  (1) 
confgen

>  <s_i_glide_gridfile>  (1) 
gpcr_drd2_6luq_protein_autoprepared_prepared

>  <s_lp_Force_Field>  (1) 
S-OPLS

>  <s_lp_Variant>  (1) 
DiffSBDD_10_num_sample_50-2

>  <s_m_source_file>  (1) 
generated__ligand_DiffSBDD_2026-05-06_prepared.sdf

>  <GenAI_Model>  (1) 
DiffSBDD

>  <Protein>  (1) 
generic_title2

$$$$
DiffSBDD_35_num_sample_50
     RDKit          3D

  0  0  0  0  0  0  0  0  0  0999 V3000
M  V30 BEGIN CTAB
M  V30 COUNTS 55 58 0 0 1
M  V30 BEGIN ATOM
M  V30 1 C 8.161380 3.431725 -16.686417 0
M  V30 2 C 8.343172 -1.912480 -17.726772 0
M  V30 3 C 7.541090 0.533849 -17.361299 0 CFG=1
M  V30 4 O 9.864197 5.107445 -16.191957 0
M  V30 5 C 6.649372 -0.881674 -19.346255 0
M  V30 6 O 10.249793 6.569773 -11.875645 0
M  V30 7 O 9.779881 3.384692 -18.493521 0
M  V30 8 C 6.080789 5.666666 -13.435914 0 CFG=1
M  V30 9 C 6.923109 3.772832 -11.891683 0 CFG=1
M  V30 10 C 8.117049 3.222906 -12.672817 0
M  V30 11 C 8.666515 1.263836 -18.149476 0
M  V30 12 C 7.175274 -0.907686 -17.888979 0
M  V30 13 C 7.181052 4.773360 -10.841942 0 CFG=1
M  V30 14 C 6.711040 6.543176 -12.414041 0 CFG=2
M  V30 15 C 4.742252 -0.769719 -17.827053 0
M  V30 16 C 9.047593 6.345023 -11.753632 0
M  V30 17 C 8.485465 4.938360 -16.468362 0 CFG=2
M  V30 18 C 8.499607 5.501219 -10.597499 0
M  V30 19 C 8.946763 2.761961 -17.834317 0
M  V30 20 O 9.323766 0.687351 -19.016595 0
M  V30 21 C 7.744506 5.606270 -15.319237 0
M  V30 22 C 6.782871 5.021751 -14.583886 0
M  V30 23 Cl 7.878953 0.438637 -15.604954 0
M  V30 24 O 8.098553 6.797259 -12.593114 0
M  V30 25 C 6.215116 5.162791 -11.969376 0 CFG=2
M  V30 26 C 5.166734 -0.496085 -19.272348 0
M  V30 27 O 5.920277 7.587312 -11.891669 0
M  V30 28 C 5.928250 -1.466152 -17.171836 0
M  V30 29 H 8.391859 2.908600 -15.762360 0
M  V30 30 H 7.096002 3.307131 -16.880409 0
M  V30 31 H 8.050220 -2.918349 -18.029987 0
M  V30 32 H 9.211553 -1.648895 -18.323771 0
M  V30 33 H 8.674915 -1.982507 -16.691669 0
M  V30 34 H 6.655571 1.161158 -17.453997 0
M  V30 35 H 10.069559 4.724908 -15.351041 0
M  V30 36 H 7.199811 -0.230699 -20.023656 0
M  V30 37 H 6.717365 -1.883629 -19.773135 0
M  V30 38 H 5.065638 5.924640 -13.730277 0
M  V30 39 H 6.234842 2.974613 -11.620872 0
M  V30 40 H 8.738658 4.006274 -13.098682 0
M  V30 41 H 8.752859 2.627329 -12.018872 0
M  V30 42 H 7.773768 2.575067 -13.477768 0
M  V30 43 H 6.694715 4.547064 -9.894624 0
M  V30 44 H 3.830979 -1.361786 -17.762087 0
M  V30 45 H 4.581417 0.169300 -17.304781 0
M  V30 46 H 8.254926 5.496331 -17.376877 0
M  V30 47 H 9.252500 4.771280 -10.300537 0
M  V30 48 H 8.364256 6.169292 -9.746982 0
M  V30 49 H 8.036343 6.618936 -15.091614 0
M  V30 50 H 6.483314 4.011639 -14.814237 0
M  V30 51 H 4.578722 -1.077324 -19.983236 0
M  V30 52 H 5.020785 0.556446 -19.518203 0
M  V30 53 H 6.220775 7.754893 -10.991323 0
M  V30 54 H 5.840757 -2.539205 -17.352837 0
M  V30 55 H 5.931376 -1.341223 -16.089426 0
M  V30 END ATOM
M  V30 BEGIN BOND
M  V30 1 1 10 9
M  V30 2 1 11 3
M  V30 3 1 12 2
M  V30 4 1 12 3
M  V30 5 1 12 5
M  V30 6 1 13 9
M  V30 7 1 14 8
M  V30 8 2 16 6
M  V30 9 1 17 1
M  V30 10 1 17 4
M  V30 11 1 18 13
M  V30 12 1 18 16
M  V30 13 1 19 1
M  V30 14 2 19 7
M  V30 15 1 19 11
M  V30 16 2 20 11
M  V30 17 1 21 17
M  V30 18 1 22 8
M  V30 19 2 22 21
M  V30 20 1 23 3
M  V30 21 1 24 14
M  V30 22 1 24 16
M  V30 23 1 25 8
M  V30 24 1 25 9
M  V30 25 1 25 13
M  V30 26 1 25 14 CFG=1
M  V30 27 1 26 5
M  V30 28 1 26 15
M  V30 29 1 14 27 CFG=1
M  V30 30 1 28 12
M  V30 31 1 28 15
M  V30 32 1 29 1
M  V30 33 1 30 1
M  V30 34 1 31 2
M  V30 35 1 32 2
M  V30 36 1 33 2
M  V30 37 1 3 34 CFG=1
M  V30 38 1 35 4
M  V30 39 1 36 5
M  V30 40 1 37 5
M  V30 41 1 8 38 CFG=3
M  V30 42 1 9 39 CFG=1
M  V30 43 1 40 10
M  V30 44 1 41 10
M  V30 45 1 42 10
M  V30 46 1 13 43 CFG=1
M  V30 47 1 44 15
M  V30 48 1 45 15
M  V30 49 1 17 46 CFG=3
M  V30 50 1 47 18
M  V30 51 1 48 18
M  V30 52 1 49 21
M  V30 53 1 50 22
M  V30 54 1 51 26
M  V30 55 1 52 26
M  V30 56 1 53 27
M  V30 57 1 54 28
M  V30 58 1 55 28
M  V30 END BOND
M  V30 END CTAB
M  END
>  <i_epik_Tot_Q>  (1) 
0

>  <i_epik_Tot_abs_Q>  (1) 
0

>  <i_i_glide_confnum>  (1) 
464

>  <i_i_glide_lignum>  (1) 
90

>  <i_i_glide_posenum>  (1) 
240

>  <i_i_glide_rotatable_bonds>  (1) 
9

>  <i_lp_mmshare_version>  (1) 
72125

>  <i_m_source_file_index>  (1) 
36

>  <i_f3d_flags>  (1) 
0

>  <num_sample>  (1) 
50

>  <b_lp_Chiralities_Consistent>  (1) 
1

>  <r_epik_Charging_Adjusted_Penalty>  (1) 
0

>  <r_epik_Ionization_Penalty>  (1) 
1.4539570635880344e-05

>  <r_epik_Ionization_Penalty_Charging>  (1) 
0

>  <r_epik_Ionization_Penalty_Neutral>  (1) 
1.4539570635880344e-05

>  <r_epik_State_Penalty>  (1) 
-0

>  <r_glide_ring_energy>  (1) 
0.0026261030611502726

>  <r_i_docking_score>  (1) 
-4.1129464799850259

>  <r_i_glide_ecoul>  (1) 
-6.3301718831423033

>  <r_i_glide_eff_state_penalty>  (1) 
-0

>  <r_i_glide_einternal>  (1) 
15.313485205797281

>  <r_i_glide_emodel>  (1) 
-32.66814661143458

>  <r_i_glide_emodel_strain>  (1) 
0.37535398327453606

>  <r_i_glide_energy>  (1) 
-35.198333514145872

>  <r_i_glide_erotb>  (1) 
0.81694813045343473

>  <r_i_glide_esite>  (1) 
-0.072571424352393735

>  <r_i_glide_evdw>  (1) 
-28.86816163100357

>  <r_i_glide_gscore>  (1) 
-4.1129464799850259

>  <r_i_glide_gscore_strain>  (1) 
0

>  <r_i_glide_hbond>  (1) 
-0.16

>  <r_i_glide_ligand_efficiency>  (1) 
-0.14689094571375091

>  <r_i_glide_ligand_efficiency_ln>  (1) 
-0.94938880893660516

>  <r_i_glide_ligand_efficiency_sa>  (1) 
-0.44604742582276274

>  <r_i_glide_lipo>  (1) 
-1.2183872534130464

>  <r_i_glide_metal>  (1) 
-0

>  <r_i_glide_rewards>  (1) 
-1.0860020686514953

>  <r_lp_Energy>  (1) 
41.196965999999996

>  <r_lp_tautomer_probability>  (1) 
1

>  <s_epik_Chemistry_Notes>  (1) 
This compound has an ester and may undergo hydrolysis at high or low pH.

>  <s_epik_cmdline>  (1) 
J2VwaWtfcHl0aG9uJywgJy1waHQnLCAnMS4wJywgJy1waCcsICc3LjQnLCAnLXRuJywgJzgnLCAnLW1hJywgJzUwMCcsICctaW1hZScsICc8aW5maWxlLm1hZT4nLCAnLW9tYWUnLCAnPG91dGZpbGUubWFlPic=

>  <s_epik_input>  (1) 
W0NIMl0xW0NIMl1bQ0gyXVtDSDJdQzEoW0NIM10pW0NAQEhdKENsKUMoPU8pQyg9TylbQ0gyXVtDQEhdKFtPSF0pL1tDSF09W0NIXS9bQ0BASF0yW0NAXTMoW09IXSlPQyg9TylbQ0gyXVtDQEBIXShDMjM0KVtDQEBIXTRbQ0gzXQ==

>  <s_glide_docking_method>  (1) 
confgen

>  <s_i_glide_gridfile>  (1) 
gpcr_drd2_6luq_protein_autoprepared_prepared

>  <s_lp_Force_Field>  (1) 
S-OPLS

>  <s_lp_Variant>  (1) 
DiffSBDD_35_num_sample_50-2

>  <s_m_source_file>  (1) 
generated__ligand_DiffSBDD_2026-05-06_prepared.sdf

>  <GenAI_Model>  (1) 
DiffSBDD

>  <Protein>  (1) 
generic_title2

$$$$
DiffSBDD_33_num_sample_50
     RDKit          3D

  0  0  0  0  0  0  0  0  0  0999 V3000
M  V30 BEGIN CTAB
M  V30 COUNTS 69 72 0 0 1
M  V30 BEGIN ATOM
M  V30 1 O 5.042283 -0.977507 -17.279580 0
M  V30 2 C 7.133624 0.496037 -14.796997 0
M  V30 3 O 6.273100 0.726936 -19.081228 0
M  V30 4 C 7.275498 2.121738 -17.358897 0
M  V30 5 C 9.968986 6.561987 -11.720424 0
M  V30 6 C 9.751636 3.964690 -16.518728 0
M  V30 7 C 5.613206 5.065500 -13.704830 0
M  V30 8 C 5.147247 -1.288535 -19.656724 0
M  V30 9 N 7.271968 1.905536 -14.922036 0
M  V30 10 C 6.817884 5.856704 -14.250573 0
M  V30 11 C 7.028902 4.163567 -11.834191 0
M  V30 12 C 8.391624 3.824353 -15.851158 0
M  V30 13 N 5.962779 0.077945 -15.475909 0
M  V30 14 C 5.698244 4.849952 -12.180035 0 CFG=1
M  V30 15 N 9.668475 7.633714 -7.961689 0 CHG=1
M  V30 16 C 8.182262 5.020146 -12.307487 0
M  V30 17 C 6.492597 -0.584928 -19.588699 0 CFG=2
M  V30 18 C 6.455527 0.928239 -17.729053 0
M  V30 19 C 9.251538 6.878044 -6.757392 0
M  V30 20 C 10.777518 8.565894 -7.657870 0
M  V30 21 N 9.037168 5.483232 -11.489910 0
M  V30 22 C 8.198380 5.283697 -13.818468 0 CFG=1
M  V30 23 F 7.381071 -1.316846 -18.909184 0
M  V30 24 C 5.513153 6.152977 -11.367744 0
M  V30 25 C 5.850946 0.054218 -16.839156 0
M  V30 26 O 8.569112 4.058188 -14.447200 0
M  V30 27 C 4.292888 -0.850188 -18.477567 0
M  V30 28 C 9.957957 6.740312 -9.108016 0
M  V30 29 C 9.939975 7.478310 -10.475262 0
M  V30 30 C 8.693383 4.991439 -16.790625 0
M  V30 31 C 7.599350 2.555399 -16.094732 0
M  V30 32 F 7.705150 2.873040 -18.384883 0
M  V30 33 H 7.056336 0.227457 -13.743208 0
M  V30 34 H 8.009270 -0.014009 -15.202477 0
M  V30 35 H 10.969441 6.166124 -11.891975 0
M  V30 36 H 9.719144 7.179438 -12.581121 0
M  V30 37 H 10.593147 4.273316 -15.900469 0
M  V30 38 H 10.003185 3.277050 -17.323342 0
M  V30 39 H 5.581545 4.095972 -14.199683 0
M  V30 40 H 4.683276 5.567616 -13.967322 0
M  V30 41 H 4.634740 -1.030586 -20.582097 0
M  V30 42 H 5.284439 -2.370164 -19.660665 0
M  V30 43 H 7.558275 2.367810 -14.068948 0
M  V30 44 H 6.746660 6.881724 -13.884579 0
M  V30 45 H 6.731151 5.941149 -15.331922 0
M  V30 46 H 7.092034 3.177116 -12.293782 0
M  V30 47 H 4.893967 4.173085 -11.894771 0
M  V30 48 H 6.907559 -0.500213 -20.593021 0
M  V30 49 H 5.422411 -0.616474 -14.974339 0
M  V30 50 H 10.035233 6.192573 -6.430832 0
M  V30 51 H 9.034778 7.559585 -5.934981 0
M  V30 52 H 8.348115 6.296690 -6.950345 0
M  V30 53 H 11.670446 8.016521 -7.356024 0
M  V30 54 H 11.034550 9.181124 -8.519715 0
M  V30 55 H 10.504752 9.235651 -6.841541 0
M  V30 56 H 8.967905 5.993325 -14.094519 0
M  V30 57 H 6.346645 6.844056 -11.491808 0
M  V30 58 H 4.635028 6.712819 -11.659759 0
M  V30 59 H 5.425045 5.941880 -10.301306 0
M  V30 60 H 3.898753 0.159720 -18.613419 0
M  V30 61 H 3.434938 -1.513096 -18.403429 0
M  V30 62 H 9.180759 5.975876 -9.089448 0
M  V30 63 H 10.902631 6.218985 -8.955310 0
M  V30 64 H 10.773187 8.176631 -10.543478 0
M  V30 65 H 9.034816 8.085176 -10.527478 0
M  V30 66 H 8.237926 5.020197 -17.775718 0
M  V30 67 H 8.884367 5.970444 -16.367544 0
M  V30 68 H 8.852751 8.168922 -8.240524 0
M  V30 69 H 7.097013 4.023160 -10.754930 0
M  V30 END ATOM
M  V30 BEGIN BOND
M  V30 1 1 9 2
M  V30 2 1 10 7
M  V30 3 1 12 6
M  V30 4 1 13 2
M  V30 5 1 14 7
M  V30 6 1 14 11
M  V30 7 1 16 11
M  V30 8 1 17 3
M  V30 9 1 17 8
M  V30 10 1 18 3
M  V30 11 1 18 4
M  V30 12 1 19 15
M  V30 13 1 20 15
M  V30 14 1 21 5
M  V30 15 2 21 16
M  V30 16 1 22 10
M  V30 17 1 22 16
M  V30 18 1 23 17
M  V30 19 1 24 14
M  V30 20 1 25 1
M  V30 21 1 25 13
M  V30 22 2 25 18
M  V30 23 1 26 12
M  V30 24 1 26 22
M  V30 25 1 27 1
M  V30 26 1 27 8
M  V30 27 1 28 15
M  V30 28 1 29 5
M  V30 29 1 29 28
M  V30 30 1 30 6
M  V30 31 1 30 12
M  V30 32 2 31 4
M  V30 33 1 31 9
M  V30 34 1 31 12
M  V30 35 1 32 4
M  V30 36 1 33 2
M  V30 37 1 34 2
M  V30 38 1 35 5
M  V30 39 1 36 5
M  V30 40 1 37 6
M  V30 41 1 38 6
M  V30 42 1 39 7
M  V30 43 1 40 7
M  V30 44 1 41 8
M  V30 45 1 42 8
M  V30 46 1 43 9
M  V30 47 1 44 10
M  V30 48 1 45 10
M  V30 49 1 46 11
M  V30 50 1 14 47 CFG=1
M  V30 51 1 17 48 CFG=3
M  V30 52 1 49 13
M  V30 53 1 50 19
M  V30 54 1 51 19
M  V30 55 1 52 19
M  V30 56 1 53 20
M  V30 57 1 54 20
M  V30 58 1 55 20
M  V30 59 1 22 56 CFG=1
M  V30 60 1 57 24
M  V30 61 1 58 24
M  V30 62 1 59 24
M  V30 63 1 60 27
M  V30 64 1 61 27
M  V30 65 1 62 28
M  V30 66 1 63 28
M  V30 67 1 64 29
M  V30 68 1 65 29
M  V30 69 1 66 30
M  V30 70 1 67 30
M  V30 71 1 68 15
M  V30 72 1 69 11
M  V30 END BOND
M  V30 END CTAB
M  END
>  <i_epik_Tot_Q>  (1) 
1

>  <i_epik_Tot_abs_Q>  (1) 
1

>  <i_i_glide_confnum>  (1) 
464

>  <i_i_glide_lignum>  (1) 
86

>  <i_i_glide_posenum>  (1) 
396

>  <i_i_glide_rotatable_bonds>  (1) 
7

>  <i_lp_mmshare_version>  (1) 
72125

>  <i_m_source_file_index>  (1) 
34

>  <i_f3d_flags>  (1) 
0

>  <num_sample>  (1) 
50

>  <b_lp_Chiralities_Consistent>  (1) 
1

>  <r_epik_Charging_Adjusted_Penalty>  (1) 
0.41789118993368612

>  <r_epik_Ionization_Penalty>  (1) 
0.0076682513750627552

>  <r_epik_Ionization_Penalty_Charging>  (1) 
0.0072113509810821487

>  <r_epik_Ionization_Penalty_Neutral>  (1) 
0.0004569003939806066

>  <r_epik_State_Penalty>  (1) 
0.41067983895260396

>  <r_glide_ring_energy>  (1) 
1.3428436498976668

>  <r_i_docking_score>  (1) 
-4.1099954909218734

>  <r_i_glide_ecoul>  (1) 
-2.8688035194766686

>  <r_i_glide_eff_state_penalty>  (1) 
0.41067983895260396

>  <r_i_glide_einternal>  (1) 
13.372261842802503

>  <r_i_glide_emodel>  (1) 
-39.973500392017108

>  <r_i_glide_emodel_strain>  (1) 
2.8367970578092923

>  <r_i_glide_energy>  (1) 
-37.653303588301078

>  <r_i_glide_erotb>  (1) 
0.58078846603177925

>  <r_i_glide_esite>  (1) 
-0.092161281714533486

>  <r_i_glide_evdw>  (1) 
-34.784500068824407

>  <r_i_glide_gscore>  (1) 
-4.5206753298744777

>  <r_i_glide_gscore_strain>  (1) 
0

>  <r_i_glide_hbond>  (1) 
-0.080858590012881718

>  <r_i_glide_ligand_efficiency>  (1) 
-0.12843735909130855

>  <r_i_glide_ligand_efficiency_ln>  (1) 
-0.920340024663163

>  <r_i_glide_ligand_efficiency_sa>  (1) 
-0.40776319786712123

>  <r_i_glide_lipo>  (1) 
-1.5331485282552952

>  <r_i_glide_metal>  (1) 
-0

>  <r_i_glide_rewards>  (1) 
-1.225749864560826

>  <r_lp_Energy>  (1) 
52.233778000000001

>  <r_lp_tautomer_probability>  (1) 
0.49999519497573586

>  <s_epik_Chemistry_Notes>  (1) 
This compound has an imine and may undergo hydrolysis. This compound contains an acetal/aminal-like group ( X-CH(R)-Y where X, Y are N, S, or O) that may be acid/base labile, releasing an aldehyde.

>  <s_epik_cmdline>  (1) 
J2VwaWtfcHl0aG9uJywgJy1waHQnLCAnMS4wJywgJy1waCcsICc3LjQnLCAnLXRuJywgJzgnLCAnLW1hJywgJzUwMCcsICctaW1hZScsICc8aW5maWxlLm1hZT4nLCAnLW9tYWUnLCAnPG91dGZpbGUubWFlPic=

>  <s_epik_input>  (1) 
TzFbQ0BASF0oRilbQ0gyXVtDSDJdT0MoW0NAQEhdMTIpPU5bQ0gyXVtOSF1DKD1DMkYpQzMoW0NIMl1bQ0gyXTMpT1tDQEBIXShbQ0gyXVtDSDJdW0NAQEhdNFtDSDNdKUMoPVtDSF00KVtOSF1bQ0gyXVtDSDJdW0NIMl1OKFtDSDNdKVtDSDNd

>  <s_glide_docking_method>  (1) 
confgen

>  <s_i_glide_gridfile>  (1) 
gpcr_drd2_6luq_protein_autoprepared_prepared

>  <s_lp_Force_Field>  (1) 
S-OPLS

>  <s_lp_Variant>  (1) 
DiffSBDD_33_num_sample_50-4

>  <s_m_source_file>  (1) 
generated__ligand_DiffSBDD_2026-05-06_prepared.sdf

>  <GenAI_Model>  (1) 
DiffSBDD

>  <Protein>  (1) 
generic_title2

$$$$
DiffSBDD_40_num_sample_50
     RDKit          3D

  0  0  0  0  0  0  0  0  0  0999 V3000
M  V30 BEGIN CTAB
M  V30 COUNTS 79 82 0 0 1
M  V30 BEGIN ATOM
M  V30 1 C 8.810850 4.752453 -19.056824 0 CFG=1
M  V30 2 S 8.142660 7.679998 -12.291615 0
M  V30 3 C 5.460466 3.918367 -13.230760 0
M  V30 4 C 5.600220 5.151508 -19.012098 0 CFG=2
M  V30 5 C 6.713615 3.975462 -13.723438 0
M  V30 6 C 9.706756 8.515399 -21.536675 0
M  V30 7 C 8.045838 6.002154 -19.592111 0 CFG=2
M  V30 8 C 8.404773 8.572184 -21.889748 0
M  V30 9 C 6.642174 6.269013 -18.972419 0
M  V30 10 C 8.955133 4.575277 -17.523190 0
M  V30 11 C 10.078735 5.761946 -12.620251 0
M  V30 12 C 7.830159 9.862268 -22.473304 0 CFG=1
M  V30 13 C 7.685257 5.134368 -13.386574 0 CFG=1
M  V30 14 C 6.237721 7.468484 -22.078503 0
M  V30 15 C 6.624021 9.576980 -23.359524 0 CFG=2
M  V30 16 C 7.538439 7.391204 -21.717244 0
M  V30 17 C 7.248915 2.886640 -14.668310 0 CFG=1
M  V30 18 C 9.662451 6.902000 -11.681247 0 CFG=2
M  V30 19 S 6.611149 0.649929 -13.092930 0
M  V30 20 C 5.436864 4.324667 -20.347396 0
M  V30 21 F 6.083598 10.707419 -23.818282 0
M  V30 22 C 8.088449 6.083295 -21.145017 0
M  V30 23 C 5.585730 8.707370 -22.656596 0
M  V30 24 C 7.072910 6.225275 -12.468265 0
M  V30 25 F 7.434940 10.671441 -21.491706 0
M  V30 26 O 5.034863 3.167958 -20.286108 0
M  V30 27 O 8.234959 3.389381 -15.563168 0
M  V30 28 O 8.356946 3.544554 -19.631943 0
M  V30 29 C 7.860870 1.668677 -13.931832 0
M  V30 30 C 12.270924 8.373983 -9.257625 0
M  V30 31 N 9.768941 6.412584 -7.911801 0
M  V30 32 C 7.745578 4.004960 -16.747108 0
M  V30 33 N 9.000465 5.388802 -9.750383 0
M  V30 34 O 4.663678 5.388300 -19.934715 0
M  V30 35 C 10.054874 7.176920 -9.078099 0
M  V30 36 C 9.035137 4.643169 -12.809443 0
M  V30 37 C 9.589691 6.531193 -10.220957 0
M  V30 38 C 9.126428 5.381955 -8.444476 0
M  V30 39 C 10.769277 8.486798 -8.980958 0
M  V30 40 H 9.831355 4.859413 -19.428111 0
M  V30 41 H 5.076680 4.678649 -12.569958 0
M  V30 42 H 4.804354 3.101125 -13.489501 0
M  V30 43 H 5.034813 4.964942 -18.106074 0
M  V30 44 H 10.350942 9.369274 -21.661769 0
M  V30 45 H 10.143269 7.623803 -21.120204 0
M  V30 46 H 8.642266 6.851804 -19.255838 0
M  V30 47 H 6.804660 6.495248 -17.920011 0
M  V30 48 H 6.202072 7.190657 -19.352299 0
M  V30 49 H 9.782412 3.879048 -17.375863 0
M  V30 50 H 9.281665 5.507538 -17.061072 0
M  V30 51 H 10.301928 6.169275 -13.599873 0
M  V30 52 H 11.029551 5.357495 -12.291655 0
M  V30 53 H 8.577080 10.386699 -23.078595 0
M  V30 54 H 7.893215 5.623863 -14.338624 0
M  V30 55 H 5.598911 6.609139 -21.955910 0
M  V30 56 H 6.988153 9.026263 -24.216263 0
M  V30 57 H 6.423525 2.498005 -15.264369 0
M  V30 58 H 10.426273 7.672767 -11.772438 0
M  V30 59 H 6.000415 0.213627 -14.199631 0
M  V30 60 H 9.095527 5.897599 -21.513560 0
M  V30 61 H 7.528569 5.268042 -21.596296 0
M  V30 62 H 4.816029 8.407196 -23.367932 0
M  V30 63 H 5.088592 9.254442 -21.854483 0
M  V30 64 H 6.136642 6.595217 -12.886407 0
M  V30 65 H 6.848476 5.830429 -11.476347 0
M  V30 66 H 8.525175 3.565800 -20.561913 0
M  V30 67 H 8.367337 1.025793 -14.652113 0
M  V30 68 H 8.610173 1.956928 -13.198076 0
M  V30 69 H 12.727334 9.362687 -9.250582 0
M  V30 70 H 12.769666 7.768758 -8.500846 0
M  V30 71 H 12.462818 7.926850 -10.232867 0
M  V30 72 H 7.034427 4.790297 -16.495064 0
M  V30 73 H 7.214270 3.253606 -17.332560 0
M  V30 74 H 8.544315 4.681867 -10.306789 0
M  V30 75 H 8.874022 4.077435 -11.895047 0
M  V30 76 H 9.493334 3.938997 -13.491489 0
M  V30 77 H 8.734228 4.578797 -7.839679 0
M  V30 78 H 10.318650 9.192223 -9.672967 0
M  V30 79 H 10.618805 8.915692 -7.989544 0
M  V30 END ATOM
M  V30 BEGIN BOND
M  V30 1 2 5 3
M  V30 2 1 7 1
M  V30 3 2 8 6
M  V30 4 1 9 4
M  V30 5 1 9 7
M  V30 6 1 10 1
M  V30 7 1 12 8
M  V30 8 1 13 5
M  V30 9 1 15 12
M  V30 10 1 16 8
M  V30 11 2 16 14
M  V30 12 1 17 5
M  V30 13 1 18 2
M  V30 14 1 18 11
M  V30 15 1 20 4
M  V30 16 1 21 15
M  V30 17 1 22 7
M  V30 18 1 22 16
M  V30 19 1 23 14
M  V30 20 1 23 15
M  V30 21 1 24 2
M  V30 22 1 24 13
M  V30 23 1 25 12
M  V30 24 2 26 20
M  V30 25 1 27 17
M  V30 26 1 28 1
M  V30 27 1 29 17
M  V30 28 1 29 19
M  V30 29 1 32 10
M  V30 30 1 32 27
M  V30 31 1 34 4
M  V30 32 1 34 20
M  V30 33 1 35 31
M  V30 34 1 36 11
M  V30 35 1 36 13
M  V30 36 1 37 18
M  V30 37 1 37 33
M  V30 38 2 37 35
M  V30 39 2 38 31
M  V30 40 1 38 33
M  V30 41 1 39 30
M  V30 42 1 39 35
M  V30 43 1 1 40 CFG=3
M  V30 44 1 41 3
M  V30 45 1 42 3
M  V30 46 1 4 43 CFG=1
M  V30 47 1 44 6
M  V30 48 1 45 6
M  V30 49 1 7 46 CFG=1
M  V30 50 1 47 9
M  V30 51 1 48 9
M  V30 52 1 49 10
M  V30 53 1 50 10
M  V30 54 1 51 11
M  V30 55 1 52 11
M  V30 56 1 12 53 CFG=3
M  V30 57 1 13 54 CFG=3
M  V30 58 1 55 14
M  V30 59 1 15 56 CFG=3
M  V30 60 1 17 57 CFG=3
M  V30 61 1 18 58 CFG=1
M  V30 62 1 59 19
M  V30 63 1 60 22
M  V30 64 1 61 22
M  V30 65 1 62 23
M  V30 66 1 63 23
M  V30 67 1 64 24
M  V30 68 1 65 24
M  V30 69 1 66 28
M  V30 70 1 67 29
M  V30 71 1 68 29
M  V30 72 1 69 30
M  V30 73 1 70 30
M  V30 74 1 71 30
M  V30 75 1 72 32
M  V30 76 1 73 32
M  V30 77 1 74 33
M  V30 78 1 75 36
M  V30 79 1 76 36
M  V30 80 1 77 38
M  V30 81 1 78 39
M  V30 82 1 79 39
M  V30 END BOND
M  V30 END CTAB
M  END
>  <i_epik_Tot_Q>  (1) 
0

>  <i_epik_Tot_abs_Q>  (1) 
0

>  <i_i_glide_confnum>  (1) 
1857

>  <i_i_glide_lignum>  (1) 
99

>  <i_i_glide_posenum>  (1) 
105

>  <i_i_glide_rotatable_bonds>  (1) 
16

>  <i_lp_mmshare_version>  (1) 
72125

>  <i_m_source_file_index>  (1) 
41

>  <i_f3d_flags>  (1) 
0

>  <num_sample>  (1) 
50

>  <b_lp_Chiralities_Consistent>  (1) 
1

>  <r_epik_Charging_Adjusted_Penalty>  (1) 
1.047397364093839

>  <r_epik_Ionization_Penalty>  (1) 
0.40552415828257216

>  <r_epik_Ionization_Penalty_Charging>  (1) 
0.39366408803935488

>  <r_epik_Ionization_Penalty_Neutral>  (1) 
0.011860070243217283

>  <r_epik_State_Penalty>  (1) 
0.65373327605448417

>  <r_glide_ring_energy>  (1) 
0

>  <r_i_docking_score>  (1) 
-4.1077315883399335

>  <r_i_glide_ecoul>  (1) 
-0.96929453904601326

>  <r_i_glide_eff_state_penalty>  (1) 
0.65373327605448417

>  <r_i_glide_einternal>  (1) 
15.683524271122538

>  <r_i_glide_emodel>  (1) 
-36.303055012407334

>  <r_i_glide_emodel_strain>  (1) 
3.7067979168892293

>  <r_i_glide_energy>  (1) 
-44.020970162264263

>  <r_i_glide_erotb>  (1) 
0.63692825108646745

>  <r_i_glide_esite>  (1) 
-0.095723285733706545

>  <r_i_glide_evdw>  (1) 
-43.051675623218252

>  <r_i_glide_gscore>  (1) 
-4.7614648643944175

>  <r_i_glide_gscore_strain>  (1) 
0

>  <r_i_glide_hbond>  (1) 
0

>  <r_i_glide_ligand_efficiency>  (1) 
-0.10532645098307522

>  <r_i_glide_ligand_efficiency_ln>  (1) 
-0.88081425743540798

>  <r_i_glide_ligand_efficiency_sa>  (1) 
-0.35718426582587542

>  <r_i_glide_lipo>  (1) 
-1.9620559302156311

>  <r_i_glide_metal>  (1) 
-0

>  <r_i_glide_rewards>  (1) 
-1.0426359375137317

>  <r_lp_Energy>  (1) 
16.317681999999998

>  <r_lp_tautomer_probability>  (1) 
0.49999999999999867

>  <s_epik_Chemistry_Notes>  (1) 
This compound has an ester and may undergo hydrolysis at high or low pH.

>  <s_epik_cmdline>  (1) 
J2VwaWtfcHl0aG9uJywgJy1waHQnLCAnMS4wJywgJy1waCcsICc3LjQnLCAnLXRuJywgJzgnLCAnLW1hJywgJzUwMCcsICctaW1hZScsICc8aW5maWxlLm1hZT4nLCAnLW9tYWUnLCAnPG91dGZpbGUubWFlPic=

>  <s_epik_input>  (1) 
W0NIMl09QzFbQ0BIXShGKVtDQEhdKEYpW0NIMl1bQ0hdPUMxW0NIMl1bQ0BASF0oW0NIMl1bQ0BASF0yQyg9TylPMilbQ0BIXShbT0hdKVtDSDJdW0NIMl1PW0NAQEhdKFtDSDJdW1NIXSlDKD1bQ0gyXSlbQ0BIXTNbQ0gyXVNbQ0BIXShbQ0gyXVtDSDJdMylDND1OW0NIXT1OW0NAQEhdNFtDSDJdW0NIM10=

>  <s_glide_docking_method>  (1) 
confgen

>  <s_i_glide_gridfile>  (1) 
gpcr_drd2_6luq_protein_autoprepared_prepared

>  <s_lp_Force_Field>  (1) 
S-OPLS

>  <s_lp_Variant>  (1) 
DiffSBDD_40_num_sample_50-2

>  <s_m_source_file>  (1) 
generated__ligand_DiffSBDD_2026-05-06_prepared.sdf

>  <GenAI_Model>  (1) 
DiffSBDD

>  <Protein>  (1) 
generic_title2

$$$$
DiffSBDD_46_num_sample_50
     RDKit          3D

  0  0  0  0  0  0  0  0  0  0999 V3000
M  V30 BEGIN CTAB
M  V30 COUNTS 66 68 0 0 1
M  V30 BEGIN ATOM
M  V30 1 O 5.824352 7.408483 -15.621501 0
M  V30 2 C 8.129700 2.571720 -18.767698 0
M  V30 3 C 6.400121 6.640730 -14.940291 0
M  V30 4 C 9.041287 3.334034 -19.743008 0
M  V30 5 O 6.955175 1.191690 -16.267383 0
M  V30 6 O 7.594276 3.425571 -14.503322 0
M  V30 7 O 10.239414 7.150389 -5.274022 0
M  V30 8 O 9.137528 6.096347 -11.098728 0
M  V30 9 C 7.356460 4.575656 -11.622682 0
M  V30 10 N 8.926738 0.369428 -17.980613 0
M  V30 11 C 10.364368 7.275970 -6.485833 0
M  V30 12 O 6.907725 2.591716 -18.918968 0
M  V30 13 O 11.167325 9.483077 -6.209882 0
M  V30 14 C 13.558004 9.768855 -5.954097 0
M  V30 15 C 8.309567 4.506863 -20.421980 0
M  V30 16 F 8.963235 4.168414 -16.082168 0
M  V30 17 N 10.966906 8.354943 -7.044556 0
M  V30 18 C 8.163214 1.944339 -16.238152 0 CFG=2
M  V30 19 C 9.869089 6.304456 -7.464751 0
M  V30 20 C 8.208289 5.566922 -11.975313 0
M  V30 21 C 9.650418 2.379647 -20.783370 0
M  V30 22 C 9.240071 5.586414 -9.771616 0
M  V30 23 C 6.602865 4.336483 -14.040232 0 CFG=1
M  V30 24 C 7.868205 3.406377 -15.834295 0 CFG=1
M  V30 25 C 10.337432 7.883863 -9.379918 0
M  V30 26 C 7.157246 -0.222429 -16.370393 0
M  V30 27 C 8.244643 6.213473 -13.344644 0
M  V30 28 C 12.244805 9.370774 -5.289075 0
M  V30 29 C 11.281341 8.618175 -8.440980 0
M  V30 30 C 8.816513 1.784314 -17.632505 0 CFG=2
M  V30 31 C 9.839212 6.574826 -8.789462 0
M  V30 32 C 6.324715 3.985572 -12.565875 0
M  V30 33 O 8.205590 -1.764689 -17.896779 0
M  V30 34 C 7.048701 5.787234 -14.179084 0
M  V30 35 C 8.146326 -0.607252 -17.491522 0
M  V30 36 H 9.855461 3.756409 -19.153119 0
M  V30 37 H 7.377246 4.164199 -10.631299 0
M  V30 38 H 9.581880 0.117552 -18.704985 0
M  V30 39 H 14.392892 9.716172 -5.255408 0
M  V30 40 H 13.793790 9.158828 -6.824839 0
M  V30 41 H 13.471125 10.795496 -6.291295 0
M  V30 42 H 7.866686 5.177789 -19.684549 0
M  V30 43 H 8.998261 5.097483 -21.026325 0
M  V30 44 H 7.510116 4.159302 -21.078125 0
M  V30 45 H 8.820466 1.501459 -15.490945 0
M  V30 46 H 9.467193 5.369085 -7.109499 0
M  V30 47 H 10.229783 1.585386 -20.311946 0
M  V30 48 H 8.877862 1.911751 -21.395188 0
M  V30 49 H 10.322877 2.914084 -21.454912 0
M  V30 50 H 9.810221 4.656403 -9.765294 0
M  V30 51 H 8.261981 5.397813 -9.331075 0
M  V30 52 H 5.690988 4.169662 -14.608933 0
M  V30 53 H 7.039302 3.792913 -16.423517 0
M  V30 54 H 10.844840 7.709758 -10.329374 0
M  V30 55 H 9.462588 8.500666 -9.593565 0
M  V30 56 H 7.541740 -0.601270 -15.422797 0
M  V30 57 H 6.196791 -0.709263 -16.542414 0
M  V30 58 H 8.282591 7.298815 -13.238177 0
M  V30 59 H 9.153840 5.877348 -13.842863 0
M  V30 60 H 12.045269 10.083047 -4.489008 0
M  V30 61 H 12.288766 8.403439 -4.792176 0
M  V30 62 H 12.287418 8.227185 -8.596286 0
M  V30 63 H 11.352113 9.679450 -8.675531 0
M  V30 64 H 9.840028 2.150439 -17.545775 0
M  V30 65 H 6.285629 2.903586 -12.435729 0
M  V30 66 H 5.350082 4.372776 -12.267422 0
M  V30 END ATOM
M  V30 BEGIN BOND
M  V30 1 2 3 1
M  V30 2 1 4 2
M  V30 3 2 11 7
M  V30 4 2 12 2
M  V30 5 1 15 4
M  V30 6 1 17 11
M  V30 7 1 17 13
M  V30 8 1 18 5
M  V30 9 1 19 11
M  V30 10 1 20 8
M  V30 11 2 20 9
M  V30 12 1 21 4
M  V30 13 1 22 8
M  V30 14 1 23 6
M  V30 15 1 24 6
M  V30 16 1 24 16
M  V30 17 1 24 18
M  V30 18 1 26 5
M  V30 19 1 27 20
M  V30 20 1 28 13
M  V30 21 1 28 14
M  V30 22 1 29 17
M  V30 23 1 29 25
M  V30 24 1 30 2
M  V30 25 1 30 10
M  V30 26 1 30 18
M  V30 27 2 31 19
M  V30 28 1 31 22
M  V30 29 1 31 25
M  V30 30 1 32 9
M  V30 31 1 32 23
M  V30 32 2 34 3
M  V30 33 1 34 23
M  V30 34 1 34 27
M  V30 35 1 35 10
M  V30 36 1 35 26
M  V30 37 2 35 33
M  V30 38 1 36 4
M  V30 39 1 37 9
M  V30 40 1 38 10
M  V30 41 1 39 14
M  V30 42 1 40 14
M  V30 43 1 41 14
M  V30 44 1 42 15
M  V30 45 1 43 15
M  V30 46 1 44 15
M  V30 47 1 18 45 CFG=1
M  V30 48 1 46 19
M  V30 49 1 47 21
M  V30 50 1 48 21
M  V30 51 1 49 21
M  V30 52 1 50 22
M  V30 53 1 51 22
M  V30 54 1 23 52 CFG=3
M  V30 55 1 24 53 CFG=3
M  V30 56 1 54 25
M  V30 57 1 55 25
M  V30 58 1 56 26
M  V30 59 1 57 26
M  V30 60 1 58 27
M  V30 61 1 59 27
M  V30 62 1 60 28
M  V30 63 1 61 28
M  V30 64 1 62 29
M  V30 65 1 63 29
M  V30 66 1 30 64 CFG=1
M  V30 67 1 65 32
M  V30 68 1 66 32
M  V30 END BOND
M  V30 END CTAB
M  END
>  <i_epik_Tot_Q>  (1) 
0

>  <i_epik_Tot_abs_Q>  (1) 
0

>  <i_i_glide_confnum>  (1) 
372

>  <i_i_glide_lignum>  (1) 
113

>  <i_i_glide_posenum>  (1) 
108

>  <i_i_glide_rotatable_bonds>  (1) 
10

>  <i_lp_mmshare_version>  (1) 
72125

>  <i_m_source_file_index>  (1) 
47

>  <i_f3d_flags>  (1) 
0

>  <num_sample>  (1) 
50

>  <b_lp_Chiralities_Consistent>  (1) 
1

>  <r_epik_Charging_Adjusted_Penalty>  (1) 
0

>  <r_epik_Ionization_Penalty>  (1) 
2.9296726468019972e-06

>  <r_epik_Ionization_Penalty_Charging>  (1) 
0

>  <r_epik_Ionization_Penalty_Neutral>  (1) 
2.9296726468019972e-06

>  <r_epik_State_Penalty>  (1) 
-0

>  <r_glide_ring_energy>  (1) 
0

>  <r_i_docking_score>  (1) 
-4.0984696252825499

>  <r_i_glide_ecoul>  (1) 
0.37318327922961647

>  <r_i_glide_eff_state_penalty>  (1) 
-0

>  <r_i_glide_einternal>  (1) 
6.2354214896534588

>  <r_i_glide_emodel>  (1) 
-48.07173507016504

>  <r_i_glide_emodel_strain>  (1) 
1.0560412219675044

>  <r_i_glide_energy>  (1) 
-41.552154460270778

>  <r_i_glide_erotb>  (1) 
0.66665793866395417

>  <r_i_glide_esite>  (1) 
-0.0075263645527644174

>  <r_i_glide_evdw>  (1) 
-41.925337739500392

>  <r_i_glide_gscore>  (1) 
-4.0984696252825499

>  <r_i_glide_gscore_strain>  (1) 
0

>  <r_i_glide_hbond>  (1) 
0

>  <r_i_glide_ligand_efficiency>  (1) 
-0.11709913215093

>  <r_i_glide_ligand_efficiency_ln>  (1) 
-0.89970504338202373

>  <r_i_glide_ligand_efficiency_sa>  (1) 
-0.3830390261312287

>  <r_i_glide_lipo>  (1) 
-1.6954655514444905

>  <r_i_glide_metal>  (1) 
-0

>  <r_i_glide_rewards>  (1) 
-1.021846252858672

>  <r_lp_Energy>  (1) 
33.611015999999999

>  <r_lp_tautomer_probability>  (1) 
1

>  <s_epik_Chemistry_Notes>  (1) 
This compound has a N-S or N-O group and may undergo hydrolysis at high or low pH.

>  <s_epik_cmdline>  (1) 
J2VwaWtfcHl0aG9uJywgJy1waHQnLCAnMS4wJywgJy1waCcsICc3LjQnLCAnLXRuJywgJzgnLCAnLW1hJywgJzUwMCcsICctaW1hZScsICc8aW5maWxlLm1hZT4nLCAnLW9tYWUnLCAnPG91dGZpbGUubWFlPic=

>  <s_epik_input>  (1) 
W0NIM11bQ0hdKFtDSDNdKUMoPU8pW0NAQEhdMVtOSF1DKD1PKVtDSDJdT1tDQEBIXTFbQ0BIXShGKU9bQ0BIXShDKD1DPU8pW0NIMl0yKVtDSDJdW0NIXT1DMk9bQ0gyXUMoPVtDSF0zKVtDSDJdW0NIMl1OKEMzPU8pT1tDSDJdW0NIM10=

>  <s_glide_docking_method>  (1) 
confgen

>  <s_i_glide_gridfile>  (1) 
gpcr_drd2_6luq_protein_autoprepared_prepared

>  <s_lp_Force_Field>  (1) 
S-OPLS

>  <s_lp_Variant>  (1) 
DiffSBDD_46_num_sample_50-1

>  <s_m_source_file>  (1) 
generated__ligand_DiffSBDD_2026-05-06_prepared.sdf

>  <GenAI_Model>  (1) 
DiffSBDD

>  <Protein>  (1) 
generic_title2

$$$$
DiffSBDD_41_num_sample_50
     RDKit          3D

  0  0  0  0  0  0  0  0  0  0999 V3000
M  V30 BEGIN CTAB
M  V30 COUNTS 105 110 0 0 1
M  V30 BEGIN ATOM
M  V30 1 C 5.364633 5.665089 -11.400702 0
M  V30 2 C 7.633341 5.305644 -15.858084 0
M  V30 3 C 8.312774 4.814099 -14.555931 0
M  V30 4 C 10.317276 6.071267 -11.896360 0
M  V30 5 C 6.092888 6.637563 -11.929649 0
M  V30 6 O 7.796687 5.178624 -18.248657 0
M  V30 7 C 10.561776 0.210002 -19.839382 0
M  V30 8 N 7.481132 0.185790 -17.580478 0
M  V30 9 O 6.601144 -4.301874 -19.491669 0
M  V30 10 C 6.634828 1.681059 -15.479827 0 CFG=2
M  V30 11 C 10.837504 7.347845 -11.178337 0
M  V30 12 O 7.260400 1.955473 -14.240671 0
M  V30 13 C 8.234753 -0.348510 -15.313044 0
M  V30 14 C 5.933699 -1.945128 -20.052647 0 CFG=1
M  V30 15 C 5.670466 2.742038 -19.774381 0
M  V30 16 C 7.097505 -2.650561 -21.349938 0 CFG=2
M  V30 17 C 6.437449 2.476633 -13.222317 0
M  V30 18 C 6.222635 4.017116 -13.206596 0 CFG=1
M  V30 19 C 5.952165 -1.646818 -21.566047 0
M  V30 20 C 5.306421 4.272859 -11.972273 0
M  V30 21 C 6.787808 -5.620263 -19.974794 0
M  V30 22 C 10.144575 2.296846 -18.353351 0
M  V30 23 O 9.417153 -0.528897 -19.409120 0
M  V30 24 C 7.967947 -3.262087 -22.443644 0
M  V30 25 C 8.334338 4.927397 -17.170814 0
M  V30 26 C 6.162182 2.131573 -18.449691 0
M  V30 27 N 7.425447 0.613107 -19.900238 0 CHG=1
M  V30 28 N 9.526021 4.309352 -17.074690 0
M  V30 29 C 10.449375 1.748417 -19.759165 0
M  V30 30 C 6.960056 6.443442 -13.126098 0 CFG=2
M  V30 31 S 4.730707 -1.333200 -18.807536 0
M  V30 32 C 7.495016 4.962401 -13.228893 0 CFG=2
M  V30 33 O 7.954002 7.429447 -13.091647 0
M  V30 34 C 10.774575 7.325799 -9.634589 0
M  V30 35 F 10.019495 -4.288971 -22.926842 0
M  V30 36 C 5.794452 0.428730 -15.575626 0
M  V30 37 C 7.046171 0.935226 -18.643930 0
M  V30 38 C 8.288129 -0.522842 -20.234584 0 CFG=2
M  V30 39 C 9.557026 6.570381 -9.152159 0
M  V30 40 C 8.844167 5.753255 -9.936197 0
M  V30 41 C 9.403845 -3.549971 -22.004467 0
M  V30 42 C 7.211150 0.426771 -16.123345 0 CFG=2
M  V30 43 F 10.073783 -2.409074 -21.849449 0
M  V30 44 N 9.135689 5.498763 -11.264275 0
M  V30 45 C 8.402326 4.494347 -12.033706 0
M  V30 46 C 6.082724 -3.420168 -20.482879 0 CFG=1
M  V30 47 C 10.264286 3.829078 -18.243815 0
M  V30 48 C 7.497686 -1.844849 -20.076321 0 CFG=1
M  V30 49 H 4.757174 5.862090 -10.528824 0
M  V30 50 H 7.515405 6.387852 -15.841452 0
M  V30 51 H 6.626304 4.902207 -15.928806 0
M  V30 52 H 8.634270 3.783259 -14.668025 0
M  V30 53 H 9.244138 5.365115 -14.475711 0
M  V30 54 H 11.034859 5.266711 -11.919280 0
M  V30 55 H 10.152717 6.318989 -12.938085 0
M  V30 56 H 6.079743 7.622763 -11.491652 0
M  V30 57 H 11.390684 -0.104126 -19.204870 0
M  V30 58 H 10.836987 -0.092118 -20.850355 0
M  V30 59 H 8.066619 -0.612945 -17.789430 0
M  V30 60 H 6.314364 2.569440 -15.983222 0
M  V30 61 H 10.223786 8.180697 -11.517453 0
M  V30 62 H 11.857645 7.568456 -11.491798 0
M  V30 63 H 7.730651 -1.029546 -14.632851 0
M  V30 64 H 8.920676 -0.927599 -15.933187 0
M  V30 65 H 8.799668 0.320673 -14.671086 0
M  V30 66 H 5.030390 3.601081 -19.576194 0
M  V30 67 H 6.499716 3.104139 -20.382836 0
M  V30 68 H 5.090476 2.026552 -20.358501 0
M  V30 69 H 6.903793 2.161368 -12.292099 0
M  V30 70 H 5.474532 1.963626 -13.237703 0
M  V30 71 H 5.626383 4.267692 -14.081912 0
M  V30 72 H 5.094995 -1.999297 -22.147383 0
M  V30 73 H 6.240966 -0.643096 -21.879120 0
M  V30 74 H 5.517471 3.589763 -11.148184 0
M  V30 75 H 4.278372 4.112489 -12.291559 0
M  V30 76 H 7.178725 -6.250835 -19.176985 0
M  V30 77 H 5.845699 -6.053229 -20.312395 0
M  V30 78 H 7.498751 -5.647354 -20.800058 0
M  V30 79 H 9.132764 2.012730 -18.088163 0
M  V30 80 H 10.795305 1.826572 -17.614297 0
M  V30 81 H 7.510204 -4.191142 -22.784029 0
M  V30 82 H 7.985968 -2.608339 -23.316472 0
M  V30 83 H 8.599616 -0.395652 -21.272473 0
M  V30 84 H 5.287050 1.844969 -17.884169 0
M  V30 85 H 9.921578 4.138662 -16.161137 0
M  V30 86 H 11.397132 2.169793 -20.096804 0
M  V30 87 H 9.700719 2.107049 -20.465276 0
M  V30 88 H 6.319484 6.677404 -13.976008 0
M  V30 89 H 4.902439 -0.034015 -19.055016 0
M  V30 90 H 8.430638 7.296526 -12.280579 0
M  V30 91 H 10.738837 8.346685 -9.251938 0
M  V30 92 H 11.664506 6.866229 -9.210206 0
M  V30 93 H 5.601111 -0.128230 -14.659590 0
M  V30 94 H 4.979339 0.392386 -16.291267 0
M  V30 95 H 6.721964 2.900281 -17.936916 0
M  V30 96 H 9.265911 6.715744 -8.121626 0
M  V30 97 H 7.975170 5.226160 -9.568770 0
M  V30 98 H 9.434490 -4.098096 -21.062965 0
M  V30 99 H 7.801731 3.953877 -11.305243 0
M  V30 100 H 9.114735 3.746484 -12.385557 0
M  V30 101 H 5.212795 -3.839482 -20.998547 0
M  V30 102 H 11.312060 4.113144 -18.141782 0
M  V30 103 H 9.913442 4.300901 -19.163571 0
M  V30 104 H 7.974974 -2.462423 -19.312384 0
M  V30 105 H 7.125147 1.232862 -20.639656 0
M  V30 END ATOM
M  V30 BEGIN BOND
M  V30 1 1 3 2
M  V30 2 2 5 1
M  V30 3 1 11 4
M  V30 4 1 12 10
M  V30 5 1 17 12
M  V30 6 1 18 17
M  V30 7 1 19 14
M  V30 8 1 19 16
M  V30 9 1 20 1
M  V30 10 1 20 18
M  V30 11 1 21 9
M  V30 12 1 23 7
M  V30 13 1 16 24 CFG=3
M  V30 14 1 25 2
M  V30 15 2 25 6
M  V30 16 1 26 15
M  V30 17 1 28 25
M  V30 18 1 29 7
M  V30 19 1 29 22
M  V30 20 1 30 5
M  V30 21 1 14 31 CFG=1
M  V30 22 1 32 3
M  V30 23 1 32 18
M  V30 24 1 32 30
M  V30 25 1 33 30
M  V30 26 1 34 11
M  V30 27 1 36 10
M  V30 28 1 37 8
M  V30 29 1 37 26
M  V30 30 2 37 27
M  V30 31 1 38 23
M  V30 32 1 38 27
M  V30 33 1 39 34
M  V30 34 2 40 39
M  V30 35 1 41 24
M  V30 36 1 41 35
M  V30 37 1 42 8
M  V30 38 1 42 10
M  V30 39 1 42 13 CFG=1
M  V30 40 1 42 36
M  V30 41 1 43 41
M  V30 42 1 44 4
M  V30 43 1 44 40
M  V30 44 1 32 45 CFG=1
M  V30 45 1 45 44
M  V30 46 1 46 9
M  V30 47 1 46 14
M  V30 48 1 46 16
M  V30 49 1 47 22
M  V30 50 1 47 28
M  V30 51 1 48 14
M  V30 52 1 48 16
M  V30 53 1 48 38
M  V30 54 1 49 1
M  V30 55 1 50 2
M  V30 56 1 51 2
M  V30 57 1 52 3
M  V30 58 1 53 3
M  V30 59 1 54 4
M  V30 60 1 55 4
M  V30 61 1 56 5
M  V30 62 1 57 7
M  V30 63 1 58 7
M  V30 64 1 59 8
M  V30 65 1 10 60 CFG=3
M  V30 66 1 61 11
M  V30 67 1 62 11
M  V30 68 1 63 13
M  V30 69 1 64 13
M  V30 70 1 65 13
M  V30 71 1 66 15
M  V30 72 1 67 15
M  V30 73 1 68 15
M  V30 74 1 69 17
M  V30 75 1 70 17
M  V30 76 1 18 71 CFG=3
M  V30 77 1 72 19
M  V30 78 1 73 19
M  V30 79 1 74 20
M  V30 80 1 75 20
M  V30 81 1 76 21
M  V30 82 1 77 21
M  V30 83 1 78 21
M  V30 84 1 79 22
M  V30 85 1 80 22
M  V30 86 1 81 24
M  V30 87 1 82 24
M  V30 88 1 38 83 CFG=3
M  V30 89 1 84 26
M  V30 90 1 85 28
M  V30 91 1 86 29
M  V30 92 1 87 29
M  V30 93 1 30 88 CFG=3
M  V30 94 1 89 31
M  V30 95 1 90 33
M  V30 96 1 91 34
M  V30 97 1 92 34
M  V30 98 1 93 36
M  V30 99 1 94 36
M  V30 100 1 95 26
M  V30 101 1 96 39
M  V30 102 1 97 40
M  V30 103 1 98 41
M  V30 104 1 99 45
M  V30 105 1 100 45
M  V30 106 1 46 101 CFG=3
M  V30 107 1 102 47
M  V30 108 1 103 47
M  V30 109 1 48 104 CFG=1
M  V30 110 1 105 27
M  V30 END BOND
M  V30 END CTAB
M  END
>  <i_epik_Tot_Q>  (1) 
1

>  <i_epik_Tot_abs_Q>  (1) 
1

>  <i_i_glide_confnum>  (1) 
79

>  <i_i_glide_lignum>  (1) 
102

>  <i_i_glide_posenum>  (1) 
10

>  <i_i_glide_rotatable_bonds>  (1) 
9

>  <i_lp_mmshare_version>  (1) 
72125

>  <i_m_source_file_index>  (1) 
42

>  <i_f3d_flags>  (1) 
0

>  <num_sample>  (1) 
50

>  <b_lp_Chiralities_Consistent>  (1) 
1

>  <r_epik_Charging_Adjusted_Penalty>  (1) 
0.076842420233623365

>  <r_epik_Ionization_Penalty>  (1) 
0.078794888684849976

>  <r_epik_Ionization_Penalty_Charging>  (1) 
0.00072930087509115145

>  <r_epik_Ionization_Penalty_Neutral>  (1) 
0.078065587809758821

>  <r_epik_State_Penalty>  (1) 
0.076113119358532211

>  <r_glide_ring_energy>  (1) 
0

>  <r_i_docking_score>  (1) 
-4.0966192845164624

>  <r_i_glide_ecoul>  (1) 
-1.7097729587577175

>  <r_i_glide_eff_state_penalty>  (1) 
0.076113119358532211

>  <r_i_glide_einternal>  (1) 
21.113665075151239

>  <r_i_glide_emodel>  (1) 
-25.484971646015214

>  <r_i_glide_emodel_strain>  (1) 
2.3684106452208198

>  <r_i_glide_energy>  (1) 
-32.453694731550023

>  <r_i_glide_erotb>  (1) 
0.0035911919815773572

>  <r_i_glide_esite>  (1) 
-0.0037167109137534998

>  <r_i_glide_evdw>  (1) 
-30.743921772792305

>  <r_i_glide_gscore>  (1) 
-4.1727324038749947

>  <r_i_glide_gscore_strain>  (1) 
0

>  <r_i_glide_hbond>  (1) 
0

>  <r_i_glide_ligand_efficiency>  (1) 
-0.085346235094092962

>  <r_i_glide_ligand_efficiency_ln>  (1) 
-0.84098752552872735

>  <r_i_glide_ligand_efficiency_sa>  (1) 
-0.3101688026203388

>  <r_i_glide_lipo>  (1) 
-1.4747019104062327

>  <r_i_glide_metal>  (1) 
-0

>  <r_i_glide_rewards>  (1) 
-0.90424294208331235

>  <r_lp_Energy>  (1) 
121.88109999999999

>  <s_epik_Chemistry_Notes>  (1) 
This compound has an imine and may undergo hydrolysis. This compound contains an acetal/aminal-like group ( X-CH(R)-Y where X, Y are N, S, or O) that may be acid/base labile, releasing an aldehyde.

>  <s_epik_cmdline>  (1) 
J2VwaWtfcHl0aG9uJywgJy1waHQnLCAnMS4wJywgJy1waCcsICc3LjQnLCAnLXRuJywgJzgnLCAnLW1hJywgJzUwMCcsICctaW1hZScsICc8aW5maWxlLm1hZT4nLCAnLW9tYWUnLCAnPG91dGZpbGUubWFlPic=

>  <s_epik_input>  (1) 
W0NIXTE9W0NIXVtDSDJdW0NIMl1bQ0gyXU4xW0NIMl1bQ0BdMjNbQ0BIXShbQ0gyXVtDSF09W0NIXVtDQEhdM1tPSF0pW0NIMl1PW0NASF00W0NAQF0oW0NIM10pKFtDSDJdNClbTkhdW0NASF0oW0NIMl1bQ0gzXSkvTj1DKFtDQEBIXTVbQ0BdKFtDSDJdW0NIXShGKUYpKFtDSDJdW0NAXTU2W1NIXSlbQ0BIXTZPW0NIM10pL09bQ0gyXVtDSDJdW0NIMl1bQ0gyXVtOSF1DKD1PKVtDSDJdW0NIMl0y

>  <s_glide_docking_method>  (1) 
confgen

>  <s_i_glide_gridfile>  (1) 
gpcr_drd2_6luq_protein_autoprepared_prepared

>  <s_lp_Force_Field>  (1) 
S-OPLS

>  <s_lp_Variant>  (1) 
DiffSBDD_41_num_sample_50-2

>  <s_m_source_file>  (1) 
generated__ligand_DiffSBDD_2026-05-06_prepared.sdf

>  <GenAI_Model>  (1) 
DiffSBDD

>  <Protein>  (1) 
generic_title2

$$$$
DiffSBDD_35_num_sample_50
     RDKit          3D

  0  0  0  0  0  0  0  0  0  0999 V3000
M  V30 BEGIN CTAB
M  V30 COUNTS 55 58 0 0 1
M  V30 BEGIN ATOM
M  V30 1 C 7.306095 4.331491 -18.110064 0
M  V30 2 C 5.265587 7.040340 -22.770610 0
M  V30 3 C 6.256929 7.466032 -20.417259 0 CFG=1
M  V30 4 O 8.463277 2.892482 -16.604647 0
M  V30 5 C 7.719258 7.693685 -22.541304 0
M  V30 6 O 10.455524 6.969284 -11.655495 0
M  V30 7 O 6.635076 6.617913 -17.669667 0
M  V30 8 C 6.482973 5.906059 -13.532973 0 CFG=1
M  V30 9 C 7.304071 3.931161 -12.069066 0 CFG=1
M  V30 10 C 8.551147 3.482903 -12.818149 0
M  V30 11 C 6.677456 6.035013 -20.012864 0
M  V30 12 C 6.302361 7.837234 -21.941656 0
M  V30 13 C 7.463929 4.874926 -10.949391 0 CFG=1
M  V30 14 C 6.958477 6.724684 -12.398342 0 CFG=2
M  V30 15 C 7.434837 10.036432 -21.909218 0
M  V30 16 C 9.272202 6.635536 -11.627693 0
M  V30 17 C 8.003063 4.220228 -16.735372 0 CFG=2
M  V30 18 C 8.744866 5.626000 -10.599455 0
M  V30 19 C 6.854202 5.745144 -18.508201 0
M  V30 20 O 6.870245 5.150624 -20.847131 0
M  V30 21 C 7.110835 4.560874 -15.553920 0
M  V30 22 C 7.354598 5.560482 -14.691248 0
M  V30 23 Cl 4.634839 7.809904 -19.753046 0
M  V30 24 O 8.327374 7.102600 -12.468498 0
M  V30 25 C 6.542491 5.285328 -12.105538 0 CFG=2
M  V30 26 C 8.492025 8.950523 -22.130674 0
M  V30 27 O 6.039303 7.660815 -11.891668 0
M  V30 28 C 6.078924 9.355780 -22.130862 0
M  V30 29 H 7.993200 3.970559 -18.876213 0
M  V30 30 H 6.436993 3.675065 -18.147569 0
M  V30 31 H 5.286905 7.336893 -23.818938 0
M  V30 32 H 5.448323 5.967312 -22.748316 0
M  V30 33 H 4.248077 7.208063 -22.418307 0
M  V30 34 H 6.936287 8.135303 -19.891682 0
M  V30 35 H 7.722684 2.305417 -16.624309 0
M  V30 36 H 8.242870 6.782312 -22.256716 0
M  V30 37 H 7.652477 7.678101 -23.630312 0
M  V30 38 H 5.477841 6.126658 -13.888478 0
M  V30 39 H 6.634907 3.091418 -11.891746 0
M  V30 40 H 9.173430 4.317448 -13.135448 0
M  V30 41 H 9.153802 2.838812 -12.177438 0
M  V30 42 H 8.269572 2.901302 -13.694897 0
M  V30 43 H 6.939474 4.574416 -10.044115 0
M  V30 44 H 7.571966 10.876763 -22.591398 0
M  V30 45 H 7.509451 10.427547 -20.895573 0
M  V30 46 H 8.878025 4.872569 -16.720487 0
M  V30 47 H 9.526408 4.896744 -10.386813 0
M  V30 48 H 8.573534 6.169331 -9.670367 0
M  V30 49 H 6.234853 3.949494 -15.419183 0
M  V30 50 H 8.235162 6.169389 -14.830102 0
M  V30 51 H 9.218602 9.238491 -22.891925 0
M  V30 52 H 9.042578 8.770395 -21.206762 0
M  V30 53 H 6.243417 7.769314 -10.956083 0
M  V30 54 H 5.766318 9.555605 -23.157057 0
M  V30 55 H 5.303002 9.773706 -21.490220 0
M  V30 END ATOM
M  V30 BEGIN BOND
M  V30 1 1 10 9
M  V30 2 1 11 3
M  V30 3 1 12 2
M  V30 4 1 12 3
M  V30 5 1 12 5
M  V30 6 1 13 9
M  V30 7 1 14 8
M  V30 8 2 16 6
M  V30 9 1 17 1
M  V30 10 1 17 4
M  V30 11 1 18 13
M  V30 12 1 18 16
M  V30 13 1 19 1
M  V30 14 2 19 7
M  V30 15 1 19 11
M  V30 16 2 20 11
M  V30 17 1 21 17
M  V30 18 1 22 8
M  V30 19 2 22 21
M  V30 20 1 23 3
M  V30 21 1 24 14
M  V30 22 1 24 16
M  V30 23 1 25 8
M  V30 24 1 25 9
M  V30 25 1 25 13
M  V30 26 1 25 14 CFG=1
M  V30 27 1 26 5
M  V30 28 1 26 15
M  V30 29 1 14 27 CFG=1
M  V30 30 1 28 12
M  V30 31 1 28 15
M  V30 32 1 29 1
M  V30 33 1 30 1
M  V30 34 1 31 2
M  V30 35 1 32 2
M  V30 36 1 33 2
M  V30 37 1 3 34 CFG=1
M  V30 38 1 35 4
M  V30 39 1 36 5
M  V30 40 1 37 5
M  V30 41 1 8 38 CFG=3
M  V30 42 1 9 39 CFG=1
M  V30 43 1 40 10
M  V30 44 1 41 10
M  V30 45 1 42 10
M  V30 46 1 13 43 CFG=1
M  V30 47 1 44 15
M  V30 48 1 45 15
M  V30 49 1 17 46 CFG=3
M  V30 50 1 47 18
M  V30 51 1 48 18
M  V30 52 1 49 21
M  V30 53 1 50 22
M  V30 54 1 51 26
M  V30 55 1 52 26
M  V30 56 1 53 27
M  V30 57 1 54 28
M  V30 58 1 55 28
M  V30 END BOND
M  V30 END CTAB
M  END
>  <i_epik_Tot_Q>  (1) 
0

>  <i_epik_Tot_abs_Q>  (1) 
0

>  <i_i_glide_confnum>  (1) 
174

>  <i_i_glide_lignum>  (1) 
90

>  <i_i_glide_posenum>  (1) 
249

>  <i_i_glide_rotatable_bonds>  (1) 
9

>  <i_lp_mmshare_version>  (1) 
72125

>  <i_m_source_file_index>  (1) 
36

>  <i_f3d_flags>  (1) 
0

>  <num_sample>  (1) 
50

>  <b_lp_Chiralities_Consistent>  (1) 
1

>  <r_epik_Charging_Adjusted_Penalty>  (1) 
0

>  <r_epik_Ionization_Penalty>  (1) 
1.4539570635880344e-05

>  <r_epik_Ionization_Penalty_Charging>  (1) 
0

>  <r_epik_Ionization_Penalty_Neutral>  (1) 
1.4539570635880344e-05

>  <r_epik_State_Penalty>  (1) 
-0

>  <r_glide_ring_energy>  (1) 
0.0026261030611502726

>  <r_i_docking_score>  (1) 
-4.0953747458449108

>  <r_i_glide_ecoul>  (1) 
-6.4791570637690299

>  <r_i_glide_eff_state_penalty>  (1) 
-0

>  <r_i_glide_einternal>  (1) 
5.4720955437298278

>  <r_i_glide_emodel>  (1) 
-36.328884553095321

>  <r_i_glide_emodel_strain>  (1) 
0.20941664485648914

>  <r_i_glide_energy>  (1) 
-33.795945085589324

>  <r_i_glide_erotb>  (1) 
0.81694813045343473

>  <r_i_glide_esite>  (1) 
-0.087194165003314228

>  <r_i_glide_evdw>  (1) 
-27.31678802182029

>  <r_i_glide_gscore>  (1) 
-4.0953747458449108

>  <r_i_glide_gscore_strain>  (1) 
0

>  <r_i_glide_hbond>  (1) 
-0.16

>  <r_i_glide_ligand_efficiency>  (1) 
-0.14626338378017539

>  <r_i_glide_ligand_efficiency_ln>  (1) 
-0.94533273676853369

>  <r_i_glide_ligand_efficiency_sa>  (1) 
-0.44414177817609829

>  <r_i_glide_lipo>  (1) 
-1.1434043711021529

>  <r_i_glide_metal>  (1) 
-0

>  <r_i_glide_rewards>  (1) 
-1.1840113795365086

>  <r_lp_Energy>  (1) 
41.196965999999996

>  <r_lp_tautomer_probability>  (1) 
1

>  <s_epik_Chemistry_Notes>  (1) 
This compound has an ester and may undergo hydrolysis at high or low pH.

>  <s_epik_cmdline>  (1) 
J2VwaWtfcHl0aG9uJywgJy1waHQnLCAnMS4wJywgJy1waCcsICc3LjQnLCAnLXRuJywgJzgnLCAnLW1hJywgJzUwMCcsICctaW1hZScsICc8aW5maWxlLm1hZT4nLCAnLW9tYWUnLCAnPG91dGZpbGUubWFlPic=

>  <s_epik_input>  (1) 
W0NIMl0xW0NIMl1bQ0gyXVtDSDJdQzEoW0NIM10pW0NAQEhdKENsKUMoPU8pQyg9TylbQ0gyXVtDQEhdKFtPSF0pL1tDSF09W0NIXS9bQ0BASF0yW0NAXTMoW09IXSlPQyg9TylbQ0gyXVtDQEBIXShDMjM0KVtDQEBIXTRbQ0gzXQ==

>  <s_glide_docking_method>  (1) 
confgen

>  <s_i_glide_gridfile>  (1) 
gpcr_drd2_6luq_protein_autoprepared_prepared

>  <s_lp_Force_Field>  (1) 
S-OPLS

>  <s_lp_Variant>  (1) 
DiffSBDD_35_num_sample_50-2

>  <s_m_source_file>  (1) 
generated__ligand_DiffSBDD_2026-05-06_prepared.sdf

>  <GenAI_Model>  (1) 
DiffSBDD

>  <Protein>  (1) 
generic_title2

$$$$
DiffSBDD_33_num_sample_50
     RDKit          3D

  0  0  0  0  0  0  0  0  0  0999 V3000
M  V30 BEGIN CTAB
M  V30 COUNTS 69 72 0 0 1
M  V30 BEGIN ATOM
M  V30 1 O 14.464038 9.006782 -19.905680 0
M  V30 2 C 11.104736 7.895008 -20.327233 0
M  V30 3 O 14.449989 7.650732 -17.491673 0
M  V30 4 C 12.360769 6.482645 -17.955676 0
M  V30 5 C 8.228929 4.127954 -13.673451 0
M  V30 6 C 10.341188 3.702324 -18.943680 0
M  V30 7 C 6.215882 6.611180 -17.815600 0
M  V30 8 C 16.169723 9.130649 -18.246342 0
M  V30 9 N 10.879306 6.561484 -19.897421 0
M  V30 10 C 6.716635 5.237374 -18.253469 0
M  V30 11 C 6.965517 6.112767 -15.420231 0
M  V30 12 C 10.347028 5.005690 -18.162130 0
M  V30 13 N 12.487359 8.084117 -20.577109 0
M  V30 14 C 5.813413 6.573675 -16.338448 0 CFG=1
M  V30 15 N 6.919846 1.165321 -14.390881 0 CHG=1
M  V30 16 C 7.750277 4.879558 -15.911140 0
M  V30 17 C 15.786222 7.678563 -17.985978 0 CFG=2
M  V30 18 C 13.405302 7.468302 -18.378961 0
M  V30 19 C 8.028711 0.603358 -15.192440 0
M  V30 20 C 5.843188 0.169362 -14.201087 0
M  V30 21 N 8.231291 4.000330 -15.119977 0
M  V30 22 C 7.932751 4.771522 -17.433498 0 CFG=2
M  V30 23 F 16.014000 6.916139 -19.059721 0
M  V30 24 C 5.259141 7.931810 -15.890923 0
M  V30 25 C 13.431570 8.146567 -19.588285 0
M  V30 26 O 9.039422 5.552983 -17.901223 0
M  V30 27 C 14.992263 9.845977 -18.890799 0
M  V30 28 C 7.366582 1.761863 -13.105056 0
M  V30 29 C 7.111509 3.280592 -13.041830 0
M  V30 30 C 10.775454 3.709167 -17.492845 0
M  V30 31 C 11.263733 6.073440 -18.668613 0
M  V30 32 F 12.554016 5.894080 -16.762120 0
M  V30 33 H 10.759333 8.597434 -19.567530 0
M  V30 34 H 10.538239 8.087462 -21.238604 0
M  V30 35 H 9.192945 3.791812 -13.289530 0
M  V30 36 H 8.165471 5.162808 -13.335657 0
M  V30 37 H 9.397118 3.235172 -19.208691 0
M  V30 38 H 11.127990 3.558563 -19.681798 0
M  V30 39 H 5.364902 6.906541 -18.430743 0
M  V30 40 H 6.994394 7.355055 -17.978396 0
M  V30 41 H 16.426652 9.634753 -17.314269 0
M  V30 42 H 17.051363 9.175147 -18.886216 0
M  V30 43 H 10.069834 6.127004 -20.316616 0
M  V30 44 H 6.979990 5.263077 -19.311441 0
M  V30 45 H 5.904229 4.517776 -18.175083 0
M  V30 46 H 6.499749 5.902535 -14.458584 0
M  V30 47 H 5.008363 5.844834 -16.235999 0
M  V30 48 H 16.443655 7.265211 -17.221160 0
M  V30 49 H 12.689863 8.591093 -21.426525 0
M  V30 50 H 8.525869 -0.208365 -14.658844 0
M  V30 51 H 7.659948 0.209588 -16.140236 0
M  V30 52 H 8.765095 1.369267 -15.426796 0
M  V30 53 H 6.230024 -0.657395 -13.605057 0
M  V30 54 H 4.988387 0.603204 -13.680327 0
M  V30 55 H 5.488360 -0.224274 -15.154428 0
M  V30 56 H 8.051636 3.716147 -17.665204 0
M  V30 57 H 5.973263 8.734217 -16.079502 0
M  V30 58 H 4.339238 8.169301 -16.425136 0
M  V30 59 H 5.034860 7.935349 -14.824428 0
M  V30 60 H 14.234887 10.116023 -18.154289 0
M  V30 61 H 15.322642 10.781188 -19.343568 0
M  V30 62 H 8.416221 1.539881 -12.902597 0
M  V30 63 H 6.814296 1.292409 -12.291678 0
M  V30 64 H 7.052996 3.564273 -11.990285 0
M  V30 65 H 6.137690 3.533015 -13.464326 0
M  V30 66 H 11.835289 3.555133 -17.301289 0
M  V30 67 H 10.119999 3.227507 -16.775623 0
M  V30 68 H 6.536633 1.926361 -14.934791 0
M  V30 69 H 7.667540 6.922293 -15.231160 0
M  V30 END ATOM
M  V30 BEGIN BOND
M  V30 1 1 9 2
M  V30 2 1 10 7
M  V30 3 1 12 6
M  V30 4 1 13 2
M  V30 5 1 14 7
M  V30 6 1 14 11
M  V30 7 1 16 11
M  V30 8 1 17 3
M  V30 9 1 17 8
M  V30 10 1 18 3
M  V30 11 1 18 4
M  V30 12 1 19 15
M  V30 13 1 20 15
M  V30 14 1 21 5
M  V30 15 2 21 16
M  V30 16 1 22 10
M  V30 17 1 22 16
M  V30 18 1 23 17
M  V30 19 1 24 14
M  V30 20 1 25 1
M  V30 21 1 25 13
M  V30 22 2 25 18
M  V30 23 1 26 12
M  V30 24 1 26 22
M  V30 25 1 27 1
M  V30 26 1 27 8
M  V30 27 1 28 15
M  V30 28 1 29 5
M  V30 29 1 29 28
M  V30 30 1 30 6
M  V30 31 1 30 12
M  V30 32 2 31 4
M  V30 33 1 31 9
M  V30 34 1 31 12
M  V30 35 1 32 4
M  V30 36 1 33 2
M  V30 37 1 34 2
M  V30 38 1 35 5
M  V30 39 1 36 5
M  V30 40 1 37 6
M  V30 41 1 38 6
M  V30 42 1 39 7
M  V30 43 1 40 7
M  V30 44 1 41 8
M  V30 45 1 42 8
M  V30 46 1 43 9
M  V30 47 1 44 10
M  V30 48 1 45 10
M  V30 49 1 46 11
M  V30 50 1 14 47 CFG=3
M  V30 51 1 17 48 CFG=1
M  V30 52 1 49 13
M  V30 53 1 50 19
M  V30 54 1 51 19
M  V30 55 1 52 19
M  V30 56 1 53 20
M  V30 57 1 54 20
M  V30 58 1 55 20
M  V30 59 1 22 56 CFG=1
M  V30 60 1 57 24
M  V30 61 1 58 24
M  V30 62 1 59 24
M  V30 63 1 60 27
M  V30 64 1 61 27
M  V30 65 1 62 28
M  V30 66 1 63 28
M  V30 67 1 64 29
M  V30 68 1 65 29
M  V30 69 1 66 30
M  V30 70 1 67 30
M  V30 71 1 68 15
M  V30 72 1 69 11
M  V30 END BOND
M  V30 END CTAB
M  END
>  <i_epik_Tot_Q>  (1) 
1

>  <i_epik_Tot_abs_Q>  (1) 
1

>  <i_i_glide_confnum>  (1) 
202

>  <i_i_glide_lignum>  (1) 
83

>  <i_i_glide_posenum>  (1) 
292

>  <i_i_glide_rotatable_bonds>  (1) 
7

>  <i_lp_mmshare_version>  (1) 
72125

>  <i_m_source_file_index>  (1) 
34

>  <i_f3d_flags>  (1) 
0

>  <num_sample>  (1) 
50

>  <b_lp_Chiralities_Consistent>  (1) 
1

>  <r_epik_Charging_Adjusted_Penalty>  (1) 
0.41789118993368612

>  <r_epik_Ionization_Penalty>  (1) 
0.0076682513750627552

>  <r_epik_Ionization_Penalty_Charging>  (1) 
0.0072113509810821487

>  <r_epik_Ionization_Penalty_Neutral>  (1) 
0.0004569003939806066

>  <r_epik_State_Penalty>  (1) 
0.41067983895260396

>  <r_glide_ring_energy>  (1) 
0

>  <r_i_docking_score>  (1) 
-4.0802491087918176

>  <r_i_glide_ecoul>  (1) 
-1.7729394146227859

>  <r_i_glide_eff_state_penalty>  (1) 
0.41067983895260396

>  <r_i_glide_einternal>  (1) 
5.2120423670321605

>  <r_i_glide_emodel>  (1) 
-40.580897239644457

>  <r_i_glide_emodel_strain>  (1) 
1.405617558410043

>  <r_i_glide_energy>  (1) 
-32.834974001796013

>  <r_i_glide_erotb>  (1) 
0.58078846603177925

>  <r_i_glide_esite>  (1) 
0

>  <r_i_glide_evdw>  (1) 
-31.06203458717323

>  <r_i_glide_gscore>  (1) 
-4.4909289477444219

>  <r_i_glide_gscore_strain>  (1) 
0

>  <r_i_glide_hbond>  (1) 
0

>  <r_i_glide_ligand_efficiency>  (1) 
-0.1275077846497443

>  <r_i_glide_ligand_efficiency_ln>  (1) 
-0.91367899884849124

>  <r_i_glide_ligand_efficiency_sa>  (1) 
-0.40481198297427756

>  <r_i_glide_lipo>  (1) 
-2.1708651994358608

>  <r_i_glide_metal>  (1) 
-0

>  <r_i_glide_rewards>  (1) 
-1.0818095727882606

>  <r_lp_Energy>  (1) 
46.360869999999998

>  <r_lp_tautomer_probability>  (1) 
0.49999519497573586

>  <s_epik_Chemistry_Notes>  (1) 
This compound has an imine and may undergo hydrolysis. This compound contains an acetal/aminal-like group ( X-CH(R)-Y where X, Y are N, S, or O) that may be acid/base labile, releasing an aldehyde.

>  <s_epik_cmdline>  (1) 
J2VwaWtfcHl0aG9uJywgJy1waHQnLCAnMS4wJywgJy1waCcsICc3LjQnLCAnLXRuJywgJzgnLCAnLW1hJywgJzUwMCcsICctaW1hZScsICc8aW5maWxlLm1hZT4nLCAnLW9tYWUnLCAnPG91dGZpbGUubWFlPic=

>  <s_epik_input>  (1) 
TzFbQ0BASF0oRilbQ0gyXVtDSDJdT0MoW0NAQEhdMTIpPU5bQ0gyXVtOSF1DKD1DMkYpQzMoW0NIMl1bQ0gyXTMpT1tDQEBIXShbQ0gyXVtDSDJdW0NAQEhdNFtDSDNdKUMoPVtDSF00KVtOSF1bQ0gyXVtDSDJdW0NIMl1OKFtDSDNdKVtDSDNd

>  <s_glide_docking_method>  (1) 
confgen

>  <s_i_glide_gridfile>  (1) 
gpcr_drd2_6luq_protein_autoprepared_prepared

>  <s_lp_Force_Field>  (1) 
S-OPLS

>  <s_lp_Variant>  (1) 
DiffSBDD_33_num_sample_50-1

>  <s_m_source_file>  (1) 
generated__ligand_DiffSBDD_2026-05-06_prepared.sdf

>  <GenAI_Model>  (1) 
DiffSBDD

>  <Protein>  (1) 
generic_title2

$$$$
DiffSBDD_33_num_sample_50
     RDKit          3D

  0  0  0  0  0  0  0  0  0  0999 V3000
M  V30 BEGIN CTAB
M  V30 COUNTS 69 72 0 0 1
M  V30 BEGIN ATOM
M  V30 1 O 6.126525 0.827095 -19.606291 0
M  V30 2 C 6.377828 -0.300236 -16.219103 0
M  V30 3 O 7.757920 2.934036 -18.852413 0
M  V30 4 C 7.502094 2.508815 -16.467046 0
M  V30 5 C 8.548085 5.907231 -11.038483 0
M  V30 6 C 6.658945 1.881408 -12.691907 0
M  V30 7 C 5.461258 5.698608 -15.151888 0
M  V30 8 C 7.155410 2.371701 -21.093224 0
M  V30 9 N 6.262396 0.763415 -15.287442 0
M  V30 10 C 5.519161 4.944427 -13.814392 0
M  V30 11 C 7.466510 7.002469 -14.517489 0
M  V30 12 C 7.320531 2.466481 -13.943001 0
M  V30 13 N 5.833416 0.115506 -17.458720 0
M  V30 14 C 6.010247 7.106702 -14.977304 0 CFG=1
M  V30 15 N 10.170591 7.115800 -7.736251 0 CHG=1
M  V30 16 C 7.665471 6.188592 -13.247420 0
M  V30 17 C 8.269011 2.365070 -20.053309 0 CFG=2
M  V30 18 C 7.212871 2.113173 -17.880496 0
M  V30 19 C 9.392052 8.299954 -7.302798 0
M  V30 20 C 10.738841 6.391779 -6.578118 0
M  V30 21 N 8.390215 6.618760 -12.289182 0
M  V30 22 C 6.940661 4.826550 -13.225195 0 CFG=2
M  V30 23 F 8.812156 1.150530 -19.921402 0
M  V30 24 C 5.861311 7.923429 -16.268992 0
M  V30 25 C 6.416954 1.046739 -18.275655 0
M  V30 26 O 7.740494 3.841349 -13.887385 0
M  V30 27 C 5.852892 1.948158 -20.431212 0
M  V30 28 C 9.412865 6.225198 -8.651529 0
M  V30 29 C 9.433947 6.741844 -10.100652 0
M  V30 30 C 8.135206 1.685413 -12.938017 0
M  V30 31 C 7.034693 1.909370 -15.322275 0
M  V30 32 F 8.259210 3.608458 -16.311404 0
M  V30 33 H 5.826278 -1.165866 -15.850394 0
M  V30 34 H 7.421337 -0.597014 -16.336755 0
M  V30 35 H 7.576800 5.769095 -10.558774 0
M  V30 36 H 8.988760 4.920439 -11.195494 0
M  V30 37 H 6.334870 2.540889 -11.892829 0
M  V30 38 H 6.046117 0.986485 -12.768159 0
M  V30 39 H 4.446301 5.769310 -15.529788 0
M  V30 40 H 6.039298 5.164020 -15.905827 0
M  V30 41 H 7.035033 3.368706 -21.518006 0
M  V30 42 H 7.410469 1.703593 -21.915976 0
M  V30 43 H 5.955126 0.466506 -14.372151 0
M  V30 44 H 5.043939 3.968877 -13.891414 0
M  V30 45 H 4.934402 5.503512 -13.090842 0
M  V30 46 H 7.834680 8.013057 -14.348984 0
M  V30 47 H 5.434629 7.615633 -14.202771 0
M  V30 48 H 9.086387 2.995194 -20.404204 0
M  V30 49 H 5.235262 -0.566798 -17.901913 0
M  V30 50 H 8.536827 8.005834 -6.693206 0
M  V30 51 H 10.010902 8.970485 -6.706147 0
M  V30 52 H 9.022260 8.871550 -8.153624 0
M  V30 53 H 9.945459 5.971244 -5.959886 0
M  V30 54 H 11.394516 5.584235 -6.906959 0
M  V30 55 H 11.330148 7.061897 -5.953698 0
M  V30 56 H 6.812171 4.525238 -12.192107 0
M  V30 57 H 6.405854 7.458681 -17.091187 0
M  V30 58 H 4.814615 7.999471 -16.565052 0
M  V30 59 H 6.235276 8.939493 -16.143812 0
M  V30 60 H 5.400945 2.762702 -19.861063 0
M  V30 61 H 5.122107 1.665289 -21.189365 0
M  V30 62 H 8.387705 6.118043 -8.291827 0
M  V30 63 H 9.846922 5.224037 -8.643240 0
M  V30 64 H 10.455496 6.766545 -10.480733 0
M  V30 65 H 9.078299 7.772443 -10.125814 0
M  V30 66 H 8.470765 0.690007 -13.223282 0
M  V30 67 H 8.825443 2.240484 -12.304190 0
M  V30 68 H 10.955847 7.459775 -8.269683 0
M  V30 69 H 8.071321 6.538080 -15.296892 0
M  V30 END ATOM
M  V30 BEGIN BOND
M  V30 1 1 9 2
M  V30 2 1 10 7
M  V30 3 1 12 6
M  V30 4 1 13 2
M  V30 5 1 14 7
M  V30 6 1 14 11
M  V30 7 1 16 11
M  V30 8 1 17 3
M  V30 9 1 17 8
M  V30 10 1 18 3
M  V30 11 1 18 4
M  V30 12 1 19 15
M  V30 13 1 20 15
M  V30 14 1 21 5
M  V30 15 2 21 16
M  V30 16 1 22 10
M  V30 17 1 22 16
M  V30 18 1 23 17
M  V30 19 1 24 14
M  V30 20 1 25 1
M  V30 21 1 25 13
M  V30 22 2 25 18
M  V30 23 1 26 12
M  V30 24 1 26 22
M  V30 25 1 27 1
M  V30 26 1 27 8
M  V30 27 1 28 15
M  V30 28 1 29 5
M  V30 29 1 29 28
M  V30 30 1 30 6
M  V30 31 1 30 12
M  V30 32 2 31 4
M  V30 33 1 31 9
M  V30 34 1 31 12
M  V30 35 1 32 4
M  V30 36 1 33 2
M  V30 37 1 34 2
M  V30 38 1 35 5
M  V30 39 1 36 5
M  V30 40 1 37 6
M  V30 41 1 38 6
M  V30 42 1 39 7
M  V30 43 1 40 7
M  V30 44 1 41 8
M  V30 45 1 42 8
M  V30 46 1 43 9
M  V30 47 1 44 10
M  V30 48 1 45 10
M  V30 49 1 46 11
M  V30 50 1 14 47 CFG=1
M  V30 51 1 17 48 CFG=3
M  V30 52 1 49 13
M  V30 53 1 50 19
M  V30 54 1 51 19
M  V30 55 1 52 19
M  V30 56 1 53 20
M  V30 57 1 54 20
M  V30 58 1 55 20
M  V30 59 1 22 56 CFG=1
M  V30 60 1 57 24
M  V30 61 1 58 24
M  V30 62 1 59 24
M  V30 63 1 60 27
M  V30 64 1 61 27
M  V30 65 1 62 28
M  V30 66 1 63 28
M  V30 67 1 64 29
M  V30 68 1 65 29
M  V30 69 1 66 30
M  V30 70 1 67 30
M  V30 71 1 68 15
M  V30 72 1 69 11
M  V30 END BOND
M  V30 END CTAB
M  END
>  <i_epik_Tot_Q>  (1) 
1

>  <i_epik_Tot_abs_Q>  (1) 
1

>  <i_i_glide_confnum>  (1) 
23

>  <i_i_glide_lignum>  (1) 
85

>  <i_i_glide_posenum>  (1) 
11

>  <i_i_glide_rotatable_bonds>  (1) 
7

>  <i_lp_mmshare_version>  (1) 
72125

>  <i_m_source_file_index>  (1) 
34

>  <i_f3d_flags>  (1) 
0

>  <num_sample>  (1) 
50

>  <b_lp_Chiralities_Consistent>  (1) 
1

>  <r_epik_Charging_Adjusted_Penalty>  (1) 
0.41789118993368612

>  <r_epik_Ionization_Penalty>  (1) 
0.0076682513750627552

>  <r_epik_Ionization_Penalty_Charging>  (1) 
0.0072113509810821487

>  <r_epik_Ionization_Penalty_Neutral>  (1) 
0.0004569003939806066

>  <r_epik_State_Penalty>  (1) 
0.41067983895260396

>  <r_glide_ring_energy>  (1) 
0

>  <r_i_docking_score>  (1) 
-4.0769338010277218

>  <r_i_glide_ecoul>  (1) 
-2.3916117540781352

>  <r_i_glide_eff_state_penalty>  (1) 
0.41067983895260396

>  <r_i_glide_einternal>  (1) 
15.907929580526098

>  <r_i_glide_emodel>  (1) 
-38.656128420647683

>  <r_i_glide_emodel_strain>  (1) 
0.97337526266358054

>  <r_i_glide_energy>  (1) 
-34.805205702241018

>  <r_i_glide_erotb>  (1) 
0.58078846603177925

>  <r_i_glide_esite>  (1) 
-0.017631876652703583

>  <r_i_glide_evdw>  (1) 
-32.413593948162884

>  <r_i_glide_gscore>  (1) 
-4.4876136399803261

>  <r_i_glide_gscore_strain>  (1) 
0

>  <r_i_glide_hbond>  (1) 
0

>  <r_i_glide_ligand_efficiency>  (1) 
-0.12740418128211631

>  <r_i_glide_ligand_efficiency_ln>  (1) 
-0.91293661106823365

>  <r_i_glide_ligand_efficiency_sa>  (1) 
-0.40448306278475732

>  <r_i_glide_lipo>  (1) 
-1.9344925409386533

>  <r_i_glide_metal>  (1) 
-0

>  <r_i_glide_rewards>  (1) 
-1.1368562279008831

>  <r_lp_Energy>  (1) 
47.505379999999995

>  <r_lp_tautomer_probability>  (1) 
0.49999519497573586

>  <s_epik_Chemistry_Notes>  (1) 
This compound has an imine and may undergo hydrolysis. This compound contains an acetal/aminal-like group ( X-CH(R)-Y where X, Y are N, S, or O) that may be acid/base labile, releasing an aldehyde.

>  <s_epik_cmdline>  (1) 
J2VwaWtfcHl0aG9uJywgJy1waHQnLCAnMS4wJywgJy1waCcsICc3LjQnLCAnLXRuJywgJzgnLCAnLW1hJywgJzUwMCcsICctaW1hZScsICc8aW5maWxlLm1hZT4nLCAnLW9tYWUnLCAnPG91dGZpbGUubWFlPic=

>  <s_epik_input>  (1) 
TzFbQ0BASF0oRilbQ0gyXVtDSDJdT0MoW0NAQEhdMTIpPU5bQ0gyXVtOSF1DKD1DMkYpQzMoW0NIMl1bQ0gyXTMpT1tDQEBIXShbQ0gyXVtDSDJdW0NAQEhdNFtDSDNdKUMoPVtDSF00KVtOSF1bQ0gyXVtDSDJdW0NIMl1OKFtDSDNdKVtDSDNd

>  <s_glide_docking_method>  (1) 
confgen

>  <s_i_glide_gridfile>  (1) 
gpcr_drd2_6luq_protein_autoprepared_prepared

>  <s_lp_Force_Field>  (1) 
S-OPLS

>  <s_lp_Variant>  (1) 
DiffSBDD_33_num_sample_50-3

>  <s_m_source_file>  (1) 
generated__ligand_DiffSBDD_2026-05-06_prepared.sdf

>  <GenAI_Model>  (1) 
DiffSBDD

>  <Protein>  (1) 
generic_title2

$$$$
DiffSBDD_44_num_sample_50
     RDKit          3D

  0  0  0  0  0  0  0  0  0  0999 V3000
M  V30 BEGIN CTAB
M  V30 COUNTS 61 64 0 0 1
M  V30 BEGIN ATOM
M  V30 1 C 9.656444 7.729126 -7.958574 0
M  V30 2 C 8.037388 4.048888 -16.526903 0 CFG=1
M  V30 3 C 9.872882 2.552422 -17.450699 0
M  V30 4 C 9.693501 7.169079 -10.404054 0 CFG=1
M  V30 5 C 9.681786 6.215190 -7.673571 0
M  V30 6 C 11.278791 5.172055 -18.191037 0
M  V30 7 C 10.326102 8.081509 -9.302942 0 CFG=2
M  V30 8 O 12.628945 8.569862 -10.172172 0
M  V30 9 N 9.967216 6.140286 -12.691662 0
M  V30 10 C 9.278691 5.341913 -8.883689 0 CFG=2
M  V30 11 C 7.287443 2.787435 -15.977514 0
M  V30 12 O 12.317571 2.866880 -17.489648 0
M  V30 13 C 10.232558 7.302937 -11.837410 0
M  V30 14 C 8.644304 4.609258 -14.079996 0 CFG=2
M  V30 15 O 7.713389 6.357755 -12.714274 0
M  V30 16 C 10.349508 5.020003 -17.240447 0
M  V30 17 C 11.102164 2.142733 -17.900238 0
M  V30 18 C 11.864203 8.001143 -9.131649 0
M  V30 19 C 11.869392 2.857016 -18.677749 0
M  V30 20 O 9.834736 5.803067 -10.086120 0
M  V30 21 C 11.540118 4.182609 -19.268081 0
M  V30 22 C 7.809274 4.956775 -9.028375 0
M  V30 23 F 9.834723 4.169330 -8.691603 0
M  V30 24 C 8.733161 5.780950 -13.087597 0
M  V30 25 C 7.976008 5.095539 -15.380298 0
M  V30 26 C 7.850652 3.408483 -13.531921 0
M  V30 27 C 9.473736 3.832439 -17.092281 0
M  V30 28 C 7.722474 2.284532 -14.586313 0
M  V30 29 C 7.221394 4.613461 -17.710417 0
M  V30 30 H 10.125720 8.265000 -7.130679 0
M  V30 31 H 8.634870 8.077355 -7.964763 0
M  V30 32 H 9.154207 1.767394 -17.313340 0
M  V30 33 H 8.635020 7.387060 -10.465640 0
M  V30 34 H 10.697032 5.942060 -7.383572 0
M  V30 35 H 9.053003 5.977314 -6.814292 0
M  V30 36 H 11.859549 6.084348 -18.225115 0
M  V30 37 H 10.069823 9.120379 -9.519877 0
M  V30 38 H 12.875043 9.456676 -9.937980 0
M  V30 39 H 10.763108 5.611051 -13.029064 0
M  V30 40 H 7.237347 1.968500 -16.692882 0
M  V30 41 H 6.250529 3.044311 -15.831725 0
M  V30 42 H 9.840714 8.209523 -12.298123 0
M  V30 43 H 11.316896 7.369906 -11.830544 0
M  V30 44 H 9.658771 4.291139 -14.306689 0
M  V30 45 H 10.211033 5.840220 -16.556607 0
M  V30 46 H 12.160864 6.969503 -9.044811 0
M  V30 47 H 12.175478 8.485895 -8.207873 0
M  V30 48 H 12.381998 4.517770 -19.870037 0
M  V30 49 H 10.673648 4.102033 -19.925157 0
M  V30 50 H 7.158806 5.769294 -9.301365 0
M  V30 51 H 7.687671 4.202253 -9.807868 0
M  V30 52 H 7.435577 4.529026 -8.100448 0
M  V30 53 H 6.925315 5.294181 -15.157049 0
M  V30 54 H 8.346842 6.071779 -15.683320 0
M  V30 55 H 8.322372 3.022269 -12.626956 0
M  V30 56 H 6.852730 3.739977 -13.236501 0
M  V30 57 H 8.634777 1.712970 -14.681499 0
M  V30 58 H 6.995252 1.554936 -14.225028 0
M  V30 59 H 6.232405 4.950397 -17.406393 0
M  V30 60 H 7.708070 5.478598 -18.161318 0
M  V30 61 H 7.095902 3.868681 -18.496638 0
M  V30 END ATOM
M  V30 BEGIN BOND
M  V30 1 1 5 1
M  V30 2 1 7 1
M  V30 3 1 7 4
M  V30 4 1 10 5
M  V30 5 1 11 2
M  V30 6 1 13 4
M  V30 7 1 13 9
M  V30 8 2 16 6
M  V30 9 1 17 3
M  V30 10 1 17 12
M  V30 11 1 18 7
M  V30 12 1 18 8
M  V30 13 1 19 12
M  V30 14 2 19 17
M  V30 15 1 20 4
M  V30 16 1 20 10
M  V30 17 1 21 6
M  V30 18 1 21 19
M  V30 19 1 22 10
M  V30 20 1 10 23 CFG=1
M  V30 21 1 24 9
M  V30 22 1 24 14
M  V30 23 2 24 15
M  V30 24 1 25 2
M  V30 25 1 25 14
M  V30 26 1 26 14
M  V30 27 1 27 2
M  V30 28 2 27 3
M  V30 29 1 27 16
M  V30 30 1 28 11
M  V30 31 1 28 26
M  V30 32 1 2 29 CFG=3
M  V30 33 1 30 1
M  V30 34 1 31 1
M  V30 35 1 32 3
M  V30 36 1 4 33 CFG=3
M  V30 37 1 34 5
M  V30 38 1 35 5
M  V30 39 1 36 6
M  V30 40 1 7 37 CFG=3
M  V30 41 1 38 8
M  V30 42 1 39 9
M  V30 43 1 40 11
M  V30 44 1 41 11
M  V30 45 1 42 13
M  V30 46 1 43 13
M  V30 47 1 14 44 CFG=3
M  V30 48 1 45 16
M  V30 49 1 46 18
M  V30 50 1 47 18
M  V30 51 1 48 21
M  V30 52 1 49 21
M  V30 53 1 50 22
M  V30 54 1 51 22
M  V30 55 1 52 22
M  V30 56 1 53 25
M  V30 57 1 54 25
M  V30 58 1 55 26
M  V30 59 1 56 26
M  V30 60 1 57 28
M  V30 61 1 58 28
M  V30 62 1 59 29
M  V30 63 1 60 29
M  V30 64 1 61 29
M  V30 END BOND
M  V30 END CTAB
M  END
>  <i_epik_Tot_Q>  (1) 
0

>  <i_epik_Tot_abs_Q>  (1) 
0

>  <i_i_glide_confnum>  (1) 
50

>  <i_i_glide_lignum>  (1) 
111

>  <i_i_glide_posenum>  (1) 
351

>  <i_i_glide_rotatable_bonds>  (1) 
7

>  <i_lp_mmshare_version>  (1) 
72125

>  <i_m_source_file_index>  (1) 
45

>  <i_f3d_flags>  (1) 
0

>  <num_sample>  (1) 
50

>  <b_lp_Chiralities_Consistent>  (1) 
1

>  <r_epik_Charging_Adjusted_Penalty>  (1) 
0

>  <r_epik_Ionization_Penalty>  (1) 
7.6933096193548639e-08

>  <r_epik_Ionization_Penalty_Charging>  (1) 
0

>  <r_epik_Ionization_Penalty_Neutral>  (1) 
7.6933096193548639e-08

>  <r_epik_State_Penalty>  (1) 
-0

>  <r_glide_ring_energy>  (1) 
0

>  <r_i_docking_score>  (1) 
-4.0750305350290059

>  <r_i_glide_ecoul>  (1) 
-3.6131982305952901

>  <r_i_glide_eff_state_penalty>  (1) 
-0

>  <r_i_glide_einternal>  (1) 
1.5513083759365927

>  <r_i_glide_emodel>  (1) 
-28.098677868934868

>  <r_i_glide_emodel_strain>  (1) 
1.3056080965242245

>  <r_i_glide_energy>  (1) 
-24.250919278092866

>  <r_i_glide_erotb>  (1) 
0.71709703680073922

>  <r_i_glide_esite>  (1) 
0

>  <r_i_glide_evdw>  (1) 
-20.637721047497575

>  <r_i_glide_gscore>  (1) 
-4.0750305350290059

>  <r_i_glide_gscore_strain>  (1) 
0

>  <r_i_glide_hbond>  (1) 
-0.44507001988054729

>  <r_i_glide_ligand_efficiency>  (1) 
-0.14051829431134502

>  <r_i_glide_ligand_efficiency_ln>  (1) 
-0.9330786586631632

>  <r_i_glide_ligand_efficiency_sa>  (1) 
-0.43171671992942129

>  <r_i_glide_lipo>  (1) 
-1.2821856881047831

>  <r_i_glide_metal>  (1) 
-0

>  <r_i_glide_rewards>  (1) 
-1.4910060768802429

>  <r_lp_Energy>  (1) 
41.791146999999995

>  <r_lp_tautomer_probability>  (1) 
1

>  <s_epik_cmdline>  (1) 
J2VwaWtfcHl0aG9uJywgJy1waHQnLCAnMS4wJywgJy1waCcsICc3LjQnLCAnLXRuJywgJzgnLCAnLW1hJywgJzUwMCcsICctaW1hZScsICc8aW5maWxlLm1hZT4nLCAnLW9tYWUnLCAnPG91dGZpbGUubWFlPic=

>  <s_epik_input>  (1) 
W0NIM11bQ0BdMShGKVtDSDJdW0NIMl1bQ0BIXShbQ0gyXVtPSF0pW0NASF0oTzEpW0NIMl1bTkhdQyg9TylbQ0BIXShbQ0gyXTIpW0NIMl1bQ0gyXVtDSDJdW0NAXTIoW0NIM10pQyg9W0NIXTMpW0NIXT1bQ0hdW0NIMl1DKE80KT1DMzQ=

>  <s_glide_docking_method>  (1) 
confgen

>  <s_i_glide_gridfile>  (1) 
gpcr_drd2_6luq_protein_autoprepared_prepared

>  <s_lp_Force_Field>  (1) 
S-OPLS

>  <s_lp_Variant>  (1) 
DiffSBDD_44_num_sample_50-2

>  <s_m_source_file>  (1) 
generated__ligand_DiffSBDD_2026-05-06_prepared.sdf

>  <GenAI_Model>  (1) 
DiffSBDD

>  <Protein>  (1) 
generic_title2

$$$$
DiffSBDD_10_num_sample_50
     RDKit          3D

  0  0  0  0  0  0  0  0  0  0999 V3000
M  V30 BEGIN CTAB
M  V30 COUNTS 71 72 0 0 1
M  V30 BEGIN ATOM
M  V30 1 C 10.734947 7.683863 -8.920850 0 CFG=2
M  V30 2 C 7.013865 6.949732 -19.393591 0
M  V30 3 C 7.331463 4.803760 -16.303213 0
M  V30 4 C 7.140546 4.435909 -12.502185 0 CFG=1
M  V30 5 C 9.465043 6.807054 -9.068084 0 CFG=2
M  V30 6 N 5.834898 4.853310 -19.145735 0
M  V30 7 N 7.179707 5.369307 -10.312045 0
M  V30 8 C 8.536875 5.130906 -10.718106 0 CFG=1
M  V30 9 S 11.168317 8.300822 -7.176649 0
M  V30 10 C 5.830765 7.758137 -19.914739 0
M  V30 11 S 11.434820 6.508365 -6.130511 0 CHG=-1
M  V30 12 C 12.635134 8.969323 -10.090538 0
M  V30 13 O 6.329080 11.048930 -22.691215 0
M  V30 14 O 12.476093 8.969340 -7.169004 0
M  V30 15 C 9.434732 8.313406 -9.315934 0 CFG=2
M  V30 16 C 9.579107 3.788777 -17.056546 0
M  V30 17 C 6.269756 5.090589 -11.410527 0 CFG=1
M  V30 18 N 5.115377 9.399163 -21.615146 0
M  V30 19 N 8.096627 4.973413 -18.607306 0
M  V30 20 C 6.228269 8.575078 -21.157830 0
M  V30 21 C 8.729139 6.411508 -12.908499 0
M  V30 22 C 11.892822 7.661662 -9.910679 0
M  V30 23 C 8.854819 6.086162 -7.865609 0
M  V30 24 C 6.520388 4.524283 -13.923154 0
M  V30 25 C 8.305049 4.558829 -17.410629 0
M  V30 26 O 9.158188 8.569259 -10.683374 0
M  V30 27 C 6.963448 5.645135 -19.062750 0
M  V30 28 O 10.019599 8.969224 -6.549739 0
M  V30 29 F 5.744218 6.246603 -11.816524 0
M  V30 30 N 10.630429 3.935785 -18.049734 0
M  V30 31 C 5.394960 10.010835 -22.909519 0
M  V30 32 C 8.536884 5.030583 -12.256522 0 CFG=2
M  V30 33 O 9.504558 6.072214 -10.315418 0
M  V30 34 C 7.486063 4.278389 -15.067774 0
M  V30 35 H 7.947843 7.479323 -19.293296 0
M  V30 36 H 6.485415 5.430383 -16.540142 0
M  V30 37 H 7.222905 3.374295 -12.262979 0
M  V30 38 H 4.960199 5.209716 -19.499434 0
M  V30 39 H 7.034814 6.326797 -9.955221 0
M  V30 40 H 8.839862 4.173661 -10.291687 0
M  V30 41 H 5.476620 8.421454 -19.124484 0
M  V30 42 H 4.993700 7.104971 -20.159172 0
M  V30 43 H 13.057324 9.050872 -11.091438 0
M  V30 44 H 12.005591 9.836333 -9.891993 0
M  V30 45 H 13.477672 8.969284 -9.401747 0
M  V30 46 H 7.076236 10.909593 -23.258342 0
M  V30 47 H 8.864678 8.952793 -8.645669 0
M  V30 48 H 9.985042 4.166532 -16.117392 0
M  V30 49 H 9.340525 2.732567 -16.928003 0
M  V30 50 H 5.446946 4.450766 -11.090826 0
M  V30 51 H 4.295651 8.816005 -21.703255 0
M  V30 52 H 6.536305 7.895016 -21.953622 0
M  V30 53 H 7.081720 9.215011 -20.931009 0
M  V30 54 H 7.987519 7.133741 -12.570682 0
M  V30 55 H 9.718530 6.814812 -12.691697 0
M  V30 56 H 8.634788 6.346510 -13.987973 0
M  V30 57 H 12.634834 6.969304 -9.561077 0
M  V30 58 H 11.543913 7.310729 -10.880992 0
M  V30 59 H 8.810791 6.736099 -6.994370 0
M  V30 60 H 7.834340 5.769288 -8.022785 0
M  V30 61 H 9.438296 5.198547 -7.626714 0
M  V30 62 H 6.068599 5.503640 -14.086421 0
M  V30 63 H 5.709058 3.800734 -13.992593 0
M  V30 64 H 8.286270 8.215230 -10.816609 0
M  V30 65 H 11.406735 3.329047 -17.830821 0
M  V30 66 H 10.272390 3.645457 -18.949273 0
M  V30 67 H 4.478559 10.441862 -23.313927 0
M  V30 68 H 5.770708 9.283006 -23.629601 0
M  V30 69 H 9.331902 4.356122 -12.576964 0
M  V30 70 H 8.331321 3.645949 -14.848940 0
M  V30 71 H 5.862740 3.867224 -18.931209 0
M  V30 END ATOM
M  V30 BEGIN BOND
M  V30 1 1 5 1
M  V30 2 1 8 7
M  V30 3 1 9 1
M  V30 4 1 10 2
M  V30 5 1 11 9
M  V30 6 2 14 9
M  V30 7 1 15 1
M  V30 8 1 15 5
M  V30 9 1 17 4
M  V30 10 1 17 7
M  V30 11 1 20 10
M  V30 12 1 20 18
M  V30 13 1 1 22 CFG=3
M  V30 14 1 22 12
M  V30 15 1 23 5
M  V30 16 1 24 4
M  V30 17 1 25 3
M  V30 18 1 25 16
M  V30 19 2 25 19
M  V30 20 1 26 15
M  V30 21 2 27 2
M  V30 22 1 27 6
M  V30 23 1 27 19
M  V30 24 2 28 9
M  V30 25 1 29 17
M  V30 26 1 30 16
M  V30 27 1 31 13
M  V30 28 1 31 18
M  V30 29 1 32 4
M  V30 30 1 32 8
M  V30 31 1 32 21
M  V30 32 1 5 33 CFG=3
M  V30 33 1 33 8
M  V30 34 2 34 3
M  V30 35 1 34 24
M  V30 36 1 35 2
M  V30 37 1 36 3
M  V30 38 1 4 37 CFG=1
M  V30 39 1 38 6
M  V30 40 1 39 7
M  V30 41 1 8 40 CFG=1
M  V30 42 1 41 10
M  V30 43 1 42 10
M  V30 44 1 43 12
M  V30 45 1 44 12
M  V30 46 1 45 12
M  V30 47 1 46 13
M  V30 48 1 15 47 CFG=1
M  V30 49 1 48 16
M  V30 50 1 49 16
M  V30 51 1 17 50 CFG=1
M  V30 52 1 51 18
M  V30 53 1 52 20
M  V30 54 1 53 20
M  V30 55 1 54 21
M  V30 56 1 55 21
M  V30 57 1 56 21
M  V30 58 1 57 22
M  V30 59 1 58 22
M  V30 60 1 59 23
M  V30 61 1 60 23
M  V30 62 1 61 23
M  V30 63 1 62 24
M  V30 64 1 63 24
M  V30 65 1 64 26
M  V30 66 1 65 30
M  V30 67 1 66 30
M  V30 68 1 67 31
M  V30 69 1 68 31
M  V30 70 1 32 69 CFG=1
M  V30 71 1 70 34
M  V30 72 1 71 6
M  V30 END BOND
M  V30 END CTAB
M  END
>  <i_epik_Tot_Q>  (1) 
-1

>  <i_epik_Tot_abs_Q>  (1) 
1

>  <i_i_glide_confnum>  (1) 
1810

>  <i_i_glide_lignum>  (1) 
38

>  <i_i_glide_posenum>  (1) 
272

>  <i_i_glide_rotatable_bonds>  (1) 
15

>  <i_lp_mmshare_version>  (1) 
72125

>  <i_m_source_file_index>  (1) 
11

>  <i_f3d_flags>  (1) 
0

>  <num_sample>  (1) 
50

>  <b_lp_Chiralities_Consistent>  (1) 
1

>  <r_epik_Charging_Adjusted_Penalty>  (1) 
1.239197207418439

>  <r_epik_Ionization_Penalty>  (1) 
1.2496715491914541

>  <r_epik_Ionization_Penalty_Charging>  (1) 
1.1069707349969355e-11

>  <r_epik_Ionization_Penalty_Neutral>  (1) 
1.2496715491803843

>  <r_epik_State_Penalty>  (1) 
1.2391972074073692

>  <r_glide_ring_energy>  (1) 
0

>  <r_i_docking_score>  (1) 
-4.0731101580642086

>  <r_i_glide_ecoul>  (1) 
-12.158510124195621

>  <r_i_glide_eff_state_penalty>  (1) 
1.2391972074073692

>  <r_i_glide_einternal>  (1) 
14.344556658043677

>  <r_i_glide_emodel>  (1) 
-44.7138846506829

>  <r_i_glide_emodel_strain>  (1) 
4.5046215876993756

>  <r_i_glide_energy>  (1) 
-45.25237833615067

>  <r_i_glide_erotb>  (1) 
0.82803537691766171

>  <r_i_glide_esite>  (1) 
-0.089787259268700098

>  <r_i_glide_evdw>  (1) 
-33.093868211955048

>  <r_i_glide_gscore>  (1) 
-5.312307365471578

>  <r_i_glide_gscore_strain>  (1) 
0.1261553969248439

>  <r_i_glide_hbond>  (1) 
-0.45506131651407727

>  <r_i_glide_ligand_efficiency>  (1) 
-0.11979735759012378

>  <r_i_glide_ligand_efficiency_ln>  (1) 
-0.89986428078651803

>  <r_i_glide_ligand_efficiency_sa>  (1) 
-0.38809693341082374

>  <r_i_glide_lipo>  (1) 
-1.3680030659107165

>  <r_i_glide_metal>  (1) 
-0

>  <r_i_glide_rewards>  (1) 
-0.87517656839349467

>  <r_lp_Energy>  (1) 
21.684180999999999

>  <s_epik_Chemistry_Notes>  (1) 
This compound has an imine and may undergo hydrolysis. This compound contains an acetal/aminal-like group ( X-CH(R)-Y where X, Y are N, S, or O) that may be acid/base labile, releasing an aldehyde.

>  <s_epik_cmdline>  (1) 
J2VwaWtfcHl0aG9uJywgJy1waHQnLCAnMS4wJywgJy1waCcsICc3LjQnLCAnLXRuJywgJzgnLCAnLW1hJywgJzUwMCcsICctaW1hZScsICc8aW5maWxlLm1hZT4nLCAnLW9tYWUnLCAnPG91dGZpbGUubWFlPic=

>  <s_epik_input>  (1) 
W1NIXVMoPU8pKD1PKVtDQEBdMShbQ0gyXVtDSDNdKVtDQEBdKFtDSDNdKShbQ0BASF0xW09IXSlPW0NASF0oW0NAQEhdMltDSDNdKVtOSF1bQ0BASF0oRilbQ0BIXTJbQ0gyXVxbQ0hdPVtDSF1cQyhbQ0gyXVtOSDJdKT1OL0MoPU4vW0hdKS9bQ0gyXVtDSDJdW0NIMl1bTkhdW0NIMl1bT0hd

>  <s_glide_docking_method>  (1) 
confgen

>  <s_i_glide_gridfile>  (1) 
gpcr_drd2_6luq_protein_autoprepared_prepared

>  <s_lp_Force_Field>  (1) 
S-OPLS

>  <s_lp_Variant>  (1) 
DiffSBDD_10_num_sample_50-18

>  <s_m_source_file>  (1) 
generated__ligand_DiffSBDD_2026-05-06_prepared.sdf

>  <GenAI_Model>  (1) 
DiffSBDD

>  <Protein>  (1) 
generic_title2

$$$$
DiffSBDD_26_num_sample_50
     RDKit          3D

  0  0  0  0  0  0  0  0  0  0999 V3000
M  V30 BEGIN CTAB
M  V30 COUNTS 88 94 0 0 1
M  V30 BEGIN ATOM
M  V30 1 C 8.309899 4.830782 -12.699076 0 CFG=2
M  V30 2 S 7.696128 3.672588 -20.250720 0 CHG=1
M  V30 3 C 10.908805 8.983058 -6.497451 0
M  V30 4 C 8.455197 5.244758 -18.043050 0
M  V30 5 C 6.723959 6.257344 -13.882115 0
M  V30 6 F 5.434854 3.878108 -19.091654 0
M  V30 7 C 8.565371 4.695737 -10.144879 0
M  V30 8 C 7.773774 3.731016 -13.521968 0
M  V30 9 F 10.158459 0.622919 -17.822525 0
M  V30 10 C 9.351141 6.101776 -8.242071 0
M  V30 11 C 7.569347 5.042533 -16.779719 0
M  V30 12 C 7.622773 4.918049 -11.328117 0
M  V30 13 C 5.958621 0.445984 -20.348017 0
M  V30 14 O 9.034884 5.957316 -9.636827 0
M  V30 15 C 12.782715 8.381920 -7.891801 0
M  V30 16 C 8.853955 7.238566 -12.587444 0
M  V30 17 C 7.612252 5.048865 -14.144420 0 CFG=2
M  V30 18 C 8.608300 2.446474 -21.246323 0
M  V30 19 C 9.524479 7.616715 -7.924489 0 CFG=2
M  V30 20 C 7.126632 0.459086 -21.295052 0 CFG=2
M  V30 21 C 9.301038 2.781076 -18.002045 0 CFG=1
M  V30 22 C 8.414232 -0.322869 -21.325690 0
M  V30 23 C 8.218414 2.367521 -13.920691 0
M  V30 24 C 9.468162 5.819485 -12.735951 0
M  V30 25 C 10.634868 5.369311 -7.934829 0
M  V30 26 C 9.684581 1.476746 -18.727543 0 CFG=2
M  V30 27 C 8.381818 5.198525 -15.473493 0
M  V30 28 O 10.635092 8.102755 -8.670722 0
M  V30 29 C 8.382660 1.059292 -20.709302 0 CFG=1
M  V30 30 C 6.253244 2.884125 -19.418494 0 CFG=1
M  V30 31 O 8.511790 0.922602 -19.300630 0
M  V30 32 C 6.816447 2.605797 -13.302111 0
M  V30 33 C 9.813879 7.946681 -6.462007 0
M  V30 34 C 5.389563 1.875252 -20.222256 0
M  V30 35 C 7.580153 7.495383 -13.461422 0
M  V30 36 N 11.457857 8.969307 -7.846464 0
M  V30 37 C 8.234846 5.471809 -7.439912 0
M  V30 38 F 10.376324 3.182795 -17.323942 0
M  V30 39 C 8.872346 3.997104 -18.873034 0 CFG=1
M  V30 40 H 11.669888 8.806132 -5.736015 0
M  V30 41 H 10.503455 9.971730 -6.291707 0
M  V30 42 H 7.957005 5.952901 -18.706281 0
M  V30 43 H 9.365441 5.767299 -17.744343 0
M  V30 44 H 5.990711 6.010553 -13.114976 0
M  V30 45 H 6.132199 6.495736 -14.765182 0
M  V30 46 H 9.393739 4.028393 -10.386607 0
M  V30 47 H 7.921786 4.169314 -9.456930 0
M  V30 48 H 7.038636 4.092253 -16.797105 0
M  V30 49 H 6.790965 5.803881 -16.796191 0
M  V30 50 H 6.828859 4.176512 -11.266078 0
M  V30 51 H 7.088749 5.856148 -11.187462 0
M  V30 52 H 5.194333 -0.221060 -20.745058 0
M  V30 53 H 6.238005 0.039524 -19.375455 0
M  V30 54 H 13.483324 8.979490 -7.311689 0
M  V30 55 H 13.140937 8.351856 -8.920893 0
M  V30 56 H 12.776300 7.369435 -7.491743 0
M  V30 57 H 8.558326 7.390699 -11.550306 0
M  V30 58 H 9.612131 8.012628 -12.691668 0
M  V30 59 H 8.253166 2.505583 -22.275393 0
M  V30 60 H 9.669246 2.691208 -21.280591 0
M  V30 61 H 8.653756 8.190958 -8.231822 0
M  V30 62 H 6.819730 0.776935 -22.291094 0
M  V30 63 H 8.546274 2.539488 -17.258088 0
M  V30 64 H 8.921437 -0.431763 -22.281897 0
M  V30 65 H 8.488298 -1.182380 -20.662377 0
M  V30 66 H 8.236414 2.107916 -14.976157 0
M  V30 67 H 8.945701 1.860872 -13.287131 0
M  V30 68 H 10.180078 5.623672 -11.936902 0
M  V30 69 H 10.058124 5.722595 -13.644521 0
M  V30 70 H 10.888680 5.369296 -6.878494 0
M  V30 71 H 10.616626 4.343729 -8.291684 0
M  V30 72 H 11.434838 5.887384 -8.439853 0
M  V30 73 H 10.493397 1.616663 -19.444855 0
M  V30 74 H 8.865316 6.169293 -15.491627 0
M  V30 75 H 9.200574 4.479760 -15.483414 0
M  V30 76 H 6.556674 2.418516 -18.481374 0
M  V30 77 H 6.658853 2.222389 -12.296484 0
M  V30 78 H 5.954175 2.540776 -13.958167 0
M  V30 79 H 8.918586 8.321596 -5.965717 0
M  V30 80 H 10.155286 7.092202 -5.882233 0
M  V30 81 H 5.142255 2.283379 -21.202662 0
M  V30 82 H 4.435986 1.769240 -19.704591 0
M  V30 83 H 6.959054 8.169313 -12.880984 0
M  V30 84 H 7.834836 8.042222 -14.364979 0
M  V30 85 H 8.184064 5.781300 -6.396097 0
M  V30 86 H 7.336292 5.747813 -7.952650 0
M  V30 87 H 8.295077 4.388672 -7.491669 0
M  V30 88 H 9.769834 4.306244 -19.411666 0
M  V30 END ATOM
M  V30 BEGIN BOND
M  V30 1 1 8 1
M  V30 2 1 11 4
M  V30 3 1 1 12 CFG=1
M  V30 4 1 12 7
M  V30 5 1 14 7
M  V30 6 1 14 10
M  V30 7 1 17 1
M  V30 8 1 17 5
M  V30 9 1 17 8
M  V30 10 1 2 18 CFG=3
M  V30 11 1 19 10
M  V30 12 1 20 13
M  V30 13 1 22 20
M  V30 14 1 23 8
M  V30 15 1 24 1
M  V30 16 1 24 16
M  V30 17 1 25 10
M  V30 18 1 26 9
M  V30 19 1 26 21
M  V30 20 1 27 11
M  V30 21 1 17 27 CFG=3
M  V30 22 1 28 19
M  V30 23 1 29 18
M  V30 24 1 29 20
M  V30 25 1 29 22
M  V30 26 1 30 2
M  V30 27 1 30 6
M  V30 28 1 31 26
M  V30 29 1 29 31 CFG=1
M  V30 30 1 32 8
M  V30 31 1 32 23
M  V30 32 1 33 3
M  V30 33 1 33 19
M  V30 34 1 34 13
M  V30 35 1 34 30
M  V30 36 1 35 5
M  V30 37 1 35 16
M  V30 38 1 36 3
M  V30 39 1 36 15
M  V30 40 1 36 28
M  V30 41 1 37 10
M  V30 42 1 38 21
M  V30 43 1 39 2
M  V30 44 1 39 4
M  V30 45 1 39 21
M  V30 46 1 40 3
M  V30 47 1 41 3
M  V30 48 1 42 4
M  V30 49 1 43 4
M  V30 50 1 44 5
M  V30 51 1 45 5
M  V30 52 1 46 7
M  V30 53 1 47 7
M  V30 54 1 48 11
M  V30 55 1 49 11
M  V30 56 1 50 12
M  V30 57 1 51 12
M  V30 58 1 52 13
M  V30 59 1 53 13
M  V30 60 1 54 15
M  V30 61 1 55 15
M  V30 62 1 56 15
M  V30 63 1 57 16
M  V30 64 1 58 16
M  V30 65 1 59 18
M  V30 66 1 60 18
M  V30 67 1 19 61 CFG=3
M  V30 68 1 20 62 CFG=3
M  V30 69 1 21 63 CFG=1
M  V30 70 1 64 22
M  V30 71 1 65 22
M  V30 72 1 66 23
M  V30 73 1 67 23
M  V30 74 1 68 24
M  V30 75 1 69 24
M  V30 76 1 70 25
M  V30 77 1 71 25
M  V30 78 1 72 25
M  V30 79 1 26 73 CFG=3
M  V30 80 1 74 27
M  V30 81 1 75 27
M  V30 82 1 30 76 CFG=1
M  V30 83 1 77 32
M  V30 84 1 78 32
M  V30 85 1 79 33
M  V30 86 1 80 33
M  V30 87 1 81 34
M  V30 88 1 82 34
M  V30 89 1 83 35
M  V30 90 1 84 35
M  V30 91 1 85 37
M  V30 92 1 86 37
M  V30 93 1 87 37
M  V30 94 1 39 88 CFG=3
M  V30 END BOND
M  V30 END CTAB
M  END
>  <i_epik_Tot_Q>  (1) 
1

>  <i_epik_Tot_abs_Q>  (1) 
1

>  <i_i_glide_confnum>  (1) 
934

>  <i_i_glide_lignum>  (1) 
68

>  <i_i_glide_posenum>  (1) 
58

>  <i_i_glide_rotatable_bonds>  (1) 
9

>  <i_lp_mmshare_version>  (1) 
72125

>  <i_m_source_file_index>  (1) 
27

>  <i_f3d_flags>  (1) 
0

>  <num_sample>  (1) 
50

>  <b_lp_Chiralities_Consistent>  (1) 
1

>  <r_epik_Charging_Adjusted_Penalty>  (1) 
0.0064700825840893978

>  <r_epik_Ionization_Penalty>  (1) 
0.0064700825864937349

>  <r_epik_Ionization_Penalty_Charging>  (1) 
0

>  <r_epik_Ionization_Penalty_Neutral>  (1) 
0.0064700825864937349

>  <r_epik_State_Penalty>  (1) 
0.0064700825840893978

>  <r_glide_ring_energy>  (1) 
0.038362801895993927

>  <r_i_docking_score>  (1) 
-4.07002607651894

>  <r_i_glide_ecoul>  (1) 
-0.87089459751720932

>  <r_i_glide_eff_state_penalty>  (1) 
0.0064700825840893978

>  <r_i_glide_einternal>  (1) 
16.403690625042874

>  <r_i_glide_emodel>  (1) 
-15.035995636784079

>  <r_i_glide_emodel_strain>  (1) 
5.0490701995697975

>  <r_i_glide_energy>  (1) 
-24.65295475186084

>  <r_i_glide_erotb>  (1) 
0.41602518103618852

>  <r_i_glide_esite>  (1) 
-0.010152894635021401

>  <r_i_glide_evdw>  (1) 
-23.782060154343629

>  <r_i_glide_gscore>  (1) 
-4.0764961591030291

>  <r_i_glide_gscore_strain>  (1) 
0.26226754989244938

>  <r_i_glide_hbond>  (1) 
0

>  <r_i_glide_ligand_efficiency>  (1) 
-0.10435964298766513

>  <r_i_glide_ligand_efficiency_ln>  (1) 
-0.87272912536638392

>  <r_i_glide_ligand_efficiency_sa>  (1) 
-0.35390561548864319

>  <r_i_glide_lipo>  (1) 
-1.9882042535170454

>  <r_i_glide_metal>  (1) 
-0

>  <r_i_glide_rewards>  (1) 
-1.4366945445348371

>  <r_lp_Energy>  (1) 
87.03259899999999

>  <s_epik_Chemistry_Notes>  (1) 
This compound has a N-S or N-O group and may undergo hydrolysis at high or low pH.

>  <s_epik_cmdline>  (1) 
J2VwaWtfcHl0aG9uJywgJy1waHQnLCAnMS4wJywgJy1waCcsICc3LjQnLCAnLXRuJywgJzgnLCAnLW1hJywgJzUwMCcsICctaW1hZScsICc8aW5maWxlLm1hZT4nLCAnLW9tYWUnLCAnPG91dGZpbGUubWFlPic=

>  <s_epik_input>  (1) 
W0NIMl0xW0NIMl1OKFtDSDNdKU9bQ0BIXTFDKFtDSDNdKShbQ0gzXSlPW0NIMl1bQ0gyXVtDQEBdMihDMzRbQ0gyXVtDSDJdNClDMyhbQ0gyXVtDSDJdW0NIMl1bQ0gyXTIpW0NIMl1bQ0gyXVtDSDJdW0NAQEhdKFtDQEhdKEYpW0NAQEhdKEYpTzUpW1MrXShbQ0gyXTYpW0NAQEhdKEYpW0NIMl1bQ0gyXVtDQEBIXShDNTY3KVtDSDJdNw==

>  <s_glide_docking_method>  (1) 
confgen

>  <s_i_glide_gridfile>  (1) 
gpcr_drd2_6luq_protein_autoprepared_prepared

>  <s_lp_Force_Field>  (1) 
S-OPLS

>  <s_lp_Variant>  (1) 
DiffSBDD_26_num_sample_50-1

>  <s_m_source_file>  (1) 
generated__ligand_DiffSBDD_2026-05-06_prepared.sdf

>  <GenAI_Model>  (1) 
DiffSBDD

>  <Protein>  (1) 
generic_title2

$$$$
DiffSBDD_2_num_sample_50
     RDKit          3D

  0  0  0  0  0  0  0  0  0  0999 V3000
M  V30 BEGIN CTAB
M  V30 COUNTS 54 57 0 0 1
M  V30 BEGIN ATOM
M  V30 1 C 9.480211 7.881688 -10.372460 0 CFG=1
M  V30 2 C 7.820890 5.205661 -9.971604 0
M  V30 3 O 9.368669 4.992860 -8.291700 0 CHG=-1
M  V30 4 C 8.340369 4.332099 -15.633795 0
M  V30 5 O 6.642898 0.501468 -16.981840 0
M  V30 6 C 7.445604 1.270268 -17.646662 0
M  V30 7 C 10.623450 7.590782 -6.179028 0
M  V30 8 C 6.506946 0.170586 -15.715065 0
M  V30 9 C 10.422716 8.732013 -7.184425 0
M  V30 10 O 6.287279 0.529764 -13.484001 0 CHG=-1
M  V30 11 C 7.932954 2.408192 -17.214867 0
M  V30 12 C 9.210428 4.386308 -17.886510 0
M  V30 13 C 6.634851 0.982730 -14.601476 0
M  V30 14 C 7.826775 6.704614 -11.932011 0
M  V30 15 N 9.434839 6.954279 -9.247135 0 CFG=1 CHG=1
M  V30 16 C 9.254753 5.504193 -9.488401 0 CFG=2
M  V30 17 C 11.240668 8.569107 -8.485985 0
M  V30 18 C 9.019573 4.969259 -16.597760 0
M  V30 19 C 6.387809 4.761691 -11.854974 0
M  V30 20 N 7.683465 5.330834 -11.427091 0
M  V30 21 C 7.136627 2.340635 -14.694231 0
M  V30 22 C 6.450737 4.237161 -13.284464 0
M  V30 23 N 7.081056 3.045418 -13.453199 0
M  V30 24 C 8.709172 3.186254 -18.180255 0
M  V30 25 C 7.729931 2.980068 -15.836593 0
M  V30 26 C 10.714125 7.598904 -9.543830 0 CFG=2
M  V30 27 O 5.930436 4.876195 -14.202174 0
M  V30 28 C 9.244951 7.275384 -11.749500 0
M  V30 29 H 8.924905 8.787440 -10.142125 0
M  V30 30 H 7.063986 5.769296 -9.433888 0
M  V30 31 H 7.609798 4.169347 -9.719918 0
M  V30 32 H 8.277680 4.817997 -14.686911 0
M  V30 33 H 7.603517 0.900409 -18.649339 0
M  V30 34 H 10.065097 7.775650 -5.262930 0
M  V30 35 H 11.673082 7.486461 -5.907996 0
M  V30 36 H 10.291509 6.632397 -6.568910 0
M  V30 37 H 6.128431 -0.838274 -15.633925 0
M  V30 38 H 9.363050 8.880496 -7.396948 0
M  V30 39 H 10.751317 9.647032 -6.690887 0
M  V30 40 H 9.773226 4.924676 -18.634826 0
M  V30 41 H 7.625685 6.706733 -13.003546 0
M  V30 42 H 7.079346 7.364063 -11.491673 0
M  V30 43 H 9.902039 5.157138 -10.283865 0
M  V30 44 H 11.348419 9.539465 -8.970991 0
M  V30 45 H 12.257052 8.267753 -8.228892 0
M  V30 46 H 9.450428 5.935772 -16.387085 0
M  V30 47 H 5.586695 5.494960 -11.745202 0
M  V30 48 H 6.103364 3.912790 -11.230814 0
M  V30 49 H 7.341784 2.525505 -12.627099 0
M  V30 50 H 8.875653 2.781527 -19.168409 0
M  V30 51 H 11.458771 6.969300 -10.013457 0
M  V30 52 H 9.378168 8.085101 -12.466618 0
M  V30 53 H 10.010919 6.543288 -12.006053 0
M  V30 54 H 8.856809 7.338251 -8.512331 0
M  V30 END ATOM
M  V30 BEGIN BOND
M  V30 1 1 6 5
M  V30 2 1 8 5
M  V30 3 1 9 7
M  V30 4 2 11 6
M  V30 5 2 13 8
M  V30 6 1 13 10
M  V30 7 1 15 1
M  V30 8 1 16 2
M  V30 9 1 16 3
M  V30 10 1 16 15
M  V30 11 1 17 9
M  V30 12 2 18 4
M  V30 13 1 18 12
M  V30 14 1 20 2
M  V30 15 1 20 14
M  V30 16 1 20 19
M  V30 17 1 21 13
M  V30 18 1 22 19
M  V30 19 1 23 21
M  V30 20 1 23 22
M  V30 21 1 24 11
M  V30 22 2 24 12
M  V30 23 1 25 4
M  V30 24 1 25 11
M  V30 25 2 25 21
M  V30 26 1 26 1
M  V30 27 1 26 15
M  V30 28 1 26 17
M  V30 29 2 27 22
M  V30 30 1 28 1
M  V30 31 1 28 14
M  V30 32 1 1 29 CFG=1
M  V30 33 1 30 2
M  V30 34 1 31 2
M  V30 35 1 32 4
M  V30 36 1 33 6
M  V30 37 1 34 7
M  V30 38 1 35 7
M  V30 39 1 36 7
M  V30 40 1 37 8
M  V30 41 1 38 9
M  V30 42 1 39 9
M  V30 43 1 40 12
M  V30 44 1 41 14
M  V30 45 1 42 14
M  V30 46 1 16 43 CFG=3
M  V30 47 1 44 17
M  V30 48 1 45 17
M  V30 49 1 46 18
M  V30 50 1 47 19
M  V30 51 1 48 19
M  V30 52 1 49 23
M  V30 53 1 50 24
M  V30 54 1 26 51 CFG=3
M  V30 55 1 52 28
M  V30 56 1 53 28
M  V30 57 1 15 54 CFG=1
M  V30 END BOND
M  V30 END CTAB
M  END
>  <i_epik_Tot_Q>  (1) 
-1

>  <i_epik_Tot_abs_Q>  (1) 
3

>  <i_i_glide_confnum>  (1) 
6

>  <i_i_glide_lignum>  (1) 
6

>  <i_i_glide_posenum>  (1) 
278

>  <i_i_glide_rotatable_bonds>  (1) 
6

>  <i_lp_mmshare_version>  (1) 
72125

>  <i_m_source_file_index>  (1) 
3

>  <i_f3d_flags>  (1) 
0

>  <num_sample>  (1) 
50

>  <b_lp_Chiralities_Consistent>  (1) 
1

>  <r_epik_Charging_Adjusted_Penalty>  (1) 
0.20824401478555332

>  <r_epik_Ionization_Penalty>  (1) 
0.10900575238268746

>  <r_epik_Ionization_Penalty_Charging>  (1) 
0.10898275236366674

>  <r_epik_Ionization_Penalty_Neutral>  (1) 
2.3000019020727684e-05

>  <r_epik_State_Penalty>  (1) 
0.099261262421886584

>  <r_glide_ring_energy>  (1) 
0

>  <r_i_docking_score>  (1) 
-4.0696620121660256

>  <r_i_glide_ecoul>  (1) 
-1.3344030687164175

>  <r_i_glide_eff_state_penalty>  (1) 
0.099261262421886584

>  <r_i_glide_einternal>  (1) 
3.9355811716296714

>  <r_i_glide_emodel>  (1) 
-37.375976072042292

>  <r_i_glide_emodel_strain>  (1) 
0.3159939549993851

>  <r_i_glide_energy>  (1) 
-32.9571242089023

>  <r_i_glide_erotb>  (1) 
0.52616126561579779

>  <r_i_glide_esite>  (1) 
-0.13520108967558234

>  <r_i_glide_evdw>  (1) 
-31.622721140185885

>  <r_i_glide_gscore>  (1) 
-4.1689232745879119

>  <r_i_glide_gscore_strain>  (1) 
0

>  <r_i_glide_hbond>  (1) 
-0.023107076392106091

>  <r_i_glide_ligand_efficiency>  (1) 
-0.14534507186307236

>  <r_i_glide_ligand_efficiency_ln>  (1) 
-0.93939748287678115

>  <r_i_glide_ligand_efficiency_sa>  (1) 
-0.44135324233588119

>  <r_i_glide_lipo>  (1) 
-1.4724096856062596

>  <r_i_glide_metal>  (1) 
-0

>  <r_i_glide_rewards>  (1) 
-1.2830701712130053

>  <r_lp_Energy>  (1) 
78.401380000000003

>  <s_epik_Chemistry_Notes>  (1) 
This compound contains an acetal/aminal-like group ( X-CH(R)-Y where X, Y are N, S, or O) that may be acid/base labile, releasing an aldehyde.

>  <s_epik_cmdline>  (1) 
J2VwaWtfcHl0aG9uJywgJy1waHQnLCAnMS4wJywgJy1waCcsICc3LjQnLCAnLXRuJywgJzgnLCAnLW1hJywgJzUwMCcsICctaW1hZScsICc8aW5maWxlLm1hZT4nLCAnLW9tYWUnLCAnPG91dGZpbGUubWFlPic=

>  <s_epik_input>  (1) 
W0NIM11bQ0gyXVtDSDJdW0NIXTFOKFtDQEBIXTEyKVtDQEBIXShbT0hdKVtDSDJdTihbQ0gyXVtDSDJdMilbQ0gyXUMoPU8pW05IXUMoQyhbT0hdKT1bQ0hdT1tDSF09Myk9YyhjMzQpW2NIXVtjSF1bY0hdW2NIXTQ=

>  <s_glide_docking_method>  (1) 
confgen

>  <s_i_glide_gridfile>  (1) 
gpcr_drd2_6luq_protein_autoprepared_prepared

>  <s_lp_Force_Field>  (1) 
S-OPLS

>  <s_lp_Variant>  (1) 
DiffSBDD_2_num_sample_50-1

>  <s_m_source_file>  (1) 
generated__ligand_DiffSBDD_2026-05-06_prepared.sdf

>  <GenAI_Model>  (1) 
DiffSBDD

>  <Protein>  (1) 
generic_title2

$$$$
DiffSBDD_2_num_sample_50
     RDKit          3D

  0  0  0  0  0  0  0  0  0  0999 V3000
M  V30 BEGIN CTAB
M  V30 COUNTS 55 58 0 0 1
M  V30 BEGIN ATOM
M  V30 1 C 9.430699 5.664278 -8.737090 0 CFG=1
M  V30 2 C 9.809825 6.625547 -11.415901 0
M  V30 3 O 11.498096 7.369586 -9.955781 0 CHG=-1
M  V30 4 C 7.601998 4.659865 -16.691444 0
M  V30 5 O 8.234839 0.449993 -15.526788 0
M  V30 6 C 8.005121 0.884838 -16.761607 0
M  V30 7 C 10.918210 9.136575 -5.968997 0
M  V30 8 C 7.447783 0.636617 -14.482638 0
M  V30 9 C 10.982815 7.634874 -5.668397 0
M  V30 10 O 6.355514 1.858322 -12.903408 0
M  V30 11 C 7.782303 2.164758 -17.089294 0
M  V30 12 C 7.714589 3.760342 -18.941636 0
M  V30 13 C 7.059064 1.829809 -14.043527 0
M  V30 14 C 8.020093 5.062563 -10.757498 0
M  V30 15 N 9.434846 7.103398 -8.968484 0 CFG=2 CHG=1
M  V30 16 C 10.216006 7.494117 -10.178127 0 CFG=2
M  V30 17 C 11.080120 6.790445 -6.950018 0
M  V30 18 C 7.653715 4.860193 -18.018100 0
M  V30 19 C 7.785542 6.410907 -12.816492 0
M  V30 20 N 8.364507 6.322547 -11.456390 0
M  V30 21 C 7.348457 3.126741 -14.715523 0
M  V30 22 C 8.121143 5.262586 -13.777515 0
M  V30 23 N 7.196323 4.275430 -13.880191 0
M  V30 24 C 7.772691 2.494712 -18.510543 0
M  V30 25 C 7.616308 3.291039 -16.100063 0
M  V30 26 C 9.711395 6.612043 -7.606454 0 CFG=2
M  V30 27 O 9.187019 5.261844 -14.391611 0
M  V30 28 C 8.093333 5.147405 -9.213329 0
M  V30 29 H 10.294622 5.130233 -9.098172 0
M  V30 30 H 10.365434 5.694426 -11.493886 0
M  V30 31 H 10.102245 7.193826 -12.300267 0
M  V30 32 H 7.513145 5.522878 -16.070507 0
M  V30 33 H 8.146401 0.100311 -17.490253 0
M  V30 34 H 10.751476 9.715690 -5.061451 0
M  V30 35 H 10.109610 9.360146 -6.664490 0
M  V30 36 H 11.851319 9.481855 -6.415144 0
M  V30 37 H 7.226327 -0.291548 -13.974844 0
M  V30 38 H 11.834394 7.431096 -5.019590 0
M  V30 39 H 10.107809 7.330847 -5.092143 0
M  V30 40 H 6.246663 2.757262 -12.648739 0
M  V30 41 H 7.719414 3.959265 -20.003254 0
M  V30 42 H 6.991286 4.789861 -10.999268 0
M  V30 43 H 8.643756 4.242269 -11.116760 0
M  V30 44 H 9.796935 8.478213 -10.392402 0
M  V30 45 H 11.832241 7.219289 -7.603997 0
M  V30 46 H 11.442223 5.796039 -6.686938 0
M  V30 47 H 7.623787 5.869932 -18.401102 0
M  V30 48 H 8.081242 7.354542 -13.278196 0
M  V30 49 H 6.701408 6.477579 -12.720082 0
M  V30 50 H 6.413463 4.285148 -13.248193 0
M  V30 51 H 7.829163 1.697969 -19.237076 0
M  V30 52 H 8.856964 6.843134 -6.971084 0
M  V30 53 H 7.910828 4.169361 -8.771547 0
M  V30 54 H 7.291321 5.769221 -8.830034 0
M  V30 55 H 8.453267 7.371387 -9.093986 0
M  V30 END ATOM
M  V30 BEGIN BOND
M  V30 1 1 6 5
M  V30 2 1 8 5
M  V30 3 1 9 7
M  V30 4 2 11 6
M  V30 5 2 13 8
M  V30 6 1 13 10
M  V30 7 1 15 1
M  V30 8 1 16 2
M  V30 9 1 16 3
M  V30 10 1 16 15
M  V30 11 1 17 9
M  V30 12 2 18 4
M  V30 13 1 18 12
M  V30 14 1 20 2
M  V30 15 1 20 14
M  V30 16 1 20 19
M  V30 17 1 21 13
M  V30 18 1 22 19
M  V30 19 1 23 21
M  V30 20 1 23 22
M  V30 21 1 24 11
M  V30 22 2 24 12
M  V30 23 1 25 4
M  V30 24 1 25 11
M  V30 25 2 25 21
M  V30 26 1 26 1
M  V30 27 1 26 15
M  V30 28 1 26 17
M  V30 29 2 27 22
M  V30 30 1 28 1
M  V30 31 1 28 14
M  V30 32 1 1 29 CFG=3
M  V30 33 1 30 2
M  V30 34 1 31 2
M  V30 35 1 32 4
M  V30 36 1 33 6
M  V30 37 1 34 7
M  V30 38 1 35 7
M  V30 39 1 36 7
M  V30 40 1 37 8
M  V30 41 1 38 9
M  V30 42 1 39 9
M  V30 43 1 40 10
M  V30 44 1 41 12
M  V30 45 1 42 14
M  V30 46 1 43 14
M  V30 47 1 16 44 CFG=3
M  V30 48 1 45 17
M  V30 49 1 46 17
M  V30 50 1 47 18
M  V30 51 1 48 19
M  V30 52 1 49 19
M  V30 53 1 50 23
M  V30 54 1 51 24
M  V30 55 1 26 52 CFG=1
M  V30 56 1 53 28
M  V30 57 1 54 28
M  V30 58 1 15 55 CFG=1
M  V30 END BOND
M  V30 END CTAB
M  END
>  <i_epik_Tot_Q>  (1) 
0

>  <i_epik_Tot_abs_Q>  (1) 
2

>  <i_i_glide_confnum>  (1) 
21

>  <i_i_glide_lignum>  (1) 
9

>  <i_i_glide_posenum>  (1) 
305

>  <i_i_glide_rotatable_bonds>  (1) 
7

>  <i_lp_mmshare_version>  (1) 
72125

>  <i_m_source_file_index>  (1) 
3

>  <i_f3d_flags>  (1) 
0

>  <num_sample>  (1) 
50

>  <b_lp_Chiralities_Consistent>  (1) 
1

>  <r_epik_Charging_Adjusted_Penalty>  (1) 
1.1352312410036836

>  <r_epik_Ionization_Penalty>  (1) 
1.1482633258778028

>  <r_epik_Ionization_Penalty_Charging>  (1) 
0.01211088635150746

>  <r_epik_Ionization_Penalty_Neutral>  (1) 
1.1361524395262954

>  <r_epik_State_Penalty>  (1) 
1.1231203546521762

>  <r_glide_ring_energy>  (1) 
0

>  <r_i_docking_score>  (1) 
-4.0570445390911871

>  <r_i_glide_ecoul>  (1) 
-5.1732317368056693

>  <r_i_glide_eff_state_penalty>  (1) 
1.1231203546521762

>  <r_i_glide_einternal>  (1) 
2.9543739238681361

>  <r_i_glide_emodel>  (1) 
-50.899345008920477

>  <r_i_glide_emodel_strain>  (1) 
0.027375648567186772

>  <r_i_glide_energy>  (1) 
-37.467860371668131

>  <r_i_glide_erotb>  (1) 
0.65461972943922775

>  <r_i_glide_esite>  (1) 
-0.16023369993988076

>  <r_i_glide_evdw>  (1) 
-32.294628634862462

>  <r_i_glide_gscore>  (1) 
-5.1801648937433633

>  <r_i_glide_gscore_strain>  (1) 
0

>  <r_i_glide_hbond>  (1) 
-0.20000000000000001

>  <r_i_glide_ligand_efficiency>  (1) 
-0.14489444782468525

>  <r_i_glide_ligand_efficiency_ln>  (1) 
-0.93648499962600129

>  <r_i_glide_ligand_efficiency_sa>  (1) 
-0.43998488235045291

>  <r_i_glide_lipo>  (1) 
-1.7407287299387326

>  <r_i_glide_metal>  (1) 
-0

>  <r_i_glide_rewards>  (1) 
-1.3431060010400035

>  <r_lp_Energy>  (1) 
91.512348000000003

>  <s_epik_Chemistry_Notes>  (1) 
This compound contains an acetal/aminal-like group ( X-CH(R)-Y where X, Y are N, S, or O) that may be acid/base labile, releasing an aldehyde.

>  <s_epik_cmdline>  (1) 
J2VwaWtfcHl0aG9uJywgJy1waHQnLCAnMS4wJywgJy1waCcsICc3LjQnLCAnLXRuJywgJzgnLCAnLW1hJywgJzUwMCcsICctaW1hZScsICc8aW5maWxlLm1hZT4nLCAnLW9tYWUnLCAnPG91dGZpbGUubWFlPic=

>  <s_epik_input>  (1) 
W0NIM11bQ0gyXVtDSDJdW0NIXTFOKFtDQEBIXTEyKVtDQEBIXShbT0hdKVtDSDJdTihbQ0gyXVtDSDJdMilbQ0gyXUMoPU8pW05IXUMoQyhbT0hdKT1bQ0hdT1tDSF09Myk9YyhjMzQpW2NIXVtjSF1bY0hdW2NIXTQ=

>  <s_glide_docking_method>  (1) 
confgen

>  <s_i_glide_gridfile>  (1) 
gpcr_drd2_6luq_protein_autoprepared_prepared

>  <s_lp_Force_Field>  (1) 
S-OPLS

>  <s_lp_Variant>  (1) 
DiffSBDD_2_num_sample_50-4

>  <s_m_source_file>  (1) 
generated__ligand_DiffSBDD_2026-05-06_prepared.sdf

>  <GenAI_Model>  (1) 
DiffSBDD

>  <Protein>  (1) 
generic_title2

$$$$
DiffSBDD_4_num_sample_50
     RDKit          3D

  0  0  0  0  0  0  0  0  0  0999 V3000
M  V30 BEGIN CTAB
M  V30 COUNTS 43 44 0 0 1
M  V30 BEGIN ATOM
M  V30 1 C 5.148860 7.481108 -19.459018 0
M  V30 2 C 6.218870 7.197787 -14.745498 0
M  V30 3 C 8.190398 4.615250 -12.849305 0
M  V30 4 C 11.968650 6.166584 -16.327126 0
M  V30 5 C 5.922510 6.440742 -16.060158 0
M  V30 6 O 4.634935 7.715841 -20.550522 0
M  V30 7 N 7.034839 5.555803 -16.446418 0
M  V30 8 O 9.685976 5.248186 -18.984781 0
M  V30 9 C 7.817067 5.394884 -14.111077 0 CFG=2
M  V30 10 C 6.611349 6.201680 -13.652158 0 CFG=1
M  V30 11 C 5.427927 6.045344 -19.020381 0
M  V30 12 C 7.447400 4.615543 -15.381325 0
M  V30 13 O 7.243845 4.969296 -10.636008 0
M  V30 14 C 9.111166 5.336261 -17.897332 0
M  V30 15 O 9.747530 5.241804 -16.713110 0
M  V30 16 C 7.046300 6.742845 -12.291896 0
M  V30 17 C 7.916317 5.612751 -11.698733 0 CFG=2
M  V30 18 C 7.622051 5.577761 -17.751746 0
M  V30 19 C 6.929222 5.808205 -18.906614 0
M  V30 20 C 11.134763 4.925329 -16.659745 0
M  V30 21 H 5.431120 8.256191 -18.747348 0
M  V30 22 H 7.025486 7.915058 -14.905605 0
M  V30 23 H 5.343896 7.769299 -14.437346 0
M  V30 24 H 9.224918 4.269633 -12.864013 0
M  V30 25 H 7.550554 3.735839 -12.757467 0
M  V30 26 H 13.029032 5.917490 -16.292393 0
M  V30 27 H 11.697151 6.569296 -15.352518 0
M  V30 28 H 11.834840 6.949882 -17.073321 0
M  V30 29 H 5.007437 5.857277 -15.959234 0
M  V30 30 H 5.752748 7.222037 -16.792826 0
M  V30 31 H 8.634834 6.076546 -14.343269 0
M  V30 32 H 5.771138 5.524433 -13.483792 0
M  V30 33 H 4.865049 5.783683 -18.130802 0
M  V30 34 H 5.053911 5.376808 -19.796060 0
M  V30 35 H 6.582493 3.989851 -15.159473 0
M  V30 36 H 8.202436 3.884479 -15.662037 0
M  V30 37 H 7.034861 5.629756 -9.984592 0
M  V30 38 H 7.651858 7.640791 -12.422622 0
M  V30 39 H 6.197548 7.012742 -11.661481 0
M  V30 40 H 8.849829 6.029554 -11.318211 0
M  V30 41 H 7.467318 5.819277 -19.844586 0
M  V30 42 H 11.488118 4.474586 -17.588031 0
M  V30 43 H 11.280826 4.169298 -15.891662 0
M  V30 END ATOM
M  V30 BEGIN BOND
M  V30 1 1 5 2
M  V30 2 2 6 1
M  V30 3 1 7 5
M  V30 4 1 9 3
M  V30 5 1 10 2
M  V30 6 1 10 9
M  V30 7 1 11 1
M  V30 8 1 12 7
M  V30 9 1 12 9
M  V30 10 2 14 8
M  V30 11 1 15 14
M  V30 12 1 16 10
M  V30 13 1 17 3
M  V30 14 1 17 13
M  V30 15 1 17 16
M  V30 16 1 18 7
M  V30 17 1 18 14
M  V30 18 1 19 11
M  V30 19 2 19 18
M  V30 20 1 20 4
M  V30 21 1 20 15
M  V30 22 1 21 1
M  V30 23 1 22 2
M  V30 24 1 23 2
M  V30 25 1 24 3
M  V30 26 1 25 3
M  V30 27 1 26 4
M  V30 28 1 27 4
M  V30 29 1 28 4
M  V30 30 1 29 5
M  V30 31 1 30 5
M  V30 32 1 9 31 CFG=3
M  V30 33 1 10 32 CFG=1
M  V30 34 1 33 11
M  V30 35 1 34 11
M  V30 36 1 35 12
M  V30 37 1 36 12
M  V30 38 1 37 13
M  V30 39 1 38 16
M  V30 40 1 39 16
M  V30 41 1 17 40 CFG=1
M  V30 42 1 41 19
M  V30 43 1 42 20
M  V30 44 1 43 20
M  V30 END BOND
M  V30 END CTAB
M  END
>  <i_epik_Tot_Q>  (1) 
0

>  <i_epik_Tot_abs_Q>  (1) 
0

>  <i_i_glide_confnum>  (1) 
11

>  <i_i_glide_lignum>  (1) 
12

>  <i_i_glide_posenum>  (1) 
112

>  <i_i_glide_rotatable_bonds>  (1) 
7

>  <i_lp_mmshare_version>  (1) 
72125

>  <i_m_source_file_index>  (1) 
5

>  <i_f3d_flags>  (1) 
0

>  <num_sample>  (1) 
50

>  <b_lp_Chiralities_Consistent>  (1) 
1

>  <r_epik_Charging_Adjusted_Penalty>  (1) 
0.41067984158451698

>  <r_epik_Ionization_Penalty>  (1) 
6.7674502354530413e-05

>  <r_epik_Ionization_Penalty_Charging>  (1) 
2.6319130011581777e-09

>  <r_epik_Ionization_Penalty_Neutral>  (1) 
6.7671870441529249e-05

>  <r_epik_State_Penalty>  (1) 
0.41067983895260396

>  <r_glide_ring_energy>  (1) 
0

>  <r_i_docking_score>  (1) 
-4.0531329502319515

>  <r_i_glide_ecoul>  (1) 
-2.5500720351527599

>  <r_i_glide_eff_state_penalty>  (1) 
0.41067983895260396

>  <r_i_glide_einternal>  (1) 
3.7559683235976209

>  <r_i_glide_emodel>  (1) 
-30.135221838811493

>  <r_i_glide_emodel_strain>  (1) 
0.026392431716736553

>  <r_i_glide_energy>  (1) 
-24.890875505430799

>  <r_i_glide_erotb>  (1) 
0.91336080097250838

>  <r_i_glide_esite>  (1) 
0

>  <r_i_glide_evdw>  (1) 
-22.34080347027804

>  <r_i_glide_gscore>  (1) 
-4.4638127891845558

>  <r_i_glide_gscore_strain>  (1) 
0

>  <r_i_glide_hbond>  (1) 
-0.06261215941368127

>  <r_i_glide_ligand_efficiency>  (1) 
-0.20265664751159757

>  <r_i_glide_ligand_efficiency_ln>  (1) 
-1.0143654961714703

>  <r_i_glide_ligand_efficiency_sa>  (1) 
-0.55009477412554486

>  <r_i_glide_lipo>  (1) 
-1.3960856105951513

>  <r_i_glide_metal>  (1) 
-0

>  <r_i_glide_rewards>  (1) 
-2.4189248413614153

>  <r_lp_Energy>  (1) 
25.184904

>  <r_lp_tautomer_probability>  (1) 
0.5

>  <s_epik_Chemistry_Notes>  (1) 
This compound has an ester and may undergo hydrolysis at high or low pH. This compound has an imine and may undergo hydrolysis.

>  <s_epik_cmdline>  (1) 
J2VwaWtfcHl0aG9uJywgJy1waHQnLCAnMS4wJywgJy1waCcsICc3LjQnLCAnLXRuJywgJzgnLCAnLW1hJywgJzUwMCcsICctaW1hZScsICc8aW5maWxlLm1hZT4nLCAnLW9tYWUnLCAnPG91dGZpbGUubWFlPic=

>  <s_epik_input>  (1) 
W0NIM11bQ0gyXU9DKD1PKUMoPVtDSF1cW0NIMl1bQ0hdPU8pXE4oW0NIMl0xKVtDSDJdW0NIMl1bQ0BASF0oW0NASF0xMilbQ0gyXVtDQEhdKFtDSDJdMilbT0hd

>  <s_glide_docking_method>  (1) 
confgen

>  <s_i_glide_gridfile>  (1) 
gpcr_drd2_6luq_protein_autoprepared_prepared

>  <s_lp_Force_Field>  (1) 
S-OPLS

>  <s_lp_Variant>  (1) 
DiffSBDD_4_num_sample_50-1

>  <s_m_source_file>  (1) 
generated__ligand_DiffSBDD_2026-05-06_prepared.sdf

>  <GenAI_Model>  (1) 
DiffSBDD

>  <Protein>  (1) 
generic_title2

$$$$
DiffSBDD_24_num_sample_50
     RDKit          3D

  0  0  0  0  0  0  0  0  0  0999 V3000
M  V30 BEGIN CTAB
M  V30 COUNTS 85 91 0 0 1
M  V30 BEGIN ATOM
M  V30 1 N 9.508751 3.822921 -18.536304 0
M  V30 2 C 7.597906 3.651003 -13.198266 0
M  V30 3 O 8.570585 -1.239277 -18.486241 0
M  V30 4 C 11.121458 1.610020 -18.795100 0 CFG=2
M  V30 5 C 13.584361 6.732095 -19.379045 0 CFG=1
M  V30 6 C 6.147702 5.672377 -14.068950 0 CFG=2
M  V30 7 C 6.786267 -0.187009 -17.076929 0 CFG=2
M  V30 8 C 9.037212 0.960424 -17.505287 0
M  V30 9 N 14.064128 6.703098 -17.998293 0
M  V30 10 N 7.215883 0.466442 -14.729443 0 CFG=1 CHG=1
M  V30 11 C 7.052294 2.229809 -16.604555 0
M  V30 12 C 9.184525 3.005547 -19.718099 0
M  V30 13 C 12.057745 6.605240 -19.409033 0
M  V30 14 C 8.463967 2.166952 -17.163723 0
M  V30 15 C 15.482281 7.044326 -18.092757 0
M  V30 16 C 10.076177 5.161905 -18.807239 0
M  V30 17 C 13.780224 5.396017 -17.388942 0 CFG=2
M  V30 18 O 9.437287 4.169249 -16.291572 0
M  V30 19 C 6.953575 6.374109 -15.144924 0
M  V30 20 F 6.234722 -1.335610 -16.691651 0
M  V30 21 C 12.247354 5.173094 -17.376647 0
M  V30 22 C 13.205573 0.325686 -18.026237 0
M  V30 23 C 15.560683 8.328003 -18.932584 0 CFG=1
M  V30 24 C 7.961008 -0.913227 -19.726787 0
M  V30 25 C 11.619419 5.267040 -18.785772 0 CFG=2
M  V30 26 C 10.346595 2.068518 -20.040008 0
M  V30 27 F 7.435029 7.402923 -12.993242 0
M  V30 28 C 6.963890 5.009639 -12.972283 0 CFG=2
M  V30 29 C 9.199474 3.446511 -17.255459 0
M  V30 30 C 12.319374 0.738717 -19.210344 0
M  V30 31 C 8.301521 -0.373916 -17.384780 0 CFG=2
M  V30 32 C 6.546666 0.894166 -16.001346 0 CFG=1
M  V30 33 C 14.340032 5.310792 -15.957062 0
M  V30 34 S 14.181505 8.280483 -20.089934 0
M  V30 35 C 7.172131 1.150590 -13.428048 0 CFG=1
M  V30 36 O 10.353511 0.797625 -17.921332 0
M  V30 37 C 7.469774 6.230675 -13.724350 0 CFG=1
M  V30 38 Cl 15.433914 9.769306 -17.891693 0
M  V30 39 C 6.552721 2.529943 -13.288837 0
M  V30 40 C 6.318023 -0.054031 -13.697740 0
M  V30 41 H 8.205972 3.681791 -14.099625 0
M  V30 42 H 8.287461 3.456251 -12.375552 0
M  V30 43 H 11.549736 2.440261 -18.240619 0
M  V30 44 H 14.038992 5.914501 -19.941452 0
M  V30 45 H 5.264068 6.207382 -13.727082 0
M  V30 46 H 6.242675 0.107067 -17.974780 0
M  V30 47 H 6.967840 3.053368 -15.901418 0
M  V30 48 H 6.414128 2.500724 -17.446954 0
M  V30 49 H 9.003384 3.638414 -20.587071 0
M  V30 50 H 8.246419 2.460660 -19.619273 0
M  V30 51 H 11.606754 7.441915 -18.872294 0
M  V30 52 H 11.707913 6.671478 -20.440082 0
M  V30 53 H 15.942714 7.181323 -17.115310 0
M  V30 54 H 16.015034 6.237096 -18.598302 0
M  V30 55 H 9.720471 5.499884 -19.780647 0
M  V30 56 H 9.656615 5.895047 -18.115150 0
M  V30 57 H 14.246596 4.613230 -17.989686 0
M  V30 58 H 7.400193 5.750332 -15.914111 0
M  V30 59 H 6.627705 7.359813 -15.471422 0
M  V30 60 H 12.035811 4.203225 -16.929723 0
M  V30 61 H 11.779634 5.910312 -16.721762 0
M  V30 62 H 14.049333 -0.276289 -18.364822 0
M  V30 63 H 12.648177 -0.266633 -17.300334 0
M  V30 64 H 13.604711 1.198251 -17.508128 0
M  V30 65 H 16.507810 8.397308 -19.467177 0
M  V30 66 H 8.431949 -1.492315 -20.520798 0
M  V30 67 H 8.063083 0.141003 -19.975468 0
M  V30 68 H 6.901411 -1.168378 -19.724365 0
M  V30 69 H 12.030024 4.468040 -19.403069 0
M  V30 70 H 9.997189 1.214221 -20.619201 0
M  V30 71 H 11.039174 2.601981 -20.692412 0
M  V30 72 H 6.606616 5.167251 -11.955594 0
M  V30 73 H 11.963826 -0.153540 -19.726768 0
M  V30 74 H 12.933598 1.283246 -19.928638 0
M  V30 75 H 8.757884 -0.871575 -16.528330 0
M  V30 76 H 5.470249 0.969305 -15.851589 0
M  V30 77 H 14.054043 4.368057 -15.491667 0
M  V30 78 H 13.958996 6.117640 -15.329951 0
M  V30 79 H 15.428469 5.351945 -15.934558 0
M  V30 80 H 8.092552 0.977503 -12.872350 0
M  V30 81 H 5.834837 2.724653 -14.074576 0
M  V30 82 H 5.977232 2.531090 -12.363092 0
M  V30 83 H 5.259189 0.078304 -13.912338 0
M  V30 84 H 6.634905 -1.031163 -13.356683 0
M  V30 85 H 8.018007 -0.136920 -14.841887 0
M  V30 END ATOM
M  V30 BEGIN BOND
M  V30 1 1 9 5
M  V30 2 1 12 1
M  V30 3 1 13 5
M  V30 4 2 14 8
M  V30 5 1 14 11
M  V30 6 1 15 9
M  V30 7 1 16 1
M  V30 8 1 17 9
M  V30 9 1 19 6
M  V30 10 1 20 7
M  V30 11 1 21 17
M  V30 12 1 23 15
M  V30 13 1 24 3
M  V30 14 1 25 13
M  V30 15 1 25 16
M  V30 16 1 25 21
M  V30 17 1 26 4
M  V30 18 1 26 12
M  V30 19 1 28 2
M  V30 20 1 28 6
M  V30 21 1 29 1
M  V30 22 1 29 14
M  V30 23 2 29 18
M  V30 24 1 30 4
M  V30 25 1 30 22
M  V30 26 1 31 3
M  V30 27 1 31 7
M  V30 28 1 31 8
M  V30 29 1 32 7
M  V30 30 1 32 10
M  V30 31 1 32 11
M  V30 32 1 33 17
M  V30 33 1 34 5
M  V30 34 1 34 23
M  V30 35 1 35 10
M  V30 36 1 36 4
M  V30 37 1 36 8
M  V30 38 1 37 6
M  V30 39 1 37 19
M  V30 40 1 37 27 CFG=1
M  V30 41 1 37 28
M  V30 42 1 38 23
M  V30 43 1 39 2
M  V30 44 1 39 35
M  V30 45 1 40 10
M  V30 46 1 40 35
M  V30 47 1 41 2
M  V30 48 1 42 2
M  V30 49 1 4 43 CFG=1
M  V30 50 1 5 44 CFG=3
M  V30 51 1 6 45 CFG=1
M  V30 52 1 7 46 CFG=3
M  V30 53 1 47 11
M  V30 54 1 48 11
M  V30 55 1 49 12
M  V30 56 1 50 12
M  V30 57 1 51 13
M  V30 58 1 52 13
M  V30 59 1 53 15
M  V30 60 1 54 15
M  V30 61 1 55 16
M  V30 62 1 56 16
M  V30 63 1 17 57 CFG=3
M  V30 64 1 58 19
M  V30 65 1 59 19
M  V30 66 1 60 21
M  V30 67 1 61 21
M  V30 68 1 62 22
M  V30 69 1 63 22
M  V30 70 1 64 22
M  V30 71 1 23 65 CFG=3
M  V30 72 1 66 24
M  V30 73 1 67 24
M  V30 74 1 68 24
M  V30 75 1 25 69 CFG=3
M  V30 76 1 70 26
M  V30 77 1 71 26
M  V30 78 1 28 72 CFG=1
M  V30 79 1 73 30
M  V30 80 1 74 30
M  V30 81 1 31 75 CFG=1
M  V30 82 1 32 76 CFG=1
M  V30 83 1 77 33
M  V30 84 1 78 33
M  V30 85 1 79 33
M  V30 86 1 35 80 CFG=1
M  V30 87 1 81 39
M  V30 88 1 82 39
M  V30 89 1 83 40
M  V30 90 1 84 40
M  V30 91 1 10 85 CFG=3
M  V30 END BOND
M  V30 END CTAB
M  END
>  <i_epik_Tot_Q>  (1) 
1

>  <i_epik_Tot_abs_Q>  (1) 
1

>  <i_i_glide_confnum>  (1) 
171

>  <i_i_glide_lignum>  (1) 
65

>  <i_i_glide_posenum>  (1) 
121

>  <i_i_glide_rotatable_bonds>  (1) 
8

>  <i_lp_mmshare_version>  (1) 
72125

>  <i_m_source_file_index>  (1) 
25

>  <i_f3d_flags>  (1) 
0

>  <num_sample>  (1) 
50

>  <b_lp_Chiralities_Consistent>  (1) 
1

>  <r_epik_Charging_Adjusted_Penalty>  (1) 
0.63439585009227506

>  <r_epik_Ionization_Penalty>  (1) 
0.31719815469996288

>  <r_epik_Ionization_Penalty_Charging>  (1) 
0.31719792504613759

>  <r_epik_Ionization_Penalty_Neutral>  (1) 
2.2965382529121371e-07

>  <r_epik_State_Penalty>  (1) 
0.31719792504613753

>  <r_glide_ring_energy>  (1) 
0

>  <r_i_docking_score>  (1) 
-4.0498825116748645

>  <r_i_glide_ecoul>  (1) 
-0.7251478919678449

>  <r_i_glide_eff_state_penalty>  (1) 
0.31719792504613753

>  <r_i_glide_einternal>  (1) 
5.6825672865751731

>  <r_i_glide_emodel>  (1) 
-42.228506547259023

>  <r_i_glide_emodel_strain>  (1) 
0.3857831986119038

>  <r_i_glide_energy>  (1) 
-35.246651899286967

>  <r_i_glide_erotb>  (1) 
0.23102689348128655

>  <r_i_glide_esite>  (1) 
-0.038412858588320747

>  <r_i_glide_evdw>  (1) 
-34.521504007319123

>  <r_i_glide_gscore>  (1) 
-4.3670804367210021

>  <r_i_glide_gscore_strain>  (1) 
0

>  <r_i_glide_hbond>  (1) 
0

>  <r_i_glide_ligand_efficiency>  (1) 
-0.10124706279187161

>  <r_i_glide_ligand_efficiency_ln>  (1) 
-0.86372075701830486

>  <r_i_glide_ligand_efficiency_sa>  (1) 
-0.34626008409153136

>  <r_i_glide_lipo>  (1) 
-2.2608789367554158

>  <r_i_glide_metal>  (1) 
-0

>  <r_i_glide_rewards>  (1) 
-0.46396815069741887

>  <r_lp_Energy>  (1) 
53.388234999999995

>  <s_epik_Chemistry_Notes>  (1) 
This compound contains an acetal/aminal-like group ( X-CH(R)-Y where X, Y are N, S, or O) that may be acid/base labile, releasing an aldehyde.

>  <s_epik_cmdline>  (1) 
J2VwaWtfcHl0aG9uJywgJy1waHQnLCAnMS4wJywgJy1waCcsICc3LjQnLCAnLXRuJywgJzgnLCAnLW1hJywgJzUwMCcsICctaW1hZScsICc8aW5maWxlLm1hZT4nLCAnLW9tYWUnLCAnPG91dGZpbGUubWFlPic=

>  <s_epik_input>  (1) 
UzFbQ0BASF0oQ2wpW0NIMl1OKFtDQEhdMTIpW0NAQEhdKFtDSDNdKVtDSDJdW0NASF0oW0NIMl0yKVtDSDJdTihbQ0gyXVtDSDJdW0NAQEhdKE8zKVtDSDJdW0NIM10pQyg9TylDKD1DMzQpW0NIMl1bQ0BASF0oW0NASF0oRilbQ0BIXTRPW0NIM10pTjVbQ0BIXShbQ0gyXTUpW0NIMl1bQ0gyXVtDQEBIXTZbQ0hdKFtDSDJdNylDNjdG

>  <s_glide_docking_method>  (1) 
confgen

>  <s_i_glide_gridfile>  (1) 
gpcr_drd2_6luq_protein_autoprepared_prepared

>  <s_lp_Force_Field>  (1) 
S-OPLS

>  <s_lp_Variant>  (1) 
DiffSBDD_24_num_sample_50-2

>  <s_m_source_file>  (1) 
generated__ligand_DiffSBDD_2026-05-06_prepared.sdf

>  <GenAI_Model>  (1) 
DiffSBDD

>  <Protein>  (1) 
generic_title2

$$$$
DiffSBDD_33_num_sample_50
     RDKit          3D

  0  0  0  0  0  0  0  0  0  0999 V3000
M  V30 BEGIN CTAB
M  V30 COUNTS 69 72 0 0 1
M  V30 BEGIN ATOM
M  V30 1 O 5.201356 -1.718697 -16.701935 0
M  V30 2 C 6.855928 0.353399 -14.349248 0
M  V30 3 O 6.636932 -0.394507 -18.657436 0
M  V30 4 C 7.371382 1.379490 -17.163871 0
M  V30 5 C 9.388230 6.311527 -10.786439 0
M  V30 6 C 9.533433 3.686178 -16.691649 0
M  V30 7 C 5.645701 4.712500 -13.497386 0
M  V30 8 C 5.460328 -2.464255 -18.938090 0
M  V30 9 N 7.034882 1.701784 -14.760703 0
M  V30 10 C 6.606376 5.515549 -14.397314 0
M  V30 11 C 7.506521 4.402159 -11.792706 0
M  V30 12 C 8.236193 3.422379 -15.939784 0
M  V30 13 N 5.791929 -0.230697 -15.081112 0
M  V30 14 C 6.022179 4.759603 -11.999929 0 CFG=1
M  V30 15 N 10.260786 7.103496 -8.004482 0 CHG=1
M  V30 16 C 8.390246 5.290501 -12.674684 0
M  V30 17 C 5.464183 -0.966586 -19.210630 0 CFG=2
M  V30 18 C 6.622756 0.103090 -17.367662 0
M  V30 19 C 11.416149 7.420282 -7.136793 0
M  V30 20 C 9.034831 6.814525 -7.224436 0
M  V30 21 N 9.280871 6.084946 -12.213493 0
M  V30 22 C 8.098493 5.170425 -14.161771 0 CFG=1
M  V30 23 F 5.434848 -0.786443 -20.527770 0
M  V30 24 C 5.673616 6.105972 -11.346285 0
M  V30 25 C 5.896124 -0.569187 -16.400365 0
M  V30 26 O 8.423032 3.849305 -14.580613 0
M  V30 27 C 5.858385 -2.696487 -17.491501 0
M  V30 28 C 10.044854 8.107731 -9.080364 0
M  V30 29 C 10.288338 7.518765 -10.482557 0
M  V30 30 C 8.297713 4.466965 -17.055055 0
M  V30 31 C 7.510705 2.092735 -15.995556 0
M  V30 32 F 7.925861 1.909053 -18.266265 0
M  V30 33 H 6.621269 0.324821 -13.284781 0
M  V30 34 H 7.775112 -0.215308 -14.499277 0
M  V30 35 H 8.404446 6.519440 -10.366846 0
M  V30 36 H 9.777534 5.424407 -10.284453 0
M  V30 37 H 10.319721 4.227813 -16.168644 0
M  V30 38 H 9.894078 2.938430 -17.393206 0
M  V30 39 H 5.630701 3.676750 -13.826049 0
M  V30 40 H 4.634831 5.077813 -13.645289 0
M  V30 41 H 4.466514 -2.867454 -19.135392 0
M  V30 42 H 6.156825 -2.984207 -19.595997 0
M  V30 43 H 7.197583 2.348475 -14.000338 0
M  V30 44 H 6.460433 6.579377 -14.203406 0
M  V30 45 H 6.325073 5.372152 -15.439593 0
M  V30 46 H 7.672063 3.369742 -12.099038 0
M  V30 47 H 5.426988 4.002476 -11.488207 0
M  V30 48 H 4.565911 -0.479936 -18.824858 0
M  V30 49 H 5.201305 -0.838734 -14.520317 0
M  V30 50 H 11.237161 8.327400 -6.557354 0
M  V30 51 H 11.608977 6.601979 -6.441659 0
M  V30 52 H 12.316533 7.565372 -7.734929 0
M  V30 53 H 8.637941 7.714533 -6.751494 0
M  V30 54 H 8.260451 6.398032 -7.870439 0
M  V30 55 H 9.232271 6.082690 -6.441370 0
M  V30 56 H 8.731044 5.874202 -14.697846 0
M  V30 57 H 6.273146 6.930465 -11.732843 0
M  V30 58 H 4.634843 6.372665 -11.491614 0
M  V30 59 H 5.834789 6.054061 -10.272422 0
M  V30 60 H 5.544833 -3.688554 -17.165257 0
M  V30 61 H 6.941931 -2.654907 -17.363523 0
M  V30 62 H 10.703054 8.966599 -8.937970 0
M  V30 63 H 9.034856 8.515793 -9.028769 0
M  V30 64 H 11.336988 7.250218 -10.611199 0
M  V30 65 H 10.085265 8.303752 -11.211773 0
M  V30 66 H 7.812567 4.242283 -18.000949 0
M  V30 67 H 8.305515 5.525973 -16.814425 0
M  V30 68 H 10.491939 6.239081 -8.472699 0
M  V30 69 H 7.761826 4.424024 -10.735287 0
M  V30 END ATOM
M  V30 BEGIN BOND
M  V30 1 1 9 2
M  V30 2 1 10 7
M  V30 3 1 12 6
M  V30 4 1 13 2
M  V30 5 1 14 7
M  V30 6 1 14 11
M  V30 7 1 16 11
M  V30 8 1 17 3
M  V30 9 1 17 8
M  V30 10 1 18 3
M  V30 11 1 18 4
M  V30 12 1 19 15
M  V30 13 1 20 15
M  V30 14 1 21 5
M  V30 15 2 21 16
M  V30 16 1 22 10
M  V30 17 1 22 16
M  V30 18 1 23 17
M  V30 19 1 24 14
M  V30 20 1 25 1
M  V30 21 1 25 13
M  V30 22 2 25 18
M  V30 23 1 26 12
M  V30 24 1 26 22
M  V30 25 1 27 1
M  V30 26 1 27 8
M  V30 27 1 28 15
M  V30 28 1 29 5
M  V30 29 1 29 28
M  V30 30 1 30 6
M  V30 31 1 30 12
M  V30 32 2 31 4
M  V30 33 1 31 9
M  V30 34 1 31 12
M  V30 35 1 32 4
M  V30 36 1 33 2
M  V30 37 1 34 2
M  V30 38 1 35 5
M  V30 39 1 36 5
M  V30 40 1 37 6
M  V30 41 1 38 6
M  V30 42 1 39 7
M  V30 43 1 40 7
M  V30 44 1 41 8
M  V30 45 1 42 8
M  V30 46 1 43 9
M  V30 47 1 44 10
M  V30 48 1 45 10
M  V30 49 1 46 11
M  V30 50 1 14 47 CFG=1
M  V30 51 1 17 48 CFG=1
M  V30 52 1 49 13
M  V30 53 1 50 19
M  V30 54 1 51 19
M  V30 55 1 52 19
M  V30 56 1 53 20
M  V30 57 1 54 20
M  V30 58 1 55 20
M  V30 59 1 22 56 CFG=3
M  V30 60 1 57 24
M  V30 61 1 58 24
M  V30 62 1 59 24
M  V30 63 1 60 27
M  V30 64 1 61 27
M  V30 65 1 62 28
M  V30 66 1 63 28
M  V30 67 1 64 29
M  V30 68 1 65 29
M  V30 69 1 66 30
M  V30 70 1 67 30
M  V30 71 1 68 15
M  V30 72 1 69 11
M  V30 END BOND
M  V30 END CTAB
M  END
>  <i_epik_Tot_Q>  (1) 
1

>  <i_epik_Tot_abs_Q>  (1) 
1

>  <i_i_glide_confnum>  (1) 
82

>  <i_i_glide_lignum>  (1) 
84

>  <i_i_glide_posenum>  (1) 
339

>  <i_i_glide_rotatable_bonds>  (1) 
7

>  <i_lp_mmshare_version>  (1) 
72125

>  <i_m_source_file_index>  (1) 
34

>  <i_f3d_flags>  (1) 
0

>  <num_sample>  (1) 
50

>  <b_lp_Chiralities_Consistent>  (1) 
1

>  <r_epik_Charging_Adjusted_Penalty>  (1) 
0.41789118993368612

>  <r_epik_Ionization_Penalty>  (1) 
0.0076682513750627552

>  <r_epik_Ionization_Penalty_Charging>  (1) 
0.0072113509810821487

>  <r_epik_Ionization_Penalty_Neutral>  (1) 
0.0004569003939806066

>  <r_epik_State_Penalty>  (1) 
0.41067983895260396

>  <r_glide_ring_energy>  (1) 
1.3422813252046473

>  <r_i_docking_score>  (1) 
-4.0323867998882639

>  <r_i_glide_ecoul>  (1) 
-3.4225308448396232

>  <r_i_glide_eff_state_penalty>  (1) 
0.41067983895260396

>  <r_i_glide_einternal>  (1) 
10.6607212702437

>  <r_i_glide_emodel>  (1) 
-45.952114127235077

>  <r_i_glide_emodel_strain>  (1) 
0.68877503106953952

>  <r_i_glide_energy>  (1) 
-38.749758687925087

>  <r_i_glide_erotb>  (1) 
0.58078846603177925

>  <r_i_glide_esite>  (1) 
-0.064911481588323869

>  <r_i_glide_evdw>  (1) 
-35.327227843085467

>  <r_i_glide_gscore>  (1) 
-4.4430666388408682

>  <r_i_glide_gscore_strain>  (1) 
0

>  <r_i_glide_hbond>  (1) 
-0.16

>  <r_i_glide_ligand_efficiency>  (1) 
-0.12601208749650825

>  <r_i_glide_ligand_efficiency_ln>  (1) 
-0.90296132320772005

>  <r_i_glide_ligand_efficiency_sa>  (1) 
-0.40006344050533205

>  <r_i_glide_lipo>  (1) 
-1.3533157953173467

>  <r_i_glide_metal>  (1) 
-0

>  <r_i_glide_rewards>  (1) 
-1.1658868090867605

>  <r_lp_Energy>  (1) 
52.499913999999997

>  <r_lp_tautomer_probability>  (1) 
0.49999519497573586

>  <s_epik_Chemistry_Notes>  (1) 
This compound has an imine and may undergo hydrolysis. This compound contains an acetal/aminal-like group ( X-CH(R)-Y where X, Y are N, S, or O) that may be acid/base labile, releasing an aldehyde.

>  <s_epik_cmdline>  (1) 
J2VwaWtfcHl0aG9uJywgJy1waHQnLCAnMS4wJywgJy1waCcsICc3LjQnLCAnLXRuJywgJzgnLCAnLW1hJywgJzUwMCcsICctaW1hZScsICc8aW5maWxlLm1hZT4nLCAnLW9tYWUnLCAnPG91dGZpbGUubWFlPic=

>  <s_epik_input>  (1) 
TzFbQ0BASF0oRilbQ0gyXVtDSDJdT0MoW0NAQEhdMTIpPU5bQ0gyXVtOSF1DKD1DMkYpQzMoW0NIMl1bQ0gyXTMpT1tDQEBIXShbQ0gyXVtDSDJdW0NAQEhdNFtDSDNdKUMoPVtDSF00KVtOSF1bQ0gyXVtDSDJdW0NIMl1OKFtDSDNdKVtDSDNd

>  <s_glide_docking_method>  (1) 
confgen

>  <s_i_glide_gridfile>  (1) 
gpcr_drd2_6luq_protein_autoprepared_prepared

>  <s_lp_Force_Field>  (1) 
S-OPLS

>  <s_lp_Variant>  (1) 
DiffSBDD_33_num_sample_50-2

>  <s_m_source_file>  (1) 
generated__ligand_DiffSBDD_2026-05-06_prepared.sdf

>  <GenAI_Model>  (1) 
DiffSBDD

>  <Protein>  (1) 
generic_title2

$$$$
DiffSBDD_34_num_sample_50
     RDKit          3D

  0  0  0  0  0  0  0  0  0  0999 V3000
M  V30 BEGIN CTAB
M  V30 COUNTS 109 114 0 0 1
M  V30 BEGIN ATOM
M  V30 1 C 11.185685 6.197721 -18.539594 0
M  V30 2 C 6.246061 5.371370 -17.059661 0
M  V30 3 C 6.667340 4.259206 -14.809192 0
M  V30 4 C 13.262403 3.971713 -19.834105 0
M  V30 5 C 9.662972 7.961267 -11.939715 0
M  V30 6 C 17.620098 7.700107 -18.463771 0 CFG=1
M  V30 7 C 6.339953 6.705957 -17.836309 0 CFG=2
M  V30 8 C 7.300962 4.421302 -13.413783 0
M  V30 9 O 12.497752 6.907972 -20.363019 0
M  V30 10 C 16.981133 3.791356 -19.674532 0 CFG=1
M  V30 11 N 18.266997 9.737552 -19.706254 0 CHG=1
M  V30 12 C 13.277708 6.131520 -21.254972 0 CFG=1
M  V30 13 O 8.291974 6.429224 -21.682566 0
M  V30 14 C 7.287984 5.130930 -15.941610 0 CFG=1
M  V30 15 C 10.206413 7.424230 -20.604314 0
M  V30 16 F 13.464927 7.953284 -22.721959 0
M  V30 17 C 15.078270 7.879006 -21.019002 0
M  V30 18 C 11.205430 8.302581 -9.955947 0
M  V30 19 O 16.340518 7.815316 -19.077449 0
M  V30 20 C 8.580729 4.501502 -16.525188 0
M  V30 21 C 4.976319 7.424735 -17.874046 0
M  V30 22 C 6.862976 6.505649 -19.264975 0
M  V30 23 C 9.801948 7.878995 -10.438233 0 CFG=2
M  V30 24 C 12.785497 4.149525 -18.371231 0
M  V30 25 O 7.962923 4.568879 -10.354290 0
M  V30 26 O 8.150370 6.958741 -19.423433 0
M  V30 27 C 11.174488 4.573877 -16.555938 0
M  V30 28 C 8.322290 5.673748 -10.733521 0
M  V30 29 C 14.198436 7.103063 -22.003606 0 CFG=1
M  V30 30 C 14.119444 5.096722 -20.482381 0 CFG=1
M  V30 31 C 8.779808 6.880408 -20.644536 0
M  V30 32 O 6.163593 5.988867 -20.141017 0
M  V30 33 O 9.976338 5.998951 -8.944930 0
M  V30 34 C 8.236742 7.632951 -12.295204 0
M  V30 35 C 11.386878 4.733671 -18.080917 0 CFG=1
M  V30 36 C 18.030016 6.293662 -17.989105 0
M  V30 37 C 16.118286 4.736860 -18.816048 0 CFG=1
M  V30 38 C 16.868079 5.361665 -17.615656 0
M  V30 39 C 5.444801 5.393038 -11.883273 0
M  V30 40 C 15.955862 6.958897 -20.151000 0 CFG=1
M  V30 41 C 18.667702 8.359651 -19.373886 0
M  V30 42 O 16.789130 3.804306 -21.094616 0
M  V30 43 C 6.758929 5.662917 -12.664176 0 CFG=1
M  V30 44 C 9.434735 6.477137 -9.942443 0
M  V30 45 C 15.183454 5.759133 -19.538852 0 CFG=1
M  V30 46 N 7.810446 6.305708 -11.844489 0
M  V30 47 C 11.215273 6.396514 -20.063911 0 CFG=2
M  V30 48 C 9.870202 5.102904 -15.952511 0
M  V30 49 C 18.096401 4.146558 -20.630241 0
M  V30 50 H 10.218320 6.537930 -18.187736 0
M  V30 51 H 11.900946 6.869639 -18.057796 0
M  V30 52 H 6.294240 4.532310 -17.753148 0
M  V30 53 H 5.253682 5.369743 -16.612362 0
M  V30 54 H 6.665618 3.209046 -15.103941 0
M  V30 55 H 5.616126 4.514204 -14.681597 0
M  V30 56 H 13.888741 3.080373 -19.840996 0
M  V30 57 H 12.425828 3.702108 -20.477341 0
M  V30 58 H 10.368603 7.300866 -12.446836 0
M  V30 59 H 9.834537 8.969486 -12.288466 0
M  V30 60 H 17.536560 8.311714 -17.563671 0
M  V30 61 H 7.030368 7.368357 -17.322717 0
M  V30 62 H 8.384825 4.453831 -13.497205 0
M  V30 63 H 7.096278 3.531473 -12.815413 0
M  V30 64 H 17.016127 2.780977 -19.282185 0
M  V30 65 H 18.943729 10.159412 -20.328390 0
M  V30 66 H 17.363204 9.705009 -20.159254 0
M  V30 67 H 12.648967 5.631431 -21.996615 0
M  V30 68 H 7.520634 6.107748 -15.517355 0
M  V30 69 H 10.242674 8.343323 -20.021579 0
M  V30 70 H 10.478000 7.687188 -21.626924 0
M  V30 71 H 15.705564 8.583280 -21.563376 0
M  V30 72 H 14.436352 8.487338 -20.378656 0
M  V30 73 H 11.266473 8.314246 -8.866711 0
M  V30 74 H 11.973160 7.622857 -10.328168 0
M  V30 75 H 11.460652 9.307139 -10.287520 0
M  V30 76 H 8.582553 3.418817 -16.387334 0
M  V30 77 H 8.603918 4.657804 -17.604043 0
M  V30 78 H 5.004142 8.298724 -18.525827 0
M  V30 79 H 4.187819 6.762639 -18.234548 0
M  V30 80 H 4.686056 7.763762 -16.878081 0
M  V30 81 H 9.075454 8.556726 -9.986053 0
M  V30 82 H 13.504009 4.684569 -17.759657 0
M  V30 83 H 12.787284 3.143040 -17.952817 0
M  V30 84 H 11.995257 5.069493 -16.031686 0
M  V30 85 H 11.258439 3.520538 -16.300362 0
M  V30 86 H 14.815234 6.558895 -22.719383 0
M  V30 87 H 14.649130 4.595830 -21.286758 0
M  V30 88 H 8.141838 7.709651 -13.378174 0
M  V30 89 H 7.552545 8.375891 -11.880886 0
M  V30 90 H 10.650903 4.112127 -18.593283 0
M  V30 91 H 18.681426 5.813359 -18.711207 0
M  V30 92 H 18.662357 6.417191 -17.108565 0
M  V30 93 H 15.449150 4.037631 -18.325082 0
M  V30 94 H 17.265172 4.571454 -16.985033 0
M  V30 95 H 16.162747 5.894862 -16.976439 0
M  V30 96 H 4.673235 4.938719 -12.512888 0
M  V30 97 H 5.581618 4.714674 -11.043370 0
M  V30 98 H 5.040874 6.321157 -11.475168 0
M  V30 99 H 16.798338 6.633747 -20.755520 0
M  V30 100 H 19.637514 8.380332 -18.876136 0
M  V30 101 H 18.798876 7.790751 -20.294781 0
M  V30 102 H 6.464983 6.384276 -13.426687 0
M  V30 103 H 14.582625 6.232984 -18.761579 0
M  V30 104 H 11.012101 5.446352 -20.561558 0
M  V30 105 H 9.841164 6.169935 -16.091347 0
M  V30 106 H 9.926220 4.949566 -14.878842 0
M  V30 107 H 18.381393 5.175986 -20.820055 0
M  V30 108 H 18.856676 3.392877 -20.814977 0
M  V30 109 H 18.188347 10.279425 -18.857123 0
M  V30 END ATOM
M  V30 BEGIN BOND
M  V30 1 1 7 2
M  V30 2 1 8 3
M  V30 3 1 12 9
M  V30 4 1 14 2
M  V30 5 1 14 3
M  V30 6 1 19 6
M  V30 7 1 20 14
M  V30 8 1 21 7
M  V30 9 1 22 7
M  V30 10 1 23 5
M  V30 11 1 23 18
M  V30 12 1 24 4
M  V30 13 1 26 22
M  V30 14 2 28 25
M  V30 15 1 29 12
M  V30 16 1 29 16
M  V30 17 1 29 17
M  V30 18 1 30 4
M  V30 19 1 30 12
M  V30 20 2 31 13
M  V30 21 1 31 15
M  V30 22 1 31 26
M  V30 23 2 32 22
M  V30 24 1 34 5
M  V30 25 1 35 1
M  V30 26 1 35 24
M  V30 27 1 35 27
M  V30 28 1 36 6
M  V30 29 1 37 10
M  V30 30 1 38 36
M  V30 31 1 38 37
M  V30 32 1 40 17
M  V30 33 1 40 19
M  V30 34 1 41 6
M  V30 35 1 41 11
M  V30 36 1 42 10
M  V30 37 1 43 8
M  V30 38 1 43 39
M  V30 39 1 44 23
M  V30 40 1 44 28
M  V30 41 2 44 33
M  V30 42 1 45 30
M  V30 43 1 45 37
M  V30 44 1 45 40
M  V30 45 1 46 28
M  V30 46 1 46 34
M  V30 47 1 46 43
M  V30 48 1 47 1
M  V30 49 1 47 9
M  V30 50 1 47 15
M  V30 51 1 48 20
M  V30 52 1 48 27
M  V30 53 1 49 10
M  V30 54 1 49 42
M  V30 55 1 50 1
M  V30 56 1 51 1
M  V30 57 1 52 2
M  V30 58 1 53 2
M  V30 59 1 54 3
M  V30 60 1 55 3
M  V30 61 1 56 4
M  V30 62 1 57 4
M  V30 63 1 58 5
M  V30 64 1 59 5
M  V30 65 1 6 60 CFG=1
M  V30 66 1 7 61 CFG=1
M  V30 67 1 62 8
M  V30 68 1 63 8
M  V30 69 1 10 64 CFG=1
M  V30 70 1 65 11
M  V30 71 1 66 11
M  V30 72 1 12 67 CFG=3
M  V30 73 1 14 68 CFG=1
M  V30 74 1 69 15
M  V30 75 1 70 15
M  V30 76 1 71 17
M  V30 77 1 72 17
M  V30 78 1 73 18
M  V30 79 1 74 18
M  V30 80 1 75 18
M  V30 81 1 76 20
M  V30 82 1 77 20
M  V30 83 1 78 21
M  V30 84 1 79 21
M  V30 85 1 80 21
M  V30 86 1 23 81 CFG=1
M  V30 87 1 82 24
M  V30 88 1 83 24
M  V30 89 1 84 27
M  V30 90 1 85 27
M  V30 91 1 29 86 CFG=3
M  V30 92 1 30 87 CFG=3
M  V30 93 1 88 34
M  V30 94 1 89 34
M  V30 95 1 35 90 CFG=3
M  V30 96 1 91 36
M  V30 97 1 92 36
M  V30 98 1 37 93 CFG=1
M  V30 99 1 94 38
M  V30 100 1 95 38
M  V30 101 1 96 39
M  V30 102 1 97 39
M  V30 103 1 98 39
M  V30 104 1 40 99 CFG=3
M  V30 105 1 100 41
M  V30 106 1 101 41
M  V30 107 1 43 102 CFG=3
M  V30 108 1 45 103 CFG=1
M  V30 109 1 47 104 CFG=3
M  V30 110 1 105 48
M  V30 111 1 106 48
M  V30 112 1 107 49
M  V30 113 1 108 49
M  V30 114 1 109 11
M  V30 END BOND
M  V30 END CTAB
M  END
>  <i_epik_Tot_Q>  (1) 
1

>  <i_epik_Tot_abs_Q>  (1) 
1

>  <i_i_glide_confnum>  (1) 
351

>  <i_i_glide_lignum>  (1) 
88

>  <i_i_glide_posenum>  (1) 
298

>  <i_i_glide_rotatable_bonds>  (1) 
6

>  <i_lp_mmshare_version>  (1) 
72125

>  <i_m_source_file_index>  (1) 
35

>  <i_f3d_flags>  (1) 
0

>  <num_sample>  (1) 
50

>  <b_lp_Chiralities_Consistent>  (1) 
1

>  <r_epik_Charging_Adjusted_Penalty>  (1) 
0.0091647518509246212

>  <r_epik_Ionization_Penalty>  (1) 
0.0045823761218381463

>  <r_epik_Ionization_Penalty_Charging>  (1) 
0.0045823759254623037

>  <r_epik_Ionization_Penalty_Neutral>  (1) 
1.9637584269267853e-10

>  <r_epik_State_Penalty>  (1) 
0.0045823759254623184

>  <r_glide_ring_energy>  (1) 
0

>  <r_i_docking_score>  (1) 
-4.0308371740069528

>  <r_i_glide_ecoul>  (1) 
-0.31734790490041997

>  <r_i_glide_eff_state_penalty>  (1) 
0.0045823759254623184

>  <r_i_glide_einternal>  (1) 
33.6896380332077

>  <r_i_glide_emodel>  (1) 
-12.964966943225136

>  <r_i_glide_emodel_strain>  (1) 
3.9710603726271074

>  <r_i_glide_energy>  (1) 
-31.865684169522488

>  <r_i_glide_erotb>  (1) 
0.051949520036259446

>  <r_i_glide_esite>  (1) 
-0.25417246804358101

>  <r_i_glide_evdw>  (1) 
-31.548336264622069

>  <r_i_glide_gscore>  (1) 
-4.0354195499324153

>  <r_i_glide_gscore_strain>  (1) 
0

>  <r_i_glide_hbond>  (1) 
0

>  <r_i_glide_ligand_efficiency>  (1) 
-0.08226198314299904

>  <r_i_glide_ligand_efficiency_ln>  (1) 
-0.82399534904497362

>  <r_i_glide_ligand_efficiency_sa>  (1) 
-0.30102174463298986

>  <r_i_glide_lipo>  (1) 
-1.6390888846020506

>  <r_i_glide_metal>  (1) 
-0

>  <r_i_glide_rewards>  (1) 
-0.56908871835687691

>  <r_lp_Energy>  (1) 
80.647393999999991

>  <r_lp_tautomer_probability>  (1) 
0.99995000000000001

>  <s_epik_cmdline>  (1) 
J2VwaWtfcHl0aG9uJywgJy1waHQnLCAnMS4wJywgJy1waCcsICc3LjQnLCAnLXRuJywgJzgnLCAnLW1hJywgJzUwMCcsICctaW1hZScsICc8aW5maWxlLm1hZT4nLCAnLW9tYWUnLCAnPG91dGZpbGUubWFlPic=

>  <s_epik_input>  (1) 
W0NIMl0xT1tDQEBIXTFbQ0BIXTJbQ0gyXVtDSDJdW0NASF0oW0NIMl1bTkgyXSlPW0NASF0oW0NIMl1bQ0BASF0zRilbQ0BIXTJbQ0BIXShbQ0BIXTM0KVtDSDJdW0NIMl1bQ0BASF01W0NIMl1bQ0BIXShPNClbQ0gyXUMoPU8pT0MoPU8pW0NAQEhdKFtDSDNdKVtDSDJdW0NASF0oW0NIMl1bQ0gyXVtDSDJdNSlbQ0gyXVtDSDJdW0NAQEhdKFtDSDNdKU4oQyg9TylDNj1PKVtDSDJdW0NIMl1bQ0BASF02W0NIM10=

>  <s_glide_docking_method>  (1) 
confgen

>  <s_i_glide_gridfile>  (1) 
gpcr_drd2_6luq_protein_autoprepared_prepared

>  <s_lp_Force_Field>  (1) 
S-OPLS

>  <s_lp_Variant>  (1) 
DiffSBDD_34_num_sample_50-2

>  <s_m_source_file>  (1) 
generated__ligand_DiffSBDD_2026-05-06_prepared.sdf

>  <GenAI_Model>  (1) 
DiffSBDD

>  <Protein>  (1) 
generic_title2

$$$$
DiffSBDD_2_num_sample_50
     RDKit          3D

  0  0  0  0  0  0  0  0  0  0999 V3000
M  V30 BEGIN CTAB
M  V30 COUNTS 55 58 0 0 1
M  V30 BEGIN ATOM
M  V30 1 C 9.618441 5.878836 -8.664432 0 CFG=1
M  V30 2 C 9.657923 6.598675 -11.450554 0
M  V30 3 O 11.376709 7.635210 -10.245483 0 CHG=-1
M  V30 4 C 7.601235 4.339894 -16.475441 0
M  V30 5 O 8.203730 0.117135 -15.321198 0
M  V30 6 C 8.050122 0.570030 -16.560011 0
M  V30 7 C 10.910266 9.413330 -5.840151 0
M  V30 8 C 7.380222 0.298267 -14.304818 0
M  V30 9 C 11.604156 8.842960 -7.080729 0
M  V30 10 O 6.234910 1.501396 -12.752427 0
M  V30 11 C 7.839600 1.851674 -16.884057 0
M  V30 12 C 7.864312 3.464442 -18.722467 0
M  V30 13 C 6.970762 1.485598 -13.872217 0
M  V30 14 C 8.126336 4.931865 -10.479039 0
M  V30 15 N 9.434840 7.272509 -9.043657 0 CFG=2 CHG=1
M  V30 16 C 10.070652 7.625382 -10.349767 0 CFG=2
M  V30 17 C 11.358941 7.344843 -7.287471 0
M  V30 18 C 7.727856 4.553588 -17.795079 0
M  V30 19 C 7.534336 6.071773 -12.591259 0
M  V30 20 N 8.258133 6.152558 -11.304266 0
M  V30 21 C 7.270347 2.789137 -14.524567 0
M  V30 22 C 7.947821 4.938263 -13.538535 0
M  V30 23 N 7.054512 3.929513 -13.690702 0
M  V30 24 C 7.914195 2.195967 -18.299806 0
M  V30 25 C 7.604841 2.967265 -15.894241 0
M  V30 26 C 9.927995 6.988856 -7.688508 0 CFG=2
M  V30 27 O 9.042606 4.969306 -14.100476 0
M  V30 28 C 8.306468 5.188167 -8.959285 0
M  V30 29 H 10.494095 5.408269 -9.091650 0
M  V30 30 H 10.308090 5.727397 -11.491724 0
M  V30 31 H 9.804769 7.092994 -12.411549 0
M  V30 32 H 7.460040 5.194991 -15.854293 0
M  V30 33 H 8.240859 -0.203079 -17.289989 0
M  V30 34 H 11.092236 10.484871 -5.747955 0
M  V30 35 H 11.271885 8.932941 -4.930575 0
M  V30 36 H 9.834849 9.259818 -5.891668 0
M  V30 37 H 7.146343 -0.630708 -13.808634 0
M  V30 38 H 11.289102 9.369298 -7.979693 0
M  V30 39 H 12.676916 9.017388 -6.997105 0
M  V30 40 H 6.163556 2.394282 -12.465841 0
M  V30 41 H 7.933187 3.674418 -19.780066 0
M  V30 42 H 7.126649 4.515784 -10.610888 0
M  V30 43 H 8.819643 4.162395 -10.821390 0
M  V30 44 H 9.539683 8.542120 -10.608881 0
M  V30 45 H 12.069375 6.969294 -8.012999 0
M  V30 46 H 11.589353 6.809967 -6.366020 0
M  V30 47 H 7.702160 5.566671 -18.170452 0
M  V30 48 H 7.637718 7.018175 -13.124616 0
M  V30 49 H 6.467795 5.985935 -12.378663 0
M  V30 50 H 6.239121 3.919273 -13.100241 0
M  V30 51 H 8.029071 1.406442 -19.028425 0
M  V30 52 H 9.152705 7.248689 -6.970383 0
M  V30 53 H 8.284201 4.247944 -8.408887 0
M  V30 54 H 7.470616 5.769301 -8.573953 0
M  V30 55 H 8.424182 7.443857 -9.091639 0
M  V30 END ATOM
M  V30 BEGIN BOND
M  V30 1 1 6 5
M  V30 2 1 8 5
M  V30 3 1 9 7
M  V30 4 2 11 6
M  V30 5 2 13 8
M  V30 6 1 13 10
M  V30 7 1 15 1
M  V30 8 1 16 2
M  V30 9 1 16 3
M  V30 10 1 16 15
M  V30 11 1 17 9
M  V30 12 2 18 4
M  V30 13 1 18 12
M  V30 14 1 20 2
M  V30 15 1 20 14
M  V30 16 1 20 19
M  V30 17 1 21 13
M  V30 18 1 22 19
M  V30 19 1 23 21
M  V30 20 1 23 22
M  V30 21 1 24 11
M  V30 22 2 24 12
M  V30 23 1 25 4
M  V30 24 1 25 11
M  V30 25 2 25 21
M  V30 26 1 26 1
M  V30 27 1 26 15
M  V30 28 1 26 17
M  V30 29 2 27 22
M  V30 30 1 28 1
M  V30 31 1 28 14
M  V30 32 1 1 29 CFG=3
M  V30 33 1 30 2
M  V30 34 1 31 2
M  V30 35 1 32 4
M  V30 36 1 33 6
M  V30 37 1 34 7
M  V30 38 1 35 7
M  V30 39 1 36 7
M  V30 40 1 37 8
M  V30 41 1 38 9
M  V30 42 1 39 9
M  V30 43 1 40 10
M  V30 44 1 41 12
M  V30 45 1 42 14
M  V30 46 1 43 14
M  V30 47 1 16 44 CFG=3
M  V30 48 1 45 17
M  V30 49 1 46 17
M  V30 50 1 47 18
M  V30 51 1 48 19
M  V30 52 1 49 19
M  V30 53 1 50 23
M  V30 54 1 51 24
M  V30 55 1 26 52 CFG=1
M  V30 56 1 53 28
M  V30 57 1 54 28
M  V30 58 1 15 55 CFG=1
M  V30 END BOND
M  V30 END CTAB
M  END
>  <i_epik_Tot_Q>  (1) 
0

>  <i_epik_Tot_abs_Q>  (1) 
2

>  <i_i_glide_confnum>  (1) 
12

>  <i_i_glide_lignum>  (1) 
9

>  <i_i_glide_posenum>  (1) 
288

>  <i_i_glide_rotatable_bonds>  (1) 
7

>  <i_lp_mmshare_version>  (1) 
72125

>  <i_m_source_file_index>  (1) 
3

>  <i_f3d_flags>  (1) 
0

>  <num_sample>  (1) 
50

>  <b_lp_Chiralities_Consistent>  (1) 
1

>  <r_epik_Charging_Adjusted_Penalty>  (1) 
1.1352312410036836

>  <r_epik_Ionization_Penalty>  (1) 
1.1482633258778028

>  <r_epik_Ionization_Penalty_Charging>  (1) 
0.01211088635150746

>  <r_epik_Ionization_Penalty_Neutral>  (1) 
1.1361524395262954

>  <r_epik_State_Penalty>  (1) 
1.1231203546521762

>  <r_glide_ring_energy>  (1) 
0

>  <r_i_docking_score>  (1) 
-4.0291702641621727

>  <r_i_glide_ecoul>  (1) 
-4.7783317323304084

>  <r_i_glide_eff_state_penalty>  (1) 
1.1231203546521762

>  <r_i_glide_einternal>  (1) 
2.3990463221494025

>  <r_i_glide_emodel>  (1) 
-51.064588796640997

>  <r_i_glide_emodel_strain>  (1) 
0

>  <r_i_glide_energy>  (1) 
-37.408435025555619

>  <r_i_glide_erotb>  (1) 
0.65461972943922775

>  <r_i_glide_esite>  (1) 
-0.17412818818350773

>  <r_i_glide_evdw>  (1) 
-32.630103293225211

>  <r_i_glide_gscore>  (1) 
-5.1522906188143489

>  <r_i_glide_gscore_strain>  (1) 
0

>  <r_i_glide_hbond>  (1) 
-0.20000000000000001

>  <r_i_glide_ligand_efficiency>  (1) 
-0.14389893800579187

>  <r_i_glide_ligand_efficiency_ln>  (1) 
-0.93005079854811001

>  <r_i_glide_ligand_efficiency_sa>  (1) 
-0.43696192821300733

>  <r_i_glide_lipo>  (1) 
-1.7159442867756916

>  <r_i_glide_metal>  (1) 
-0

>  <r_i_glide_rewards>  (1) 
-1.3685829487835544

>  <r_lp_Energy>  (1) 
91.512348000000003

>  <s_epik_Chemistry_Notes>  (1) 
This compound contains an acetal/aminal-like group ( X-CH(R)-Y where X, Y are N, S, or O) that may be acid/base labile, releasing an aldehyde.

>  <s_epik_cmdline>  (1) 
J2VwaWtfcHl0aG9uJywgJy1waHQnLCAnMS4wJywgJy1waCcsICc3LjQnLCAnLXRuJywgJzgnLCAnLW1hJywgJzUwMCcsICctaW1hZScsICc8aW5maWxlLm1hZT4nLCAnLW9tYWUnLCAnPG91dGZpbGUubWFlPic=

>  <s_epik_input>  (1) 
W0NIM11bQ0gyXVtDSDJdW0NIXTFOKFtDQEBIXTEyKVtDQEBIXShbT0hdKVtDSDJdTihbQ0gyXVtDSDJdMilbQ0gyXUMoPU8pW05IXUMoQyhbT0hdKT1bQ0hdT1tDSF09Myk9YyhjMzQpW2NIXVtjSF1bY0hdW2NIXTQ=

>  <s_glide_docking_method>  (1) 
confgen

>  <s_i_glide_gridfile>  (1) 
gpcr_drd2_6luq_protein_autoprepared_prepared

>  <s_lp_Force_Field>  (1) 
S-OPLS

>  <s_lp_Variant>  (1) 
DiffSBDD_2_num_sample_50-4

>  <s_m_source_file>  (1) 
generated__ligand_DiffSBDD_2026-05-06_prepared.sdf

>  <GenAI_Model>  (1) 
DiffSBDD

>  <Protein>  (1) 
generic_title2

$$$$
DiffSBDD_10_num_sample_50
     RDKit          3D

  0  0  0  0  0  0  0  0  0  0999 V3000
M  V30 BEGIN CTAB
M  V30 COUNTS 72 73 0 0 1
M  V30 BEGIN ATOM
M  V30 1 C 13.574234 4.515841 -17.854238 0 CFG=2
M  V30 2 C 8.810411 6.584891 -12.572916 0
M  V30 3 C 6.777950 2.712716 -13.977384 0
M  V30 4 C 8.402949 3.188354 -17.476596 0 CFG=1
M  V30 5 C 12.362870 5.050330 -18.661002 0 CFG=2
M  V30 6 N 6.423998 6.969307 -12.691678 0
M  V30 7 N 10.276767 2.467980 -18.756564 0
M  V30 8 C 10.246213 3.885941 -18.886391 0 CFG=1
M  V30 9 S 14.849565 5.808801 -17.353183 0
M  V30 10 C 9.149914 7.836788 -11.782428 0
M  V30 11 S 16.613600 4.969246 -18.177914 0 CHG=-1
M  V30 12 C 14.749721 2.545085 -16.678374 0
M  V30 13 O 8.549507 5.369332 -7.891624 0
M  V30 14 O 14.636237 7.094272 -18.032477 0
M  V30 15 C 13.476104 4.259277 -19.336448 0 CFG=2
M  V30 16 C 6.055328 3.972396 -11.843394 0
M  V30 17 C 9.557207 2.165201 -17.531307 0 CFG=2
M  V30 18 N 9.034839 6.569285 -9.659244 0 CHG=1
M  V30 19 N 7.345449 5.063600 -13.665194 0
M  V30 20 C 9.859411 7.488484 -10.464409 0
M  V30 21 C 8.822326 5.769525 -17.886306 0
M  V30 22 C 13.469045 3.375627 -16.841758 0
M  V30 23 C 12.060973 6.472324 -19.105409 0
M  V30 24 C 7.989035 3.635517 -16.051653 0
M  V30 25 C 6.781199 4.004183 -13.208642 0
M  V30 26 O 13.065365 2.969430 -19.755539 0
M  V30 27 C 7.567324 6.236248 -12.954057 0
M  V30 28 O 15.005901 5.769247 -15.891678 0
M  V30 29 F 9.133341 0.902392 -17.539303 0
M  V30 30 N 6.759001 4.569304 -10.716642 0
M  V30 31 C 9.565831 6.234216 -8.334054 0
M  V30 32 C 8.851139 4.328985 -18.421144 0 CFG=2
M  V30 33 O 11.217278 4.443160 -18.052380 0
M  V30 34 C 7.311270 2.549426 -15.221803 0
M  V30 35 H 9.641792 5.942865 -12.831986 0
M  V30 36 H 6.310792 1.878684 -13.473814 0
M  V30 37 H 7.528311 2.730265 -17.941604 0
M  V30 38 H 6.450925 7.825851 -12.155693 0
M  V30 39 H 11.229092 2.125628 -18.720518 0
M  V30 40 H 10.436939 4.179882 -19.919352 0
M  V30 41 H 8.257494 8.428218 -11.575793 0
M  V30 42 H 9.797547 8.465080 -12.390286 0
M  V30 43 H 14.569157 1.670225 -16.056972 0
M  V30 44 H 15.113461 2.192520 -17.643917 0
M  V30 45 H 15.544541 3.117762 -16.201966 0
M  V30 46 H 7.883116 5.889934 -7.455166 0
M  V30 47 H 14.167380 4.756371 -20.014738 0
M  V30 48 H 5.089814 4.466319 -11.953356 0
M  V30 49 H 5.834898 2.939366 -11.577276 0
M  V30 50 H 10.237534 2.291670 -16.691670 0
M  V30 51 H 8.856785 5.716610 -10.173521 0
M  V30 52 H 10.047265 8.400661 -9.896411 0
M  V30 53 H 10.826138 7.025045 -10.665276 0
M  V30 54 H 9.436209 5.881010 -16.992206 0
M  V30 55 H 9.183105 6.473966 -18.633537 0
M  V30 56 H 7.806588 6.075567 -17.637229 0
M  V30 57 H 13.174571 3.809066 -15.891663 0
M  V30 58 H 12.665159 2.699893 -17.127810 0
M  V30 59 H 12.878083 6.883394 -19.696335 0
M  V30 60 H 11.178837 6.488464 -19.743090 0
M  V30 61 H 11.879060 7.113619 -18.242023 0
M  V30 62 H 7.268747 4.447182 -16.147690 0
M  V30 63 H 8.863175 4.016368 -15.522819 0
M  V30 64 H 12.772866 3.027792 -20.652590 0
M  V30 65 H 6.773010 5.565660 -10.899542 0
M  V30 66 H 6.208581 4.459752 -9.870797 0
M  V30 67 H 9.659610 7.107703 -7.687105 0
M  V30 68 H 10.521987 5.714040 -8.403829 0
M  V30 69 H 8.212623 4.292400 -19.305569 0
M  V30 70 H 7.257903 1.572984 -15.682270 0
M  V30 71 H 5.513304 6.666156 -13.003925 0
M  V30 72 H 8.127104 7.047067 -9.506811 0
M  V30 END ATOM
M  V30 BEGIN BOND
M  V30 1 1 5 1
M  V30 2 1 8 7
M  V30 3 1 9 1
M  V30 4 1 10 2
M  V30 5 1 11 9
M  V30 6 2 14 9
M  V30 7 1 15 1
M  V30 8 1 15 5
M  V30 9 1 17 4
M  V30 10 1 17 7
M  V30 11 1 20 10
M  V30 12 1 20 18
M  V30 13 1 1 22 CFG=1
M  V30 14 1 22 12
M  V30 15 1 23 5
M  V30 16 1 24 4
M  V30 17 1 25 3
M  V30 18 1 25 16
M  V30 19 2 25 19
M  V30 20 1 26 15
M  V30 21 2 27 2
M  V30 22 1 27 6
M  V30 23 1 27 19
M  V30 24 2 28 9
M  V30 25 1 29 17
M  V30 26 1 30 16
M  V30 27 1 31 13
M  V30 28 1 31 18
M  V30 29 1 32 4
M  V30 30 1 32 8
M  V30 31 1 32 21
M  V30 32 1 5 33 CFG=1
M  V30 33 1 33 8
M  V30 34 2 34 3
M  V30 35 1 34 24
M  V30 36 1 35 2
M  V30 37 1 36 3
M  V30 38 1 4 37 CFG=3
M  V30 39 1 38 6
M  V30 40 1 39 7
M  V30 41 1 8 40 CFG=3
M  V30 42 1 41 10
M  V30 43 1 42 10
M  V30 44 1 43 12
M  V30 45 1 44 12
M  V30 46 1 45 12
M  V30 47 1 46 13
M  V30 48 1 15 47 CFG=3
M  V30 49 1 48 16
M  V30 50 1 49 16
M  V30 51 1 17 50 CFG=1
M  V30 52 1 51 18
M  V30 53 1 52 20
M  V30 54 1 53 20
M  V30 55 1 54 21
M  V30 56 1 55 21
M  V30 57 1 56 21
M  V30 58 1 57 22
M  V30 59 1 58 22
M  V30 60 1 59 23
M  V30 61 1 60 23
M  V30 62 1 61 23
M  V30 63 1 62 24
M  V30 64 1 63 24
M  V30 65 1 64 26
M  V30 66 1 65 30
M  V30 67 1 66 30
M  V30 68 1 67 31
M  V30 69 1 68 31
M  V30 70 1 32 69 CFG=3
M  V30 71 1 70 34
M  V30 72 1 71 6
M  V30 73 1 72 18
M  V30 END BOND
M  V30 END CTAB
M  END
>  <i_epik_Tot_Q>  (1) 
0

>  <i_epik_Tot_abs_Q>  (1) 
2

>  <i_i_glide_confnum>  (1) 
3333

>  <i_i_glide_lignum>  (1) 
27

>  <i_i_glide_posenum>  (1) 
210

>  <i_i_glide_rotatable_bonds>  (1) 
15

>  <i_lp_mmshare_version>  (1) 
72125

>  <i_m_source_file_index>  (1) 
11

>  <i_f3d_flags>  (1) 
0

>  <num_sample>  (1) 
50

>  <b_lp_Chiralities_Consistent>  (1) 
1

>  <r_epik_Charging_Adjusted_Penalty>  (1) 
0.33639934582642134

>  <r_epik_Ionization_Penalty>  (1) 
0.23315943830934333

>  <r_epik_Ionization_Penalty_Charging>  (1) 
0.10316865490585193

>  <r_epik_Ionization_Penalty_Neutral>  (1) 
0.12999078340349141

>  <r_epik_State_Penalty>  (1) 
0.23323069092056939

>  <r_glide_ring_energy>  (1) 
0

>  <r_i_docking_score>  (1) 
-4.0279002049642489

>  <r_i_glide_ecoul>  (1) 
-10.062129479723035

>  <r_i_glide_eff_state_penalty>  (1) 
0.23323069092056939

>  <r_i_glide_einternal>  (1) 
14.596977094954411

>  <r_i_glide_emodel>  (1) 
-45.298471306437364

>  <r_i_glide_emodel_strain>  (1) 
1.5922631686383255

>  <r_i_glide_energy>  (1) 
-41.971783498909701

>  <r_i_glide_erotb>  (1) 
0.82510599487301828

>  <r_i_glide_esite>  (1) 
-0.18989459447846807

>  <r_i_glide_evdw>  (1) 
-31.909654019186668

>  <r_i_glide_gscore>  (1) 
-4.2611308958848184

>  <r_i_glide_gscore_strain>  (1) 
0

>  <r_i_glide_hbond>  (1) 
-0.52665438382052221

>  <r_i_glide_ligand_efficiency>  (1) 
-0.11846765308718379

>  <r_i_glide_ligand_efficiency_ln>  (1) 
-0.88987613405050581

>  <r_i_glide_ligand_efficiency_sa>  (1) 
-0.38378920701088753

>  <r_i_glide_lipo>  (1) 
-0.78537261656656998

>  <r_i_glide_metal>  (1) 
-0

>  <r_i_glide_rewards>  (1) 
-0.4795131729744867

>  <r_lp_Energy>  (1) 
31.214245999999999

>  <s_epik_Chemistry_Notes>  (1) 
This compound has an imine and may undergo hydrolysis. This compound contains an acetal/aminal-like group ( X-CH(R)-Y where X, Y are N, S, or O) that may be acid/base labile, releasing an aldehyde.

>  <s_epik_cmdline>  (1) 
J2VwaWtfcHl0aG9uJywgJy1waHQnLCAnMS4wJywgJy1waCcsICc3LjQnLCAnLXRuJywgJzgnLCAnLW1hJywgJzUwMCcsICctaW1hZScsICc8aW5maWxlLm1hZT4nLCAnLW9tYWUnLCAnPG91dGZpbGUubWFlPic=

>  <s_epik_input>  (1) 
W1NIXVMoPU8pKD1PKVtDQEBdMShbQ0gyXVtDSDNdKVtDQEBdKFtDSDNdKShbQ0BASF0xW09IXSlPW0NASF0oW0NAQEhdMltDSDNdKVtOSF1bQ0BASF0oRilbQ0BIXTJbQ0gyXS9bQ0hdPVtDSF1cQyhbQ0gyXVtOSDJdKT1OXEMoPU5cW0hdKVxbQ0gyXVtDSDJdW0NIMl1bTkhdW0NIMl1bT0hd

>  <s_glide_docking_method>  (1) 
confgen

>  <s_i_glide_gridfile>  (1) 
gpcr_drd2_6luq_protein_autoprepared_prepared

>  <s_lp_Force_Field>  (1) 
S-OPLS

>  <s_lp_Variant>  (1) 
DiffSBDD_10_num_sample_50-7

>  <s_m_source_file>  (1) 
generated__ligand_DiffSBDD_2026-05-06_prepared.sdf

>  <GenAI_Model>  (1) 
DiffSBDD

>  <Protein>  (1) 
generic_title2

$$$$
DiffSBDD_43_num_sample_50
     RDKit          3D

  0  0  0  0  0  0  0  0  0  0999 V3000
M  V30 BEGIN CTAB
M  V30 COUNTS 58 58 0 0 1
M  V30 BEGIN ATOM
M  V30 1 C 8.814155 4.892036 -12.902549 0
M  V30 2 C 11.552094 7.464044 -6.251757 0
M  V30 3 N 4.683751 6.563863 -17.868928 0
M  V30 4 O 5.186903 5.769300 -14.118944 0
M  V30 5 C 9.673005 5.826207 -10.730440 0
M  V30 6 C 10.667392 6.790076 -8.536027 0 CFG=2
M  V30 7 C 6.097715 5.425336 -11.928197 0 CFG=1
M  V30 8 O 9.608495 8.556231 -7.197929 0
M  V30 9 O 12.234853 6.586145 -2.871032 0
M  V30 10 N 7.235408 5.767674 -11.091668 0
M  V30 11 C 11.834841 7.187047 -3.800255 0
M  V30 12 F 5.034842 5.369354 -11.133224 0
M  V30 13 O 9.142783 5.369233 -14.009335 0
M  V30 14 C 6.558620 5.811354 -19.322527 0
M  V30 15 C 5.340529 6.770098 -16.581929 0 CFG=1
M  V30 16 C 5.834852 6.442892 -13.056811 0
M  V30 17 C 8.544124 5.898287 -11.763262 0 CFG=2
M  V30 18 C 9.435064 6.660780 -9.454295 0
M  V30 19 O 6.234843 5.122971 -14.979333 0
M  V30 20 C 10.295838 7.322649 -7.123486 0 CFG=2
M  V30 21 F 4.634844 6.829689 -20.100714 0
M  V30 22 C 6.411669 5.723944 -16.210951 0
M  V30 23 C 11.329853 7.861827 -4.810928 0
M  V30 24 O 8.662933 3.674786 -12.657330 0 CHG=-1
M  V30 25 C 7.451815 5.365737 -16.986544 0
M  V30 26 C 7.740905 5.935871 -18.360322 0
M  V30 27 C 11.866705 7.514192 -9.219224 0
M  V30 28 C 11.607468 8.952950 -9.650128 0
M  V30 29 F 5.834830 8.004890 -16.522350 0
M  V30 30 C 5.464713 6.851826 -19.060160 0 CFG=1
M  V30 31 H 12.103961 6.522053 -6.291832 0
M  V30 32 H 12.195537 8.241740 -6.664241 0
M  V30 33 H 4.308991 5.628595 -17.913169 0
M  V30 34 H 10.563511 6.169323 -11.254943 0
M  V30 35 H 9.834850 4.785575 -10.442772 0
M  V30 36 H 11.006619 5.769736 -8.354173 0
M  V30 37 H 6.214914 4.416754 -12.327494 0
M  V30 38 H 8.817723 8.414909 -7.704187 0
M  V30 39 H 7.034872 6.555555 -10.466224 0
M  V30 40 H 6.936591 5.965810 -20.334068 0
M  V30 41 H 6.152828 4.798174 -19.308898 0
M  V30 42 H 4.507307 6.781648 -15.892499 0
M  V30 43 H 5.204936 7.254506 -12.691713 0
M  V30 44 H 6.739078 6.908360 -13.448082 0
M  V30 45 H 8.579672 6.894761 -12.205692 0
M  V30 46 H 8.634626 6.189838 -8.882509 0
M  V30 47 H 9.061007 7.644988 -9.731076 0
M  V30 48 H 9.616894 6.610676 -6.649158 0
M  V30 49 H 10.731420 8.745089 -4.648527 0
M  V30 50 H 8.143056 4.617849 -16.624246 0
M  V30 51 H 8.071973 6.969510 -18.291725 0
M  V30 52 H 8.583903 5.375755 -18.764994 0
M  V30 53 H 12.751162 7.497154 -8.588012 0
M  V30 54 H 12.179268 6.969297 -10.103772 0
M  V30 55 H 12.453244 9.352123 -10.210702 0
M  V30 56 H 10.735340 8.969303 -10.294368 0
M  V30 57 H 11.435018 9.611036 -8.800645 0
M  V30 58 H 5.865070 7.863835 -19.023544 0
M  V30 END ATOM
M  V30 BEGIN BOND
M  V30 1 1 10 7
M  V30 2 2 11 9
M  V30 3 1 12 7
M  V30 4 2 13 1
M  V30 5 1 15 3
M  V30 6 1 16 4
M  V30 7 1 16 7
M  V30 8 1 17 1
M  V30 9 1 17 5
M  V30 10 1 17 10
M  V30 11 1 18 5
M  V30 12 1 18 6
M  V30 13 1 19 4
M  V30 14 1 20 2
M  V30 15 1 20 6
M  V30 16 1 20 8
M  V30 17 1 22 15
M  V30 18 1 22 19
M  V30 19 1 23 2
M  V30 20 2 23 11
M  V30 21 1 24 1
M  V30 22 2 25 22
M  V30 23 1 26 14
M  V30 24 1 26 25
M  V30 25 1 27 6
M  V30 26 1 28 27
M  V30 27 1 29 15
M  V30 28 1 30 3
M  V30 29 1 30 14
M  V30 30 1 30 21
M  V30 31 1 31 2
M  V30 32 1 32 2
M  V30 33 1 33 3
M  V30 34 1 34 5
M  V30 35 1 35 5
M  V30 36 1 6 36 CFG=1
M  V30 37 1 7 37 CFG=3
M  V30 38 1 38 8
M  V30 39 1 39 10
M  V30 40 1 40 14
M  V30 41 1 41 14
M  V30 42 1 15 42 CFG=1
M  V30 43 1 43 16
M  V30 44 1 44 16
M  V30 45 1 17 45 CFG=3
M  V30 46 1 46 18
M  V30 47 1 47 18
M  V30 48 1 20 48 CFG=1
M  V30 49 1 49 23
M  V30 50 1 50 25
M  V30 51 1 51 26
M  V30 52 1 52 26
M  V30 53 1 53 27
M  V30 54 1 54 27
M  V30 55 1 55 28
M  V30 56 1 56 28
M  V30 57 1 57 28
M  V30 58 1 30 58 CFG=1
M  V30 END BOND
M  V30 END CTAB
M  END
>  <i_epik_Tot_Q>  (1) 
-1

>  <i_epik_Tot_abs_Q>  (1) 
1

>  <i_i_glide_confnum>  (1) 
983

>  <i_i_glide_lignum>  (1) 
107

>  <i_i_glide_posenum>  (1) 
312

>  <i_i_glide_rotatable_bonds>  (1) 
15

>  <i_lp_mmshare_version>  (1) 
72125

>  <i_m_source_file_index>  (1) 
44

>  <i_f3d_flags>  (1) 
0

>  <num_sample>  (1) 
50

>  <b_lp_Chiralities_Consistent>  (1) 
1

>  <r_epik_Charging_Adjusted_Penalty>  (1) 
0.10859487374936995

>  <r_epik_Ionization_Penalty>  (1) 
0.10861046635066096

>  <r_epik_Ionization_Penalty_Charging>  (1) 
0.0014700329650535538

>  <r_epik_Ionization_Penalty_Neutral>  (1) 
0.10714043338560741

>  <r_epik_State_Penalty>  (1) 
0.1071248407843164

>  <r_glide_ring_energy>  (1) 
0

>  <r_i_docking_score>  (1) 
-4.0278637028539164

>  <r_i_glide_ecoul>  (1) 
-2.7423902409812451

>  <r_i_glide_eff_state_penalty>  (1) 
0.1071248407843164

>  <r_i_glide_einternal>  (1) 
14.77901126865814

>  <r_i_glide_emodel>  (1) 
-30.945917240902542

>  <r_i_glide_emodel_strain>  (1) 
1.2573046755368189

>  <r_i_glide_energy>  (1) 
-32.157258278558317

>  <r_i_glide_erotb>  (1) 
1.1463316203487632

>  <r_i_glide_esite>  (1) 
-0.047980799385984346

>  <r_i_glide_evdw>  (1) 
-29.414868037577072

>  <r_i_glide_gscore>  (1) 
-4.134988543638233

>  <r_i_glide_gscore_strain>  (1) 
0

>  <r_i_glide_hbond>  (1) 
-0.16

>  <r_i_glide_ligand_efficiency>  (1) 
-0.13426212342846389

>  <r_i_glide_ligand_efficiency_ln>  (1) 
-0.91517452037853242

>  <r_i_glide_ligand_efficiency_sa>  (1) 
-0.41718363423531218

>  <r_i_glide_lipo>  (1) 
-1.9199460621584803

>  <r_i_glide_metal>  (1) 
-0

>  <r_i_glide_rewards>  (1) 
-1.2712913644164916

>  <r_lp_Energy>  (1) 
15.498576999999999

>  <s_epik_cmdline>  (1) 
J2VwaWtfcHl0aG9uJywgJy1waHQnLCAnMS4wJywgJy1waCcsICc3LjQnLCAnLXRuJywgJzgnLCAnLW1hJywgJzUwMCcsICctaW1hZScsICc8aW5maWxlLm1hZT4nLCAnLW9tYWUnLCAnPG91dGZpbGUubWFlPic=

>  <s_epik_input>  (1) 
Tz1DPVtDSF1bQ0gyXVtDQEBIXShbT0hdKVtDQEhdKFtDSDJdW0NIM10pW0NIMl1bQ0gyXVtDQEBIXShDKD1PKVtPSF0pW05IXVtDQEBIXShGKVtDSDJdT09DMT1bQ0hdW0NIMl1bQ0gyXVtDQEBIXShGKVtOSF1bQ0BIXTFG

>  <s_glide_docking_method>  (1) 
confgen

>  <s_i_glide_gridfile>  (1) 
gpcr_drd2_6luq_protein_autoprepared_prepared

>  <s_lp_Force_Field>  (1) 
S-OPLS

>  <s_lp_Variant>  (1) 
DiffSBDD_43_num_sample_50-2

>  <s_m_source_file>  (1) 
generated__ligand_DiffSBDD_2026-05-06_prepared.sdf

>  <GenAI_Model>  (1) 
DiffSBDD

>  <Protein>  (1) 
generic_title2

$$$$
DiffSBDD_2_num_sample_50
     RDKit          3D

  0  0  0  0  0  0  0  0  0  0999 V3000
M  V30 BEGIN CTAB
M  V30 COUNTS 55 58 0 0 1
M  V30 BEGIN ATOM
M  V30 1 C 9.927696 7.684827 -10.619114 0 CFG=1
M  V30 2 C 8.168016 5.076180 -10.592632 0
M  V30 3 O 8.920061 5.087728 -8.393458 0 CHG=-1
M  V30 4 C 8.274269 4.380203 -17.602455 0
M  V30 5 O 4.603632 6.749267 -17.887554 0
M  V30 6 C 5.517663 6.648832 -18.852670 0
M  V30 7 C 11.262508 9.023326 -5.795205 0
M  V30 8 C 4.842753 7.254110 -16.691697 0
M  V30 9 C 11.239033 7.983574 -6.922107 0
M  V30 10 O 5.834723 7.369320 -14.654549 0
M  V30 11 C 6.663167 5.963639 -18.736848 0
M  V30 12 C 8.482693 4.894770 -19.968837 0
M  V30 13 C 5.750198 6.772192 -15.846495 0
M  V30 14 C 9.010799 6.273110 -12.547181 0
M  V30 15 N 9.434817 6.898818 -9.493694 0 CFG=1 CHG=1
M  V30 16 C 9.303400 5.431882 -9.595396 0 CFG=2
M  V30 17 C 10.735373 8.561539 -8.246266 0
M  V30 18 C 8.885053 4.177064 -18.782546 0
M  V30 19 C 7.835619 4.092292 -12.842205 0
M  V30 20 N 8.677038 4.965319 -11.967702 0
M  V30 21 C 6.719204 5.660653 -16.173040 0
M  V30 22 C 6.894214 4.802439 -13.829167 0
M  V30 23 N 7.369387 4.951849 -15.098212 0
M  V30 24 C 7.436080 5.733357 -19.951103 0
M  V30 25 C 7.160432 5.344026 -17.461968 0
M  V30 26 C 10.732380 7.523682 -9.345655 0 CFG=2
M  V30 27 O 5.788068 5.181883 -13.453646 0
M  V30 28 C 10.237210 6.922331 -11.898961 0
M  V30 29 H 9.286028 8.558592 -10.723267 0
M  V30 30 H 7.327261 5.769299 -10.533213 0
M  V30 31 H 7.757561 4.115827 -10.293823 0
M  V30 32 H 8.625587 3.829565 -16.745906 0
M  V30 33 H 5.159452 7.060241 -19.785190 0
M  V30 34 H 11.655145 8.591447 -4.874609 0
M  V30 35 H 10.256773 9.388949 -5.586104 0
M  V30 36 H 11.885225 9.880045 -6.054830 0
M  V30 37 H 4.169681 8.066277 -16.454016 0
M  V30 38 H 12.235021 7.577054 -7.085722 0
M  V30 39 H 10.609624 7.143098 -6.623838 0
M  V30 40 H 5.987057 6.674818 -14.019768 0
M  V30 41 H 9.022706 4.740026 -20.891564 0
M  V30 42 H 9.282988 6.110328 -13.587293 0
M  V30 43 H 8.155284 6.952202 -12.537068 0
M  V30 44 H 10.217640 5.009894 -9.984653 0
M  V30 45 H 9.731509 8.969302 -8.120341 0
M  V30 46 H 11.388756 9.376224 -8.558472 0
M  V30 47 H 9.701790 3.472442 -18.842002 0
M  V30 48 H 7.259708 3.373965 -12.258438 0
M  V30 49 H 8.518162 3.476839 -13.429378 0
M  V30 50 H 8.245935 4.509535 -15.325399 0
M  V30 51 H 7.149256 6.235177 -20.864520 0
M  V30 52 H 11.543095 6.801926 -9.338622 0
M  V30 53 H 10.634808 7.648806 -12.604960 0
M  V30 54 H 11.034732 6.196893 -11.773445 0
M  V30 55 H 8.605757 7.350792 -9.101734 0
M  V30 END ATOM
M  V30 BEGIN BOND
M  V30 1 1 6 5
M  V30 2 1 8 5
M  V30 3 1 9 7
M  V30 4 2 11 6
M  V30 5 2 13 8
M  V30 6 1 13 10
M  V30 7 1 15 1
M  V30 8 1 16 2
M  V30 9 1 16 3
M  V30 10 1 16 15
M  V30 11 1 17 9
M  V30 12 2 18 4
M  V30 13 1 18 12
M  V30 14 1 20 2
M  V30 15 1 20 14
M  V30 16 1 20 19
M  V30 17 1 21 13
M  V30 18 1 22 19
M  V30 19 1 23 21
M  V30 20 1 23 22
M  V30 21 1 24 11
M  V30 22 2 24 12
M  V30 23 1 25 4
M  V30 24 1 25 11
M  V30 25 2 25 21
M  V30 26 1 26 1
M  V30 27 1 26 15
M  V30 28 1 26 17
M  V30 29 2 27 22
M  V30 30 1 28 1
M  V30 31 1 28 14
M  V30 32 1 1 29 CFG=3
M  V30 33 1 30 2
M  V30 34 1 31 2
M  V30 35 1 32 4
M  V30 36 1 33 6
M  V30 37 1 34 7
M  V30 38 1 35 7
M  V30 39 1 36 7
M  V30 40 1 37 8
M  V30 41 1 38 9
M  V30 42 1 39 9
M  V30 43 1 40 10
M  V30 44 1 41 12
M  V30 45 1 42 14
M  V30 46 1 43 14
M  V30 47 1 16 44 CFG=3
M  V30 48 1 45 17
M  V30 49 1 46 17
M  V30 50 1 47 18
M  V30 51 1 48 19
M  V30 52 1 49 19
M  V30 53 1 50 23
M  V30 54 1 51 24
M  V30 55 1 26 52 CFG=3
M  V30 56 1 53 28
M  V30 57 1 54 28
M  V30 58 1 15 55 CFG=1
M  V30 END BOND
M  V30 END CTAB
M  END
>  <i_epik_Tot_Q>  (1) 
0

>  <i_epik_Tot_abs_Q>  (1) 
2

>  <i_i_glide_confnum>  (1) 
45

>  <i_i_glide_lignum>  (1) 
8

>  <i_i_glide_posenum>  (1) 
282

>  <i_i_glide_rotatable_bonds>  (1) 
7

>  <i_lp_mmshare_version>  (1) 
72125

>  <i_m_source_file_index>  (1) 
3

>  <i_f3d_flags>  (1) 
0

>  <num_sample>  (1) 
50

>  <b_lp_Chiralities_Consistent>  (1) 
1

>  <r_epik_Charging_Adjusted_Penalty>  (1) 
1.1352312410036836

>  <r_epik_Ionization_Penalty>  (1) 
1.1482633258778028

>  <r_epik_Ionization_Penalty_Charging>  (1) 
0.01211088635150746

>  <r_epik_Ionization_Penalty_Neutral>  (1) 
1.1361524395262954

>  <r_epik_State_Penalty>  (1) 
1.1231203546521762

>  <r_glide_ring_energy>  (1) 
0

>  <r_i_docking_score>  (1) 
-4.0228412390872235

>  <r_i_glide_ecoul>  (1) 
-3.1340843280882318

>  <r_i_glide_eff_state_penalty>  (1) 
1.1231203546521762

>  <r_i_glide_einternal>  (1) 
1.7551913620608843

>  <r_i_glide_emodel>  (1) 
-42.341330116061883

>  <r_i_glide_emodel_strain>  (1) 
2.7658394587979842

>  <r_i_glide_energy>  (1) 
-34.720280968623314

>  <r_i_glide_erotb>  (1) 
0.65461972943922775

>  <r_i_glide_esite>  (1) 
-0.12326851693765595

>  <r_i_glide_evdw>  (1) 
-31.586196640535086

>  <r_i_glide_gscore>  (1) 
-5.1459615937393997

>  <r_i_glide_gscore_strain>  (1) 
0

>  <r_i_glide_hbond>  (1) 
-0.1869426589821559

>  <r_i_glide_ligand_efficiency>  (1) 
-0.14367290139597227

>  <r_i_glide_ligand_efficiency_ln>  (1) 
-0.92858987373256086

>  <r_i_glide_ligand_efficiency_sa>  (1) 
-0.43627554793638895

>  <r_i_glide_lipo>  (1) 
-2.0303318939951209

>  <r_i_glide_metal>  (1) 
-0

>  <r_i_glide_rewards>  (1) 
-1.4106157720237056

>  <r_lp_Energy>  (1) 
71.160493000000002

>  <s_epik_Chemistry_Notes>  (1) 
This compound contains an acetal/aminal-like group ( X-CH(R)-Y where X, Y are N, S, or O) that may be acid/base labile, releasing an aldehyde.

>  <s_epik_cmdline>  (1) 
J2VwaWtfcHl0aG9uJywgJy1waHQnLCAnMS4wJywgJy1waCcsICc3LjQnLCAnLXRuJywgJzgnLCAnLW1hJywgJzUwMCcsICctaW1hZScsICc8aW5maWxlLm1hZT4nLCAnLW9tYWUnLCAnPG91dGZpbGUubWFlPic=

>  <s_epik_input>  (1) 
W0NIM11bQ0gyXVtDSDJdW0NIXTFOKFtDQEBIXTEyKVtDQEBIXShbT0hdKVtDSDJdTihbQ0gyXVtDSDJdMilbQ0gyXUMoPU8pW05IXUMoQyhbT0hdKT1bQ0hdT1tDSF09Myk9YyhjMzQpW2NIXVtjSF1bY0hdW2NIXTQ=

>  <s_glide_docking_method>  (1) 
confgen

>  <s_i_glide_gridfile>  (1) 
gpcr_drd2_6luq_protein_autoprepared_prepared

>  <s_lp_Force_Field>  (1) 
S-OPLS

>  <s_lp_Variant>  (1) 
DiffSBDD_2_num_sample_50-3

>  <s_m_source_file>  (1) 
generated__ligand_DiffSBDD_2026-05-06_prepared.sdf

>  <GenAI_Model>  (1) 
DiffSBDD

>  <Protein>  (1) 
generic_title2

$$$$
DiffSBDD_35_num_sample_50
     RDKit          3D

  0  0  0  0  0  0  0  0  0  0999 V3000
M  V30 BEGIN CTAB
M  V30 COUNTS 55 58 0 0 1
M  V30 BEGIN ATOM
M  V30 1 C 8.110827 4.224011 -17.539988 0
M  V30 2 C 5.660728 2.160263 -22.043965 0
M  V30 3 C 7.103429 2.822499 -19.977666 0 CFG=1
M  V30 4 O 10.116487 4.564732 -16.291089 0
M  V30 5 C 5.040432 1.341817 -19.707818 0
M  V30 6 O 10.235068 6.569271 -11.545168 0
M  V30 7 O 6.484598 5.967668 -17.973988 0
M  V30 8 C 6.247621 5.722904 -13.650576 0 CFG=1
M  V30 9 C 7.006037 3.648683 -12.302216 0 CFG=1
M  V30 10 C 8.245684 3.217232 -13.071859 0
M  V30 11 C 6.426366 4.154599 -19.572834 0
M  V30 12 C 6.193054 1.738801 -20.650810 0
M  V30 13 C 7.164221 4.510050 -11.114082 0 CFG=1
M  V30 14 C 6.786765 6.460925 -12.477018 0 CFG=2
M  V30 15 C 6.856812 -0.268687 -19.385874 0
M  V30 16 C 9.048239 6.254866 -11.605902 0
M  V30 17 C 8.872115 5.156573 -16.576925 0 CFG=2
M  V30 18 C 8.441107 5.213762 -10.658402 0
M  V30 19 C 6.966318 4.888775 -18.322290 0
M  V30 20 O 5.489517 4.628657 -20.216115 0
M  V30 21 C 8.195709 5.584196 -15.274581 0
M  V30 22 C 6.931895 5.278342 -14.918341 0
M  V30 23 Cl 8.524697 3.182868 -21.001648 0
M  V30 24 O 8.169887 6.770058 -12.481032 0
M  V30 25 C 6.286117 5.025284 -12.262304 0 CFG=2
M  V30 26 C 5.588687 0.290398 -18.735944 0
M  V30 27 O 5.922440 7.409735 -11.891736 0
M  V30 28 C 6.943209 0.394386 -20.763589 0
M  V30 29 H 8.833384 3.856028 -18.267848 0
M  V30 30 H 7.731675 3.353704 -17.003475 0
M  V30 31 H 5.045140 1.375779 -22.486838 0
M  V30 32 H 5.033988 3.047580 -22.010798 0
M  V30 33 H 6.472777 2.360818 -22.742466 0
M  V30 34 H 7.500679 2.365122 -19.073902 0
M  V30 35 H 10.578794 5.090627 -15.654218 0
M  V30 36 H 4.634849 2.187676 -19.162575 0
M  V30 37 H 4.225458 0.905038 -20.286173 0
M  V30 38 H 5.251959 6.050465 -13.942968 0
M  V30 39 H 6.312805 2.816473 -12.194187 0
M  V30 40 H 8.957372 4.028288 -13.205952 0
M  V30 41 H 8.753128 2.417991 -12.530844 0
M  V30 42 H 7.965616 2.828583 -14.050565 0
M  V30 43 H 6.598844 4.170544 -10.247990 0
M  V30 44 H 6.831219 -1.355772 -19.463766 0
M  V30 45 H 7.728576 -0.008189 -18.784391 0
M  V30 46 H 9.116558 6.069796 -17.119655 0
M  V30 47 H 9.193287 4.459978 -10.424033 0
M  V30 48 H 8.222129 5.731743 -9.724163 0
M  V30 49 H 8.793354 6.169294 -14.616890 0
M  V30 50 H 6.336677 4.674065 -15.582401 0
M  V30 51 H 4.849730 -0.490190 -18.549459 0
M  V30 52 H 5.831816 0.745269 -17.774418 0
M  V30 53 H 6.211965 7.550476 -10.985109 0
M  V30 54 H 6.434413 -0.250682 -21.482202 0
M  V30 55 H 7.972381 0.491463 -21.109319 0
M  V30 END ATOM
M  V30 BEGIN BOND
M  V30 1 1 10 9
M  V30 2 1 11 3
M  V30 3 1 12 2
M  V30 4 1 12 3
M  V30 5 1 12 5
M  V30 6 1 13 9
M  V30 7 1 14 8
M  V30 8 2 16 6
M  V30 9 1 17 1
M  V30 10 1 17 4
M  V30 11 1 18 13
M  V30 12 1 18 16
M  V30 13 1 19 1
M  V30 14 2 19 7
M  V30 15 1 19 11
M  V30 16 2 20 11
M  V30 17 1 21 17
M  V30 18 1 22 8
M  V30 19 2 22 21
M  V30 20 1 23 3
M  V30 21 1 24 14
M  V30 22 1 24 16
M  V30 23 1 25 8
M  V30 24 1 25 9
M  V30 25 1 25 13
M  V30 26 1 25 14 CFG=1
M  V30 27 1 26 5
M  V30 28 1 26 15
M  V30 29 1 14 27 CFG=1
M  V30 30 1 28 12
M  V30 31 1 28 15
M  V30 32 1 29 1
M  V30 33 1 30 1
M  V30 34 1 31 2
M  V30 35 1 32 2
M  V30 36 1 33 2
M  V30 37 1 3 34 CFG=1
M  V30 38 1 35 4
M  V30 39 1 36 5
M  V30 40 1 37 5
M  V30 41 1 8 38 CFG=3
M  V30 42 1 9 39 CFG=1
M  V30 43 1 40 10
M  V30 44 1 41 10
M  V30 45 1 42 10
M  V30 46 1 13 43 CFG=1
M  V30 47 1 44 15
M  V30 48 1 45 15
M  V30 49 1 17 46 CFG=3
M  V30 50 1 47 18
M  V30 51 1 48 18
M  V30 52 1 49 21
M  V30 53 1 50 22
M  V30 54 1 51 26
M  V30 55 1 52 26
M  V30 56 1 53 27
M  V30 57 1 54 28
M  V30 58 1 55 28
M  V30 END BOND
M  V30 END CTAB
M  END
>  <i_epik_Tot_Q>  (1) 
0

>  <i_epik_Tot_abs_Q>  (1) 
0

>  <i_i_glide_confnum>  (1) 
464

>  <i_i_glide_lignum>  (1) 
90

>  <i_i_glide_posenum>  (1) 
240

>  <i_i_glide_rotatable_bonds>  (1) 
9

>  <i_lp_mmshare_version>  (1) 
72125

>  <i_m_source_file_index>  (1) 
36

>  <i_f3d_flags>  (1) 
0

>  <num_sample>  (1) 
50

>  <b_lp_Chiralities_Consistent>  (1) 
1

>  <r_epik_Charging_Adjusted_Penalty>  (1) 
0

>  <r_epik_Ionization_Penalty>  (1) 
1.4539570635880344e-05

>  <r_epik_Ionization_Penalty_Charging>  (1) 
0

>  <r_epik_Ionization_Penalty_Neutral>  (1) 
1.4539570635880344e-05

>  <r_epik_State_Penalty>  (1) 
-0

>  <r_glide_ring_energy>  (1) 
0.0026261030611502726

>  <r_i_docking_score>  (1) 
-4.0172795800115475

>  <r_i_glide_ecoul>  (1) 
-6.9404134366544961

>  <r_i_glide_eff_state_penalty>  (1) 
-0

>  <r_i_glide_einternal>  (1) 
13.341514811847651

>  <r_i_glide_emodel>  (1) 
-30.744544905788647

>  <r_i_glide_emodel_strain>  (1) 
1.15767187722426

>  <r_i_glide_energy>  (1) 
-33.199038610149508

>  <r_i_glide_erotb>  (1) 
0.81694813045343473

>  <r_i_glide_esite>  (1) 
-0.073189610572535646

>  <r_i_glide_evdw>  (1) 
-26.258625173495012

>  <r_i_glide_gscore>  (1) 
-4.0172795800115475

>  <r_i_glide_gscore_strain>  (1) 
0

>  <r_i_glide_hbond>  (1) 
-0.16

>  <r_i_glide_ligand_efficiency>  (1) 
-0.14347427071469812

>  <r_i_glide_ligand_efficiency_ln>  (1) 
-0.9273060795204886

>  <r_i_glide_ligand_efficiency_sa>  (1) 
-0.43567238820015575

>  <r_i_glide_lipo>  (1) 
-1.0966109218792253

>  <r_i_glide_metal>  (1) 
-0

>  <r_i_glide_rewards>  (1) 
-1.1504339038402964

>  <r_lp_Energy>  (1) 
41.196965999999996

>  <r_lp_tautomer_probability>  (1) 
1

>  <s_epik_Chemistry_Notes>  (1) 
This compound has an ester and may undergo hydrolysis at high or low pH.

>  <s_epik_cmdline>  (1) 
J2VwaWtfcHl0aG9uJywgJy1waHQnLCAnMS4wJywgJy1waCcsICc3LjQnLCAnLXRuJywgJzgnLCAnLW1hJywgJzUwMCcsICctaW1hZScsICc8aW5maWxlLm1hZT4nLCAnLW9tYWUnLCAnPG91dGZpbGUubWFlPic=

>  <s_epik_input>  (1) 
W0NIMl0xW0NIMl1bQ0gyXVtDSDJdQzEoW0NIM10pW0NAQEhdKENsKUMoPU8pQyg9TylbQ0gyXVtDQEhdKFtPSF0pL1tDSF09W0NIXS9bQ0BASF0yW0NAXTMoW09IXSlPQyg9TylbQ0gyXVtDQEBIXShDMjM0KVtDQEBIXTRbQ0gzXQ==

>  <s_glide_docking_method>  (1) 
confgen

>  <s_i_glide_gridfile>  (1) 
gpcr_drd2_6luq_protein_autoprepared_prepared

>  <s_lp_Force_Field>  (1) 
S-OPLS

>  <s_lp_Variant>  (1) 
DiffSBDD_35_num_sample_50-2

>  <s_m_source_file>  (1) 
generated__ligand_DiffSBDD_2026-05-06_prepared.sdf

>  <GenAI_Model>  (1) 
DiffSBDD

>  <Protein>  (1) 
generic_title2

$$$$
DiffSBDD_10_num_sample_50
     RDKit          3D

  0  0  0  0  0  0  0  0  0  0999 V3000
M  V30 BEGIN CTAB
M  V30 COUNTS 71 72 0 0 1
M  V30 BEGIN ATOM
M  V30 1 C 8.295199 4.249162 -17.593194 0 CFG=2
M  V30 2 C 11.274634 9.025232 -7.216333 0
M  V30 3 C 9.034847 6.569274 -10.135962 0
M  V30 4 C 7.464614 5.328153 -12.374888 0 CFG=1
M  V30 5 C 8.080037 3.425168 -16.314986 0 CFG=2
M  V30 6 N 13.030674 8.169403 -8.638773 0
M  V30 7 N 7.963497 3.214407 -13.325088 0
M  V30 8 C 6.950193 3.783012 -14.153691 0 CFG=1
M  V30 9 S 8.220362 3.233079 -19.169868 0
M  V30 10 C 12.172011 9.553438 -6.116903 0
M  V30 11 S 8.956840 4.633161 -20.580124 0 CHG=-1
M  V30 12 C 6.353305 5.856047 -18.238365 0
M  V30 13 O 12.625947 7.483755 -2.423854 0
M  V30 14 O 9.189993 2.127310 -19.115289 0
M  V30 15 C 9.479102 3.871512 -16.720878 0 CFG=2
M  V30 16 C 9.932063 6.199927 -7.782466 0
M  V30 17 C 8.596362 4.311672 -12.628477 0 CFG=2
M  V30 18 N 12.634845 9.369297 -3.718604 0
M  V30 19 N 10.823399 7.940717 -9.294626 0
M  V30 20 C 11.754225 8.923960 -4.783942 0
M  V30 21 C 5.774218 6.073628 -14.275063 0
M  V30 22 C 7.795566 5.691808 -17.738650 0
M  V30 23 C 7.617597 1.967563 -16.323747 0
M  V30 24 C 7.968133 6.790690 -12.425140 0
M  V30 25 C 9.993150 6.983106 -9.096420 0
M  V30 26 O 10.007323 4.929774 -15.931278 0
M  V30 27 C 11.709389 8.403914 -8.331045 0
M  V30 28 O 6.812218 2.956495 -19.494559 0
M  V30 29 F 9.165542 3.871192 -11.509397 0
M  V30 30 N 9.034839 6.823279 -6.821309 0
M  V30 31 C 12.241951 8.841513 -2.424944 0
M  V30 32 C 6.344596 4.957782 -13.374037 0 CFG=2
M  V30 33 O 7.463354 4.282977 -15.348708 0
M  V30 34 C 8.955981 7.179877 -11.335613 0
M  V30 35 H 10.212919 9.167415 -7.071571 0
M  V30 36 H 8.388205 5.747082 -9.876820 0
M  V30 37 H 7.033030 5.138630 -11.391782 0
M  V30 38 H 13.768881 8.606600 -8.108747 0
M  V30 39 H 8.634834 2.662997 -13.835064 0
M  V30 40 H 6.199433 3.031907 -14.385770 0
M  V30 41 H 12.049989 10.636036 -6.069599 0
M  V30 42 H 13.224500 9.369275 -6.328625 0
M  V30 43 H 6.086077 6.911964 -18.277978 0
M  V30 44 H 6.220349 5.453690 -19.241891 0
M  V30 45 H 5.645148 5.369290 -17.570248 0
M  V30 46 H 11.854638 6.947890 -2.310240 0
M  V30 47 H 10.216432 3.148632 -17.062789 0
M  V30 48 H 9.577625 5.188996 -7.984797 0
M  V30 49 H 10.926947 6.094397 -7.348588 0
M  V30 50 H 9.378392 4.738523 -13.257492 0
M  V30 51 H 13.581505 9.077473 -3.911228 0
M  V30 52 H 11.779683 7.835952 -4.860224 0
M  V30 53 H 10.727571 9.211295 -4.557671 0
M  V30 54 H 6.548605 6.568736 -14.860088 0
M  V30 55 H 5.034850 5.681069 -14.971734 0
M  V30 56 H 5.281430 6.837611 -13.674723 0
M  V30 57 H 7.860598 6.169299 -16.766630 0
M  V30 58 H 8.479685 6.245124 -18.380236 0
M  V30 59 H 8.185384 1.366810 -17.029009 0
M  V30 60 H 7.756725 1.498520 -15.351585 0
M  V30 61 H 6.563083 1.909114 -16.592663 0
M  V30 62 H 7.132638 7.486383 -12.347466 0
M  V30 63 H 8.436953 6.970665 -13.391361 0
M  V30 64 H 10.589037 4.569285 -15.277024 0
M  V30 65 H 8.106692 6.969266 -7.225876 0
M  V30 66 H 8.895129 6.217229 -6.025800 0
M  V30 67 H 11.176459 8.969312 -2.242190 0
M  V30 68 H 12.778058 9.367219 -1.635196 0
M  V30 69 H 5.515137 4.542159 -12.799411 0
M  V30 70 H 9.616913 8.003920 -11.562344 0
M  V30 71 H 13.289843 7.857581 -9.561719 0
M  V30 END ATOM
M  V30 BEGIN BOND
M  V30 1 1 5 1
M  V30 2 1 8 7
M  V30 3 1 9 1
M  V30 4 1 10 2
M  V30 5 1 11 9
M  V30 6 2 14 9
M  V30 7 1 15 1
M  V30 8 1 15 5
M  V30 9 1 17 4
M  V30 10 1 17 7
M  V30 11 1 20 10
M  V30 12 1 20 18
M  V30 13 1 1 22 CFG=3
M  V30 14 1 22 12
M  V30 15 1 23 5
M  V30 16 1 24 4
M  V30 17 1 25 3
M  V30 18 1 25 16
M  V30 19 2 25 19
M  V30 20 1 26 15
M  V30 21 2 27 2
M  V30 22 1 27 6
M  V30 23 1 27 19
M  V30 24 2 28 9
M  V30 25 1 29 17
M  V30 26 1 30 16
M  V30 27 1 31 13
M  V30 28 1 31 18
M  V30 29 1 32 4
M  V30 30 1 32 8
M  V30 31 1 32 21
M  V30 32 1 5 33 CFG=1
M  V30 33 1 33 8
M  V30 34 2 34 3
M  V30 35 1 34 24
M  V30 36 1 35 2
M  V30 37 1 36 3
M  V30 38 1 4 37 CFG=1
M  V30 39 1 38 6
M  V30 40 1 39 7
M  V30 41 1 8 40 CFG=3
M  V30 42 1 41 10
M  V30 43 1 42 10
M  V30 44 1 43 12
M  V30 45 1 44 12
M  V30 46 1 45 12
M  V30 47 1 46 13
M  V30 48 1 15 47 CFG=3
M  V30 49 1 48 16
M  V30 50 1 49 16
M  V30 51 1 17 50 CFG=3
M  V30 52 1 51 18
M  V30 53 1 52 20
M  V30 54 1 53 20
M  V30 55 1 54 21
M  V30 56 1 55 21
M  V30 57 1 56 21
M  V30 58 1 57 22
M  V30 59 1 58 22
M  V30 60 1 59 23
M  V30 61 1 60 23
M  V30 62 1 61 23
M  V30 63 1 62 24
M  V30 64 1 63 24
M  V30 65 1 64 26
M  V30 66 1 65 30
M  V30 67 1 66 30
M  V30 68 1 67 31
M  V30 69 1 68 31
M  V30 70 1 32 69 CFG=1
M  V30 71 1 70 34
M  V30 72 1 71 6
M  V30 END BOND
M  V30 END CTAB
M  END
>  <i_epik_Tot_Q>  (1) 
-1

>  <i_epik_Tot_abs_Q>  (1) 
1

>  <i_i_glide_confnum>  (1) 
209

>  <i_i_glide_lignum>  (1) 
44

>  <i_i_glide_posenum>  (1) 
382

>  <i_i_glide_rotatable_bonds>  (1) 
15

>  <i_lp_mmshare_version>  (1) 
72125

>  <i_m_source_file_index>  (1) 
11

>  <i_f3d_flags>  (1) 
0

>  <num_sample>  (1) 
50

>  <b_lp_Chiralities_Consistent>  (1) 
1

>  <r_epik_Charging_Adjusted_Penalty>  (1) 
1.239197207418439

>  <r_epik_Ionization_Penalty>  (1) 
1.2496715491914541

>  <r_epik_Ionization_Penalty_Charging>  (1) 
1.1069707349969355e-11

>  <r_epik_Ionization_Penalty_Neutral>  (1) 
1.2496715491803843

>  <r_epik_State_Penalty>  (1) 
1.2391972074073692

>  <r_glide_ring_energy>  (1) 
0

>  <r_i_docking_score>  (1) 
-4.0130810615355434

>  <r_i_glide_ecoul>  (1) 
-2.720152204927933

>  <r_i_glide_eff_state_penalty>  (1) 
1.2391972074073692

>  <r_i_glide_einternal>  (1) 
14.179360758415571

>  <r_i_glide_emodel>  (1) 
-48.269277731130479

>  <r_i_glide_emodel_strain>  (1) 
1.1161932287384957

>  <r_i_glide_energy>  (1) 
-44.733375709999038

>  <r_i_glide_erotb>  (1) 
0.82803537691766171

>  <r_i_glide_esite>  (1) 
-0.080884734783569653

>  <r_i_glide_evdw>  (1) 
-42.013223505071103

>  <r_i_glide_gscore>  (1) 
-5.2522782689429128

>  <r_i_glide_gscore_strain>  (1) 
0

>  <r_i_glide_hbond>  (1) 
-0.22480249460857202

>  <r_i_glide_ligand_efficiency>  (1) 
-0.11803179592751599

>  <r_i_glide_ligand_efficiency_ln>  (1) 
-0.88660216960421101

>  <r_i_glide_ligand_efficiency_sa>  (1) 
-0.38237719901275641

>  <r_i_glide_lipo>  (1) 
-2.0114491381831856

>  <r_i_glide_metal>  (1) 
-0

>  <r_i_glide_rewards>  (1) 
-1.2544932722925015

>  <r_lp_Energy>  (1) 
18.399373000000001

>  <s_epik_Chemistry_Notes>  (1) 
This compound has an imine and may undergo hydrolysis. This compound contains an acetal/aminal-like group ( X-CH(R)-Y where X, Y are N, S, or O) that may be acid/base labile, releasing an aldehyde.

>  <s_epik_cmdline>  (1) 
J2VwaWtfcHl0aG9uJywgJy1waHQnLCAnMS4wJywgJy1waCcsICc3LjQnLCAnLXRuJywgJzgnLCAnLW1hJywgJzUwMCcsICctaW1hZScsICc8aW5maWxlLm1hZT4nLCAnLW9tYWUnLCAnPG91dGZpbGUubWFlPic=

>  <s_epik_input>  (1) 
W1NIXVMoPU8pKD1PKVtDQEBdMShbQ0gyXVtDSDNdKVtDQEBdKFtDSDNdKShbQ0BASF0xW09IXSlPW0NASF0oW0NAQEhdMltDSDNdKVtOSF1bQ0BASF0oRilbQ0BIXTJbQ0gyXVxbQ0hdPVtDSF1cQyhbQ0gyXVtOSDJdKT1OXEMoPU5cW0hdKVxbQ0gyXVtDSDJdW0NIMl1bTkhdW0NIMl1bT0hd

>  <s_glide_docking_method>  (1) 
confgen

>  <s_i_glide_gridfile>  (1) 
gpcr_drd2_6luq_protein_autoprepared_prepared

>  <s_lp_Force_Field>  (1) 
S-OPLS

>  <s_lp_Variant>  (1) 
DiffSBDD_10_num_sample_50-24

>  <s_m_source_file>  (1) 
generated__ligand_DiffSBDD_2026-05-06_prepared.sdf

>  <GenAI_Model>  (1) 
DiffSBDD

>  <Protein>  (1) 
generic_title2

$$$$
DiffSBDD_10_num_sample_50
     RDKit          3D

  0  0  0  0  0  0  0  0  0  0999 V3000
M  V30 BEGIN CTAB
M  V30 COUNTS 72 73 0 0 1
M  V30 BEGIN ATOM
M  V30 1 C 6.869388 6.511021 -21.499322 0 CFG=2
M  V30 2 C 9.455077 6.523238 -9.280363 0
M  V30 3 C 7.652051 5.854021 -13.241534 0
M  V30 4 C 6.258278 5.924104 -15.959715 0 CFG=1
M  V30 5 C 6.194522 5.453921 -20.613200 0 CFG=2
M  V30 6 N 11.193857 7.371074 -10.723764 0
M  V30 7 N 6.976712 4.605197 -17.778973 0
M  V30 8 C 5.796908 5.278258 -18.234237 0 CFG=1
M  V30 9 S 6.311480 6.546385 -23.280399 0
M  V30 10 C 10.265648 6.568628 -8.006776 0
M  V30 11 S 4.265137 7.060520 -23.013656 0 CHG=-1
M  V30 12 C 6.448309 9.007789 -20.997583 0
M  V30 13 O 11.675327 7.083486 -4.040951 0
M  V30 14 O 6.966443 7.677827 -23.952446 0
M  V30 15 C 7.590052 5.219472 -21.153377 0 CFG=2
M  V30 16 C 8.774932 4.399985 -11.451018 0
M  V30 17 C 7.511325 5.382805 -16.681766 0 CFG=2
M  V30 18 N 10.554330 7.748606 -5.836816 0 CHG=1
M  V30 19 N 9.135684 6.836373 -11.627063 0
M  V30 20 C 9.648139 7.528290 -6.982131 0
M  V30 21 C 4.929241 7.592865 -17.519384 0
M  V30 22 C 7.449514 7.848374 -21.028459 0
M  V30 23 C 5.036811 4.535319 -21.001010 0
M  V30 24 C 6.462576 7.164334 -15.057989 0
M  V30 25 C 8.562488 5.784681 -12.076911 0
M  V30 26 O 8.561841 5.284262 -20.127178 0
M  V30 27 C 9.923675 6.895576 -10.488225 0
M  V30 28 O 6.378028 5.198928 -23.866993 0
M  V30 29 F 8.279688 4.612906 -15.914040 0
M  V30 30 N 9.034798 3.368813 -12.437421 0
M  V30 31 C 10.806609 6.552984 -5.013152 0
M  V30 32 C 5.229452 6.146038 -17.087268 0 CFG=2
M  V30 33 O 6.067540 6.083306 -19.336212 0
M  V30 34 C 7.382891 7.019100 -13.863369 0
M  V30 35 H 8.437160 6.164752 -9.189411 0
M  V30 36 H 7.215035 4.921655 -13.563759 0
M  V30 37 H 5.867204 5.109274 -15.346673 0
M  V30 38 H 11.851559 7.525000 -9.975320 0
M  V30 39 H 7.662503 4.478054 -18.516267 0
M  V30 40 H 5.051323 4.539076 -18.509920 0
M  V30 41 H 11.295008 6.856400 -8.216604 0
M  V30 42 H 10.302887 5.551221 -7.618140 0
M  V30 43 H 6.959240 9.919201 -20.693444 0
M  V30 44 H 6.004071 9.197299 -21.973514 0
M  V30 45 H 5.639584 8.815751 -20.292734 0
M  V30 46 H 11.716929 6.478002 -3.312819 0
M  V30 47 H 7.762205 4.442483 -21.895273 0
M  V30 48 H 9.613371 4.390375 -10.756018 0
M  V30 49 H 7.882099 4.140395 -10.882935 0
M  V30 50 H 8.134343 6.169166 -17.094930 0
M  V30 51 H 10.146888 8.455569 -5.243735 0
M  V30 52 H 8.683874 7.152310 -6.634693 0
M  V30 53 H 9.455519 8.495618 -7.450184 0
M  V30 54 H 5.833794 8.100978 -17.832810 0
M  V30 55 H 4.227222 7.613159 -18.354313 0
M  V30 56 H 4.481305 8.171255 -16.710377 0
M  V30 57 H 7.867880 7.741028 -20.028845 0
M  V30 58 H 8.285850 8.108334 -21.677158 0
M  V30 59 H 5.080246 4.244461 -22.047295 0
M  V30 60 H 5.072760 3.612144 -20.423667 0
M  V30 61 H 4.081095 5.027498 -20.819202 0
M  V30 62 H 5.501385 7.505840 -14.672687 0
M  V30 63 H 6.862655 7.986391 -15.649487 0
M  V30 64 H 8.371926 6.058556 -19.616652 0
M  V30 65 H 9.896426 3.593325 -12.921979 0
M  V30 66 H 9.203892 2.485732 -11.966895 0
M  V30 67 H 11.314999 5.769044 -5.569780 0
M  V30 68 H 9.888180 6.169272 -4.568212 0
M  V30 69 H 4.271398 5.736616 -16.775656 0
M  V30 70 H 7.837933 7.931502 -13.505529 0
M  V30 71 H 11.480022 7.676808 -11.641417 0
M  V30 72 H 11.437974 8.091815 -6.180432 0
M  V30 END ATOM
M  V30 BEGIN BOND
M  V30 1 1 5 1
M  V30 2 1 8 7
M  V30 3 1 9 1
M  V30 4 1 10 2
M  V30 5 1 11 9
M  V30 6 2 14 9
M  V30 7 1 15 1
M  V30 8 1 15 5
M  V30 9 1 17 4
M  V30 10 1 17 7
M  V30 11 1 20 10
M  V30 12 1 20 18
M  V30 13 1 1 22 CFG=1
M  V30 14 1 22 12
M  V30 15 1 23 5
M  V30 16 1 24 4
M  V30 17 1 25 3
M  V30 18 1 25 16
M  V30 19 2 25 19
M  V30 20 1 26 15
M  V30 21 2 27 2
M  V30 22 1 27 6
M  V30 23 1 27 19
M  V30 24 2 28 9
M  V30 25 1 29 17
M  V30 26 1 30 16
M  V30 27 1 31 13
M  V30 28 1 31 18
M  V30 29 1 32 4
M  V30 30 1 32 8
M  V30 31 1 32 21
M  V30 32 1 5 33 CFG=1
M  V30 33 1 33 8
M  V30 34 2 34 3
M  V30 35 1 34 24
M  V30 36 1 35 2
M  V30 37 1 36 3
M  V30 38 1 4 37 CFG=1
M  V30 39 1 38 6
M  V30 40 1 39 7
M  V30 41 1 8 40 CFG=3
M  V30 42 1 41 10
M  V30 43 1 42 10
M  V30 44 1 43 12
M  V30 45 1 44 12
M  V30 46 1 45 12
M  V30 47 1 46 13
M  V30 48 1 15 47 CFG=3
M  V30 49 1 48 16
M  V30 50 1 49 16
M  V30 51 1 17 50 CFG=3
M  V30 52 1 51 18
M  V30 53 1 52 20
M  V30 54 1 53 20
M  V30 55 1 54 21
M  V30 56 1 55 21
M  V30 57 1 56 21
M  V30 58 1 57 22
M  V30 59 1 58 22
M  V30 60 1 59 23
M  V30 61 1 60 23
M  V30 62 1 61 23
M  V30 63 1 62 24
M  V30 64 1 63 24
M  V30 65 1 64 26
M  V30 66 1 65 30
M  V30 67 1 66 30
M  V30 68 1 67 31
M  V30 69 1 68 31
M  V30 70 1 32 69 CFG=1
M  V30 71 1 70 34
M  V30 72 1 71 6
M  V30 73 1 72 18
M  V30 END BOND
M  V30 END CTAB
M  END
>  <i_epik_Tot_Q>  (1) 
0

>  <i_epik_Tot_abs_Q>  (1) 
2

>  <i_i_glide_confnum>  (1) 
2486

>  <i_i_glide_lignum>  (1) 
28

>  <i_i_glide_posenum>  (1) 
123

>  <i_i_glide_rotatable_bonds>  (1) 
15

>  <i_lp_mmshare_version>  (1) 
72125

>  <i_m_source_file_index>  (1) 
11

>  <i_f3d_flags>  (1) 
0

>  <num_sample>  (1) 
50

>  <b_lp_Chiralities_Consistent>  (1) 
1

>  <r_epik_Charging_Adjusted_Penalty>  (1) 
0.33639934582642134

>  <r_epik_Ionization_Penalty>  (1) 
0.23315943830934333

>  <r_epik_Ionization_Penalty_Charging>  (1) 
0.10316865490585193

>  <r_epik_Ionization_Penalty_Neutral>  (1) 
0.12999078340349141

>  <r_epik_State_Penalty>  (1) 
0.23323069092056939

>  <r_glide_ring_energy>  (1) 
0

>  <r_i_docking_score>  (1) 
-4.0128340844480723

>  <r_i_glide_ecoul>  (1) 
-3.5432622433198762

>  <r_i_glide_eff_state_penalty>  (1) 
0.23323069092056939

>  <r_i_glide_einternal>  (1) 
11.724453040009449

>  <r_i_glide_emodel>  (1) 
-42.653082300356019

>  <r_i_glide_emodel_strain>  (1) 
0.3343138740858933

>  <r_i_glide_energy>  (1) 
-36.868800331949267

>  <r_i_glide_erotb>  (1) 
0.82510599487301828

>  <r_i_glide_esite>  (1) 
-0.0095814377420715829

>  <r_i_glide_evdw>  (1) 
-33.325538088629393

>  <r_i_glide_gscore>  (1) 
-4.2460647753686418

>  <r_i_glide_gscore_strain>  (1) 
0

>  <r_i_glide_hbond>  (1) 
-0.14284899306339735

>  <r_i_glide_ligand_efficiency>  (1) 
-0.11802453189553154

>  <r_i_glide_ligand_efficiency_ln>  (1) 
-0.88654760543811595

>  <r_i_glide_ligand_efficiency_sa>  (1) 
-0.38235366636901474

>  <r_i_glide_lipo>  (1) 
-1.5587854511092629

>  <r_i_glide_metal>  (1) 
-0

>  <r_i_glide_rewards>  (1) 
-1.1621886473974767

>  <r_lp_Energy>  (1) 
20.579340999999999

>  <s_epik_Chemistry_Notes>  (1) 
This compound has an imine and may undergo hydrolysis. This compound contains an acetal/aminal-like group ( X-CH(R)-Y where X, Y are N, S, or O) that may be acid/base labile, releasing an aldehyde.

>  <s_epik_cmdline>  (1) 
J2VwaWtfcHl0aG9uJywgJy1waHQnLCAnMS4wJywgJy1waCcsICc3LjQnLCAnLXRuJywgJzgnLCAnLW1hJywgJzUwMCcsICctaW1hZScsICc8aW5maWxlLm1hZT4nLCAnLW9tYWUnLCAnPG91dGZpbGUubWFlPic=

>  <s_epik_input>  (1) 
W1NIXVMoPU8pKD1PKVtDQEBdMShbQ0gyXVtDSDNdKVtDQEBdKFtDSDNdKShbQ0BASF0xW09IXSlPW0NASF0oW0NAQEhdMltDSDNdKVtOSF1bQ0BASF0oRilbQ0BIXTJbQ0gyXVxbQ0hdPVtDSF1cQyhbQ0gyXVtOSDJdKT1OXEMoPU5cW0hdKVxbQ0gyXVtDSDJdW0NIMl1bTkhdW0NIMl1bT0hd

>  <s_glide_docking_method>  (1) 
confgen

>  <s_i_glide_gridfile>  (1) 
gpcr_drd2_6luq_protein_autoprepared_prepared

>  <s_lp_Force_Field>  (1) 
S-OPLS

>  <s_lp_Variant>  (1) 
DiffSBDD_10_num_sample_50-8

>  <s_m_source_file>  (1) 
generated__ligand_DiffSBDD_2026-05-06_prepared.sdf

>  <GenAI_Model>  (1) 
DiffSBDD

>  <Protein>  (1) 
generic_title2

$$$$
DiffSBDD_40_num_sample_50
     RDKit          3D

  0  0  0  0  0  0  0  0  0  0999 V3000
M  V30 BEGIN CTAB
M  V30 COUNTS 80 83 0 0 1
M  V30 BEGIN ATOM
M  V30 1 C 10.284623 4.596872 -17.795563 0 CFG=1
M  V30 2 S 8.021074 7.639094 -12.293443 0
M  V30 3 C 5.543984 3.740916 -13.223490 0
M  V30 4 C 13.576515 4.738511 -16.413728 0 CFG=2
M  V30 5 C 6.770753 3.891685 -13.763236 0
M  V30 6 C 12.297648 0.440917 -17.674964 0
M  V30 7 C 11.637752 3.823212 -17.852550 0 CFG=2
M  V30 8 C 13.292556 0.930083 -18.439814 0
M  V30 9 C 12.831262 4.823728 -17.740090 0
M  V30 10 C 8.975136 3.786841 -17.973917 0
M  V30 11 C 10.035649 5.762548 -12.576636 0
M  V30 12 C 14.638236 0.213073 -18.482625 0 CFG=1
M  V30 13 C 7.683106 5.086253 -13.413476 0 CFG=1
M  V30 14 C 14.076110 2.588848 -20.043468 0
M  V30 15 C 15.307287 0.392927 -19.849889 0 CFG=2
M  V30 16 C 13.086955 2.158695 -19.228213 0
M  V30 17 C 7.333016 2.879258 -14.777029 0 CFG=1
M  V30 18 C 9.553093 6.905865 -11.670257 0 CFG=2
M  V30 19 S 6.682283 0.568334 -13.367540 0
M  V30 20 C 15.153237 4.601836 -16.433001 0
M  V30 21 F 16.507845 -0.188190 -19.879206 0
M  V30 22 C 11.776211 2.953499 -19.135302 0
M  V30 23 C 15.408977 1.878458 -20.218320 0
M  V30 24 C 7.000384 6.156584 -12.521110 0
M  V30 25 F 15.434427 0.706015 -17.532228 0
M  V30 26 O 15.768312 4.766972 -17.485315 0
M  V30 27 O 8.237067 3.524165 -15.678061 0
M  V30 28 O 10.186431 5.308588 -16.577408 0
M  V30 29 C 7.958684 1.629657 -14.100528 0
M  V30 30 C 12.151781 8.290264 -9.616505 0
M  V30 31 N 9.495610 6.373426 -8.021223 0
M  V30 32 C 8.601597 2.797848 -16.851593 0
M  V30 33 N 8.708457 5.456970 -9.778608 0 CHG=1
M  V30 34 O 14.232381 3.584111 -16.297525 0
M  V30 35 C 9.949920 7.132985 -9.073691 0
M  V30 36 C 9.027193 4.623128 -12.807229 0
M  V30 37 C 9.434999 6.540389 -10.216501 0
M  V30 38 C 8.748821 5.367545 -8.456893 0
M  V30 39 C 10.806975 8.344239 -8.874289 0
M  V30 40 H 10.303367 5.343174 -18.591481 0
M  V30 41 H 5.145859 4.449891 -12.514559 0
M  V30 42 H 4.924665 2.899001 -13.489477 0
M  V30 43 H 13.051768 4.968620 -15.492095 0
M  V30 44 H 12.440507 -0.455633 -17.091736 0
M  V30 45 H 11.336823 0.923947 -17.619607 0
M  V30 46 H 11.667670 3.150457 -16.995779 0
M  V30 47 H 13.525158 4.724233 -18.571213 0
M  V30 48 H 12.471752 5.849102 -17.831976 0
M  V30 49 H 8.148460 4.489131 -18.087445 0
M  V30 50 H 9.003610 3.251578 -18.921416 0
M  V30 51 H 10.299986 6.169301 -13.546326 0
M  V30 52 H 10.978199 5.368995 -12.210640 0
M  V30 53 H 14.518629 -0.849247 -18.264890 0
M  V30 54 H 7.899424 5.584631 -14.359007 0
M  V30 55 H 13.936408 3.492811 -20.619053 0
M  V30 56 H 14.711621 -0.123487 -20.603719 0
M  V30 57 H 6.490744 2.536687 -15.376123 0
M  V30 58 H 10.282611 7.706639 -11.743073 0
M  V30 59 H 7.473084 -0.482736 -13.139518 0
M  V30 60 H 10.944968 2.259648 -19.247938 0
M  V30 61 H 11.706863 3.609625 -20.004221 0
M  V30 62 H 15.734149 1.980821 -21.253757 0
M  V30 63 H 16.152318 2.381555 -19.598856 0
M  V30 64 H 6.069069 6.493752 -12.978036 0
M  V30 65 H 6.740941 5.757768 -11.540888 0
M  V30 66 H 9.754222 4.746484 -15.946909 0
M  V30 67 H 8.485597 1.017059 -14.829312 0
M  V30 68 H 8.676973 1.885740 -13.325509 0
M  V30 69 H 12.787002 9.115910 -9.299177 0
M  V30 70 H 12.697942 7.368349 -9.434365 0
M  V30 71 H 12.034049 8.385768 -10.691567 0
M  V30 72 H 7.762455 2.190447 -17.195524 0
M  V30 73 H 9.426420 2.115722 -16.647352 0
M  V30 74 H 9.691429 6.559475 -7.045855 0
M  V30 75 H 8.860706 4.044177 -11.901761 0
M  V30 76 H 9.510838 3.935114 -13.491356 0
M  V30 77 H 8.261486 4.624106 -7.853158 0
M  V30 78 H 10.240441 9.214795 -9.201917 0
M  V30 79 H 10.985786 8.478960 -7.807261 0
M  V30 80 H 8.200984 4.821781 -10.380126 0
M  V30 END ATOM
M  V30 BEGIN BOND
M  V30 1 2 5 3
M  V30 2 1 7 1
M  V30 3 2 8 6
M  V30 4 1 9 4
M  V30 5 1 9 7
M  V30 6 1 10 1
M  V30 7 1 12 8
M  V30 8 1 13 5
M  V30 9 1 15 12
M  V30 10 1 16 8
M  V30 11 2 16 14
M  V30 12 1 17 5
M  V30 13 1 18 2
M  V30 14 1 18 11
M  V30 15 1 20 4
M  V30 16 1 21 15
M  V30 17 1 22 7
M  V30 18 1 22 16
M  V30 19 1 23 14
M  V30 20 1 23 15
M  V30 21 1 24 2
M  V30 22 1 24 13
M  V30 23 1 25 12
M  V30 24 2 26 20
M  V30 25 1 27 17
M  V30 26 1 28 1
M  V30 27 1 29 17
M  V30 28 1 29 19
M  V30 29 1 32 10
M  V30 30 1 32 27
M  V30 31 1 34 4
M  V30 32 1 34 20
M  V30 33 1 35 31
M  V30 34 1 36 11
M  V30 35 1 36 13
M  V30 36 1 37 18
M  V30 37 1 37 33
M  V30 38 2 37 35
M  V30 39 1 38 31
M  V30 40 2 38 33
M  V30 41 1 39 30
M  V30 42 1 39 35
M  V30 43 1 1 40 CFG=3
M  V30 44 1 41 3
M  V30 45 1 42 3
M  V30 46 1 4 43 CFG=1
M  V30 47 1 44 6
M  V30 48 1 45 6
M  V30 49 1 7 46 CFG=1
M  V30 50 1 47 9
M  V30 51 1 48 9
M  V30 52 1 49 10
M  V30 53 1 50 10
M  V30 54 1 51 11
M  V30 55 1 52 11
M  V30 56 1 12 53 CFG=1
M  V30 57 1 13 54 CFG=3
M  V30 58 1 55 14
M  V30 59 1 15 56 CFG=3
M  V30 60 1 17 57 CFG=3
M  V30 61 1 18 58 CFG=1
M  V30 62 1 59 19
M  V30 63 1 60 22
M  V30 64 1 61 22
M  V30 65 1 62 23
M  V30 66 1 63 23
M  V30 67 1 64 24
M  V30 68 1 65 24
M  V30 69 1 66 28
M  V30 70 1 67 29
M  V30 71 1 68 29
M  V30 72 1 69 30
M  V30 73 1 70 30
M  V30 74 1 71 30
M  V30 75 1 72 32
M  V30 76 1 73 32
M  V30 77 1 74 31
M  V30 78 1 75 36
M  V30 79 1 76 36
M  V30 80 1 77 38
M  V30 81 1 78 39
M  V30 82 1 79 39
M  V30 83 1 80 33
M  V30 END BOND
M  V30 END CTAB
M  END
>  <i_epik_Tot_Q>  (1) 
1

>  <i_epik_Tot_abs_Q>  (1) 
1

>  <i_i_glide_confnum>  (1) 
7642

>  <i_i_glide_lignum>  (1) 
100

>  <i_i_glide_posenum>  (1) 
325

>  <i_i_glide_rotatable_bonds>  (1) 
16

>  <i_lp_mmshare_version>  (1) 
72125

>  <i_m_source_file_index>  (1) 
41

>  <i_f3d_flags>  (1) 
0

>  <num_sample>  (1) 
50

>  <b_lp_Chiralities_Consistent>  (1) 
1

>  <r_epik_Charging_Adjusted_Penalty>  (1) 
0.74174678475340827

>  <r_epik_Ionization_Penalty>  (1) 
0.9544201178542232

>  <r_epik_Ionization_Penalty_Charging>  (1) 
0

>  <r_epik_Ionization_Penalty_Neutral>  (1) 
0.9544201178542232

>  <r_epik_State_Penalty>  (1) 
0.74174678475340827

>  <r_glide_ring_energy>  (1) 
0

>  <r_i_docking_score>  (1) 
-4.0012442133333916

>  <r_i_glide_ecoul>  (1) 
-1.9916411375171996

>  <r_i_glide_eff_state_penalty>  (1) 
0.74174678475340827

>  <r_i_glide_einternal>  (1) 
22.646920566065312

>  <r_i_glide_emodel>  (1) 
-43.079552200705308

>  <r_i_glide_emodel_strain>  (1) 
0.84550865592120772

>  <r_i_glide_energy>  (1) 
-43.953735795220624

>  <r_i_glide_erotb>  (1) 
0.63365396365979698

>  <r_i_glide_esite>  (1) 
-0.17081388136273951

>  <r_i_glide_evdw>  (1) 
-41.962094657703425

>  <r_i_glide_gscore>  (1) 
-4.7429909980867997

>  <r_i_glide_gscore_strain>  (1) 
0

>  <r_i_glide_hbond>  (1) 
0

>  <r_i_glide_ligand_efficiency>  (1) 
-0.10259600547008696

>  <r_i_glide_ligand_efficiency_ln>  (1) 
-0.85798034141010637

>  <r_i_glide_ligand_efficiency_sa>  (1) 
-0.34792474775770299

>  <r_i_glide_lipo>  (1) 
-1.9204399668678707

>  <r_i_glide_metal>  (1) 
-0

>  <r_i_glide_rewards>  (1) 
-0.88854021000323558

>  <r_lp_Energy>  (1) 
23.350483999999998

>  <r_lp_tautomer_probability>  (1) 
1

>  <s_epik_Chemistry_Notes>  (1) 
This compound has an ester and may undergo hydrolysis at high or low pH.

>  <s_epik_cmdline>  (1) 
J2VwaWtfcHl0aG9uJywgJy1waHQnLCAnMS4wJywgJy1waCcsICc3LjQnLCAnLXRuJywgJzgnLCAnLW1hJywgJzUwMCcsICctaW1hZScsICc8aW5maWxlLm1hZT4nLCAnLW9tYWUnLCAnPG91dGZpbGUubWFlPic=

>  <s_epik_input>  (1) 
W0NIMl09QzFbQ0BIXShGKVtDQEhdKEYpW0NIMl1bQ0hdPUMxW0NIMl1bQ0BASF0oW0NIMl1bQ0BASF0yQyg9TylPMilbQ0BIXShbT0hdKVtDSDJdW0NIMl1PW0NAQEhdKFtDSDJdW1NIXSlDKD1bQ0gyXSlbQ0BIXTNbQ0gyXVNbQ0BIXShbQ0gyXVtDSDJdMylDND1OW0NIXT1OW0NAQEhdNFtDSDJdW0NIM10=

>  <s_glide_docking_method>  (1) 
confgen

>  <s_i_glide_gridfile>  (1) 
gpcr_drd2_6luq_protein_autoprepared_prepared

>  <s_lp_Force_Field>  (1) 
S-OPLS

>  <s_lp_Variant>  (1) 
DiffSBDD_40_num_sample_50-3

>  <s_m_source_file>  (1) 
generated__ligand_DiffSBDD_2026-05-06_prepared.sdf

>  <GenAI_Model>  (1) 
DiffSBDD

>  <Protein>  (1) 
generic_title2

$$$$
DiffSBDD_10_num_sample_50
     RDKit          3D

  0  0  0  0  0  0  0  0  0  0999 V3000
M  V30 BEGIN CTAB
M  V30 COUNTS 72 73 0 0 1
M  V30 BEGIN ATOM
M  V30 1 C 12.195864 5.823175 -18.163871 0 CFG=2
M  V30 2 C 8.616265 7.230777 -11.922666 0
M  V30 3 C 8.195104 2.810054 -13.115132 0
M  V30 4 C 7.714390 3.239909 -16.909515 0 CFG=1
M  V30 5 C 11.089554 5.213492 -19.071887 0 CFG=2
M  V30 6 N 10.719591 6.337288 -12.691500 0
M  V30 7 N 9.270766 2.769826 -18.683609 0
M  V30 8 C 8.896759 4.142414 -18.808199 0 CFG=1
M  V30 9 S 13.341583 7.092067 -18.981174 0
M  V30 10 C 9.204268 8.469193 -11.282963 0
M  V30 11 S 15.027811 5.884033 -19.427359 0 CHG=-1
M  V30 12 C 13.312710 5.769335 -15.850646 0
M  V30 13 O 9.216843 6.969499 -6.864928 0
M  V30 14 O 12.784697 7.583547 -20.250402 0
M  V30 15 C 12.302896 4.398664 -18.688276 0 CFG=2
M  V30 16 C 9.059811 3.997340 -11.015022 0
M  V30 17 C 8.897517 2.345074 -17.345366 0 CFG=2
M  V30 18 N 9.434881 7.910295 -8.852794 0 CHG=1
M  V30 19 N 8.762987 5.178718 -13.131185 0
M  V30 20 C 10.163816 8.192607 -10.099153 0
M  V30 21 C 7.327523 5.779442 -17.611071 0
M  V30 22 C 12.048287 6.094556 -16.665302 0
M  V30 23 C 10.858876 5.472382 -20.558748 0
M  V30 24 C 7.859487 3.780659 -15.472231 0
M  V30 25 C 8.675362 4.084317 -12.484824 0
M  V30 26 O 11.996936 3.382165 -17.755146 0
M  V30 27 C 9.348784 6.295964 -12.553129 0
M  V30 28 O 13.787623 8.067632 -17.974175 0
M  V30 29 F 8.585256 1.050976 -17.347107 0
M  V30 30 N 8.018496 4.571212 -10.173309 0
M  V30 31 C 9.927987 6.769956 -8.065760 0
M  V30 32 C 7.606068 4.318255 -18.006553 0 CFG=2
M  V30 33 O 9.888725 5.002801 -18.300924 0
M  V30 34 C 7.834855 2.677068 -14.420766 0
M  V30 35 H 7.543239 7.113284 -11.857727 0
M  V30 36 H 8.145645 1.960056 -12.452110 0
M  V30 37 H 6.799264 2.644930 -16.949190 0
M  V30 38 H 11.253863 7.147455 -12.422733 0
M  V30 39 H 10.266577 2.635358 -18.811084 0
M  V30 40 H 8.689856 4.384895 -19.847955 0
M  V30 41 H 8.397485 9.136784 -10.984030 0
M  V30 42 H 9.725382 8.967048 -12.093920 0
M  V30 43 H 13.206570 6.112095 -14.821230 0
M  V30 44 H 13.508467 4.695821 -15.838611 0
M  V30 45 H 14.200066 6.251874 -16.256777 0
M  V30 46 H 8.345704 6.595576 -6.946837 0
M  V30 47 H 12.994168 4.100912 -19.472195 0
M  V30 48 H 9.317106 2.972636 -10.756460 0
M  V30 49 H 9.979292 4.546277 -10.832735 0
M  V30 50 H 9.758664 2.469808 -16.691270 0
M  V30 51 H 8.436578 7.770051 -9.091686 0
M  V30 52 H 10.788683 9.062689 -9.895805 0
M  V30 53 H 10.856585 7.382936 -10.328500 0
M  V30 54 H 8.078090 6.158606 -16.921784 0
M  V30 55 H 7.326365 6.424094 -18.490463 0
M  V30 56 H 6.354238 5.875531 -17.128767 0
M  V30 57 H 11.819308 7.149773 -16.541178 0
M  V30 58 H 11.198983 5.545662 -16.258397 0
M  V30 59 H 11.805794 5.579519 -21.086351 0
M  V30 60 H 10.373444 4.620981 -21.034160 0
M  V30 61 H 10.254259 6.367587 -20.709085 0
M  V30 62 H 7.045995 4.469504 -15.243373 0
M  V30 63 H 8.800260 4.330910 -15.435788 0
M  V30 64 H 11.538394 3.791254 -17.034504 0
M  V30 65 H 7.127976 4.137376 -10.371123 0
M  V30 66 H 8.204883 4.378908 -9.200810 0
M  V30 67 H 11.000512 6.858038 -7.886847 0
M  V30 68 H 9.712640 5.805445 -8.522487 0
M  V30 69 H 6.802889 4.003667 -18.675531 0
M  V30 70 H 7.498233 1.710368 -14.766441 0
M  V30 71 H 11.212897 5.642339 -13.245075 0
M  V30 72 H 9.486721 8.727568 -8.263709 0
M  V30 END ATOM
M  V30 BEGIN BOND
M  V30 1 1 5 1
M  V30 2 1 8 7
M  V30 3 1 9 1
M  V30 4 1 10 2
M  V30 5 1 11 9
M  V30 6 2 14 9
M  V30 7 1 15 1
M  V30 8 1 15 5
M  V30 9 1 17 4
M  V30 10 1 17 7
M  V30 11 1 20 10
M  V30 12 1 20 18
M  V30 13 1 1 22 CFG=1
M  V30 14 1 22 12
M  V30 15 1 23 5
M  V30 16 1 24 4
M  V30 17 1 25 3
M  V30 18 1 25 16
M  V30 19 2 25 19
M  V30 20 1 26 15
M  V30 21 2 27 2
M  V30 22 1 27 6
M  V30 23 1 27 19
M  V30 24 2 28 9
M  V30 25 1 29 17
M  V30 26 1 30 16
M  V30 27 1 31 13
M  V30 28 1 31 18
M  V30 29 1 32 4
M  V30 30 1 32 8
M  V30 31 1 32 21
M  V30 32 1 5 33 CFG=1
M  V30 33 1 33 8
M  V30 34 2 34 3
M  V30 35 1 34 24
M  V30 36 1 35 2
M  V30 37 1 36 3
M  V30 38 1 4 37 CFG=1
M  V30 39 1 38 6
M  V30 40 1 39 7
M  V30 41 1 8 40 CFG=3
M  V30 42 1 41 10
M  V30 43 1 42 10
M  V30 44 1 43 12
M  V30 45 1 44 12
M  V30 46 1 45 12
M  V30 47 1 46 13
M  V30 48 1 15 47 CFG=3
M  V30 49 1 48 16
M  V30 50 1 49 16
M  V30 51 1 17 50 CFG=1
M  V30 52 1 51 18
M  V30 53 1 52 20
M  V30 54 1 53 20
M  V30 55 1 54 21
M  V30 56 1 55 21
M  V30 57 1 56 21
M  V30 58 1 57 22
M  V30 59 1 58 22
M  V30 60 1 59 23
M  V30 61 1 60 23
M  V30 62 1 61 23
M  V30 63 1 62 24
M  V30 64 1 63 24
M  V30 65 1 64 26
M  V30 66 1 65 30
M  V30 67 1 66 30
M  V30 68 1 67 31
M  V30 69 1 68 31
M  V30 70 1 32 69 CFG=3
M  V30 71 1 70 34
M  V30 72 1 71 6
M  V30 73 1 72 18
M  V30 END BOND
M  V30 END CTAB
M  END
>  <i_epik_Tot_Q>  (1) 
0

>  <i_epik_Tot_abs_Q>  (1) 
2

>  <i_i_glide_confnum>  (1) 
2979

>  <i_i_glide_lignum>  (1) 
27

>  <i_i_glide_posenum>  (1) 
349

>  <i_i_glide_rotatable_bonds>  (1) 
15

>  <i_lp_mmshare_version>  (1) 
72125

>  <i_m_source_file_index>  (1) 
11

>  <i_f3d_flags>  (1) 
0

>  <num_sample>  (1) 
50

>  <b_lp_Chiralities_Consistent>  (1) 
1

>  <r_epik_Charging_Adjusted_Penalty>  (1) 
0.33639934582642134

>  <r_epik_Ionization_Penalty>  (1) 
0.23315943830934333

>  <r_epik_Ionization_Penalty_Charging>  (1) 
0.10316865490585193

>  <r_epik_Ionization_Penalty_Neutral>  (1) 
0.12999078340349141

>  <r_epik_State_Penalty>  (1) 
0.23323069092056939

>  <r_glide_ring_energy>  (1) 
0

>  <r_i_docking_score>  (1) 
-4.0011116810007952

>  <r_i_glide_ecoul>  (1) 
-10.142457559144361

>  <r_i_glide_eff_state_penalty>  (1) 
0.23323069092056939

>  <r_i_glide_einternal>  (1) 
23.067707163517266

>  <r_i_glide_emodel>  (1) 
-30.481942451282961

>  <r_i_glide_emodel_strain>  (1) 
4.4205853254806868

>  <r_i_glide_energy>  (1) 
-34.29574941940254

>  <r_i_glide_erotb>  (1) 
0.82510599487301828

>  <r_i_glide_esite>  (1) 
-0.17662805002644888

>  <r_i_glide_evdw>  (1) 
-24.153291860258175

>  <r_i_glide_gscore>  (1) 
-4.2343423719213646

>  <r_i_glide_gscore_strain>  (1) 
0.10514633137017171

>  <r_i_glide_hbond>  (1) 
-0.56890024107150472

>  <r_i_glide_ligand_efficiency>  (1) 
-0.11767975532355279

>  <r_i_glide_ligand_efficiency_ln>  (1) 
-0.88395779771433303

>  <r_i_glide_ligand_efficiency_sa>  (1) 
-0.38123672411762843

>  <r_i_glide_lipo>  (1) 
-1.1564784761308606

>  <r_i_glide_metal>  (1) 
-0

>  <r_i_glide_rewards>  (1) 
-0.53355470405117711

>  <r_lp_Energy>  (1) 
31.214245999999999

>  <s_epik_Chemistry_Notes>  (1) 
This compound has an imine and may undergo hydrolysis. This compound contains an acetal/aminal-like group ( X-CH(R)-Y where X, Y are N, S, or O) that may be acid/base labile, releasing an aldehyde.

>  <s_epik_cmdline>  (1) 
J2VwaWtfcHl0aG9uJywgJy1waHQnLCAnMS4wJywgJy1waCcsICc3LjQnLCAnLXRuJywgJzgnLCAnLW1hJywgJzUwMCcsICctaW1hZScsICc8aW5maWxlLm1hZT4nLCAnLW9tYWUnLCAnPG91dGZpbGUubWFlPic=

>  <s_epik_input>  (1) 
W1NIXVMoPU8pKD1PKVtDQEBdMShbQ0gyXVtDSDNdKVtDQEBdKFtDSDNdKShbQ0BASF0xW09IXSlPW0NASF0oW0NAQEhdMltDSDNdKVtOSF1bQ0BASF0oRilbQ0BIXTJbQ0gyXS9bQ0hdPVtDSF1cQyhbQ0gyXVtOSDJdKT1OXEMoPU5cW0hdKVxbQ0gyXVtDSDJdW0NIMl1bTkhdW0NIMl1bT0hd

>  <s_glide_docking_method>  (1) 
confgen

>  <s_i_glide_gridfile>  (1) 
gpcr_drd2_6luq_protein_autoprepared_prepared

>  <s_lp_Force_Field>  (1) 
S-OPLS

>  <s_lp_Variant>  (1) 
DiffSBDD_10_num_sample_50-7

>  <s_m_source_file>  (1) 
generated__ligand_DiffSBDD_2026-05-06_prepared.sdf

>  <GenAI_Model>  (1) 
DiffSBDD

>  <Protein>  (1) 
generic_title2

$$$$
DiffSBDD_10_num_sample_50
     RDKit          3D

  0  0  0  0  0  0  0  0  0  0999 V3000
M  V30 BEGIN CTAB
M  V30 COUNTS 71 72 0 0 1
M  V30 BEGIN ATOM
M  V30 1 C 6.992287 5.165273 -18.899019 0 CFG=2
M  V30 2 C 11.046567 8.864082 -7.459317 0
M  V30 3 C 8.868324 6.569064 -10.619340 0
M  V30 4 C 7.664336 4.760599 -13.059388 0 CFG=1
M  V30 5 C 7.310355 4.150253 -17.785941 0 CFG=2
M  V30 6 N 12.799614 8.169909 -8.974156 0
M  V30 7 N 8.697865 5.369091 -15.093135 0
M  V30 8 C 7.647745 4.452021 -15.398373 0 CFG=1
M  V30 9 S 6.240552 4.394951 -20.439906 0
M  V30 10 C 11.957325 9.339909 -6.334883 0
M  V30 11 S 6.658782 5.908446 -21.860223 0 CHG=-1
M  V30 12 C 5.049435 6.826154 -18.437698 0
M  V30 13 O 13.034182 8.569252 -1.755551 0
M  V30 14 O 6.999836 3.199514 -20.838597 0
M  V30 15 C 8.415511 4.708213 -18.672208 0 CFG=2
M  V30 16 C 9.888283 5.941246 -8.316161 0
M  V30 17 C 8.512267 5.846322 -13.733703 0 CFG=1
M  V30 18 N 12.525317 8.969368 -3.945274 0
M  V30 19 N 10.585138 7.926248 -9.613833 0
M  V30 20 C 11.679726 8.538458 -5.052846 0
M  V30 21 C 5.458495 5.330246 -14.316495 0
M  V30 22 C 6.556410 6.610413 -18.630162 0
M  V30 23 C 6.894572 2.681882 -17.847418 0
M  V30 24 C 7.045248 5.169685 -11.701727 0
M  V30 25 C 9.835035 6.889915 -9.528026 0
M  V30 26 O 9.287352 5.573273 -17.973409 0
M  V30 27 C 11.477239 8.340830 -8.627557 0
M  V30 28 O 4.778753 4.318030 -20.291964 0
M  V30 29 F 7.835062 6.998643 -13.770644 0
M  V30 30 N 9.034930 6.407731 -7.233498 0
M  V30 31 C 12.460317 7.972607 -2.890215 0
M  V30 32 C 6.685149 4.380905 -14.187921 0 CFG=2
M  V30 33 O 6.967136 4.809417 -16.559011 0
M  V30 34 C 8.053269 5.488139 -10.603265 0
M  V30 35 H 9.983937 8.960688 -7.285810 0
M  V30 36 H 8.846140 7.268667 -11.439393 0
M  V30 37 H 8.311773 3.898250 -12.878987 0
M  V30 38 H 13.534838 8.597057 -8.430449 0
M  V30 39 H 8.686737 6.154531 -15.730235 0
M  V30 40 H 8.110078 3.474531 -15.532608 0
M  V30 41 H 11.757846 10.397881 -6.167793 0
M  V30 42 H 13.007993 9.261831 -6.616131 0
M  V30 43 H 4.852164 7.852941 -18.131658 0
M  V30 44 H 4.497151 6.658466 -19.359822 0
M  V30 45 H 4.645245 6.169866 -17.667708 0
M  V30 46 H 13.089537 9.507528 -1.887108 0
M  V30 47 H 8.916337 4.048818 -19.378005 0
M  V30 48 H 9.657164 4.913718 -8.580097 0
M  V30 49 H 10.908962 5.896635 -7.937142 0
M  V30 50 H 9.471854 6.015609 -13.243621 0
M  V30 51 H 13.479576 9.030467 -4.272085 0
M  V30 52 H 11.834741 7.477142 -5.258514 0
M  V30 53 H 10.634952 8.651924 -4.767788 0
M  V30 54 H 5.671526 6.365316 -14.068648 0
M  V30 55 H 5.034861 5.369325 -15.316157 0
M  V30 56 H 4.668193 5.009691 -13.640254 0
M  V30 57 H 7.059037 6.969813 -17.735130 0
M  V30 58 H 6.917692 7.245872 -19.436474 0
M  V30 59 H 7.520832 2.138348 -18.553935 0
M  V30 60 H 7.001836 2.196084 -16.878500 0
M  V30 61 H 5.857243 2.574095 -18.165607 0
M  V30 62 H 6.394710 4.372427 -11.339547 0
M  V30 63 H 6.406038 6.045956 -11.812688 0
M  V30 64 H 9.765966 5.057246 -17.341773 0
M  V30 65 H 8.080055 6.574044 -7.554972 0
M  V30 66 H 8.978665 5.731324 -6.487314 0
M  V30 67 H 12.998779 7.063591 -3.161593 0
M  V30 68 H 11.434866 7.697802 -2.664187 0
M  V30 69 H 6.333903 3.352715 -14.088827 0
M  V30 70 H 8.084803 4.796089 -9.778664 0
M  V30 71 H 13.046364 7.945401 -9.925108 0
M  V30 END ATOM
M  V30 BEGIN BOND
M  V30 1 1 5 1
M  V30 2 1 8 7
M  V30 3 1 9 1
M  V30 4 1 10 2
M  V30 5 1 11 9
M  V30 6 2 14 9
M  V30 7 1 15 1
M  V30 8 1 15 5
M  V30 9 1 17 4
M  V30 10 1 17 7
M  V30 11 1 20 10
M  V30 12 1 20 18
M  V30 13 1 1 22 CFG=1
M  V30 14 1 22 12
M  V30 15 1 23 5
M  V30 16 1 24 4
M  V30 17 1 25 3
M  V30 18 1 25 16
M  V30 19 2 25 19
M  V30 20 1 26 15
M  V30 21 2 27 2
M  V30 22 1 27 6
M  V30 23 1 27 19
M  V30 24 2 28 9
M  V30 25 1 29 17
M  V30 26 1 30 16
M  V30 27 1 31 13
M  V30 28 1 31 18
M  V30 29 1 32 4
M  V30 30 1 32 8
M  V30 31 1 32 21
M  V30 32 1 5 33 CFG=1
M  V30 33 1 33 8
M  V30 34 2 34 3
M  V30 35 1 34 24
M  V30 36 1 35 2
M  V30 37 1 36 3
M  V30 38 1 4 37 CFG=1
M  V30 39 1 38 6
M  V30 40 1 39 7
M  V30 41 1 8 40 CFG=3
M  V30 42 1 41 10
M  V30 43 1 42 10
M  V30 44 1 43 12
M  V30 45 1 44 12
M  V30 46 1 45 12
M  V30 47 1 46 13
M  V30 48 1 15 47 CFG=3
M  V30 49 1 48 16
M  V30 50 1 49 16
M  V30 51 1 17 50 CFG=1
M  V30 52 1 51 18
M  V30 53 1 52 20
M  V30 54 1 53 20
M  V30 55 1 54 21
M  V30 56 1 55 21
M  V30 57 1 56 21
M  V30 58 1 57 22
M  V30 59 1 58 22
M  V30 60 1 59 23
M  V30 61 1 60 23
M  V30 62 1 61 23
M  V30 63 1 62 24
M  V30 64 1 63 24
M  V30 65 1 64 26
M  V30 66 1 65 30
M  V30 67 1 66 30
M  V30 68 1 67 31
M  V30 69 1 68 31
M  V30 70 1 32 69 CFG=1
M  V30 71 1 70 34
M  V30 72 1 71 6
M  V30 END BOND
M  V30 END CTAB
M  END
>  <i_epik_Tot_Q>  (1) 
-1

>  <i_epik_Tot_abs_Q>  (1) 
1

>  <i_i_glide_confnum>  (1) 
166

>  <i_i_glide_lignum>  (1) 
40

>  <i_i_glide_posenum>  (1) 
126

>  <i_i_glide_rotatable_bonds>  (1) 
15

>  <i_lp_mmshare_version>  (1) 
72125

>  <i_m_source_file_index>  (1) 
11

>  <i_f3d_flags>  (1) 
0

>  <num_sample>  (1) 
50

>  <b_lp_Chiralities_Consistent>  (1) 
1

>  <r_epik_Charging_Adjusted_Penalty>  (1) 
1.239197207418439

>  <r_epik_Ionization_Penalty>  (1) 
1.2496715491914541

>  <r_epik_Ionization_Penalty_Charging>  (1) 
1.1069707349969355e-11

>  <r_epik_Ionization_Penalty_Neutral>  (1) 
1.2496715491803843

>  <r_epik_State_Penalty>  (1) 
1.2391972074073692

>  <r_glide_ring_energy>  (1) 
0

>  <r_i_docking_score>  (1) 
-3.9984008871345527

>  <r_i_glide_ecoul>  (1) 
-4.2721920140427097

>  <r_i_glide_eff_state_penalty>  (1) 
1.2391972074073692

>  <r_i_glide_einternal>  (1) 
7.4366491135526438

>  <r_i_glide_emodel>  (1) 
-48.948748900141894

>  <r_i_glide_emodel_strain>  (1) 
2.5408774098944917

>  <r_i_glide_energy>  (1) 
-43.52060002148545

>  <r_i_glide_erotb>  (1) 
0.82803537691766171

>  <r_i_glide_esite>  (1) 
-0.093884644787739974

>  <r_i_glide_evdw>  (1) 
-39.248408007442741

>  <r_i_glide_gscore>  (1) 
-5.237598094541922

>  <r_i_glide_gscore_strain>  (1) 
0

>  <r_i_glide_hbond>  (1) 
-0.41568039748951507

>  <r_i_glide_ligand_efficiency>  (1) 
-0.11760002609219272

>  <r_i_glide_ligand_efficiency_ln>  (1) 
-0.88335890731408762

>  <r_i_glide_ligand_efficiency_sa>  (1) 
-0.38097843235880757

>  <r_i_glide_lipo>  (1) 
-1.8732027698985318

>  <r_i_glide_metal>  (1) 
-0

>  <r_i_glide_rewards>  (1) 
-1.0796164568052526

>  <r_lp_Energy>  (1) 
23.962672999999999

>  <s_epik_Chemistry_Notes>  (1) 
This compound has an imine and may undergo hydrolysis. This compound contains an acetal/aminal-like group ( X-CH(R)-Y where X, Y are N, S, or O) that may be acid/base labile, releasing an aldehyde.

>  <s_epik_cmdline>  (1) 
J2VwaWtfcHl0aG9uJywgJy1waHQnLCAnMS4wJywgJy1waCcsICc3LjQnLCAnLXRuJywgJzgnLCAnLW1hJywgJzUwMCcsICctaW1hZScsICc8aW5maWxlLm1hZT4nLCAnLW9tYWUnLCAnPG91dGZpbGUubWFlPic=

>  <s_epik_input>  (1) 
W1NIXVMoPU8pKD1PKVtDQEBdMShbQ0gyXVtDSDNdKVtDQEBdKFtDSDNdKShbQ0BASF0xW09IXSlPW0NASF0oW0NAQEhdMltDSDNdKVtOSF1bQ0BASF0oRilbQ0BIXTJbQ0gyXVxbQ0hdPVtDSF1cQyhbQ0gyXVtOSDJdKT1OXEMoPU5cW0hdKVxbQ0gyXVtDSDJdW0NIMl1bTkhdW0NIMl1bT0hd

>  <s_glide_docking_method>  (1) 
confgen

>  <s_i_glide_gridfile>  (1) 
gpcr_drd2_6luq_protein_autoprepared_prepared

>  <s_lp_Force_Field>  (1) 
S-OPLS

>  <s_lp_Variant>  (1) 
DiffSBDD_10_num_sample_50-20

>  <s_m_source_file>  (1) 
generated__ligand_DiffSBDD_2026-05-06_prepared.sdf

>  <GenAI_Model>  (1) 
DiffSBDD

>  <Protein>  (1) 
generic_title2

$$$$
DiffSBDD_10_num_sample_50
     RDKit          3D

  0  0  0  0  0  0  0  0  0  0999 V3000
M  V30 BEGIN CTAB
M  V30 COUNTS 72 73 0 0 1
M  V30 BEGIN ATOM
M  V30 1 C 5.696979 7.462874 -20.906361 0 CFG=2
M  V30 2 C 8.054839 4.806004 -11.671749 0
M  V30 3 C 5.901564 3.327149 -13.204027 0
M  V30 4 C 7.196651 5.511354 -15.996006 0 CFG=1
M  V30 5 C 4.984727 6.974200 -19.615224 0 CFG=2
M  V30 6 N 9.434834 4.599945 -13.617822 0
M  V30 7 N 6.234897 7.369543 -16.979123 0
M  V30 8 C 6.799765 6.658565 -18.071717 0 CFG=1
M  V30 9 S 5.130619 9.128984 -21.584333 0
M  V30 10 C 8.361606 6.260533 -11.435498 0
M  V30 11 S 4.277765 8.520168 -23.423492 0 CHG=-1
M  V30 12 C 7.392594 6.951492 -22.777906 0
M  V30 13 O 11.612016 8.056922 -9.557814 0
M  V30 14 O 4.039977 9.713106 -20.793314 0
M  V30 15 C 4.634836 6.387466 -20.971868 0 CFG=2
M  V30 16 C 6.599441 0.942848 -12.581604 0
M  V30 17 C 5.972211 6.430768 -15.942550 0 CFG=2
M  V30 18 N 9.434847 7.898696 -10.003820 0 CHG=1
M  V30 19 N 8.233029 2.741879 -12.893447 0
M  V30 20 C 9.258283 6.459052 -10.223816 0
M  V30 21 C 7.750943 4.286923 -18.311069 0
M  V30 22 C 7.151007 7.151499 -21.274938 0
M  V30 23 C 3.835807 7.549819 -18.766054 0
M  V30 24 C 6.944274 4.115337 -15.410761 0
M  V30 25 C 7.002742 2.374213 -12.913196 0
M  V30 26 O 5.058415 5.038568 -21.021482 0
M  V30 27 C 8.564077 4.092263 -12.691762 0
M  V30 28 O 6.314065 9.947422 -21.892301 0
M  V30 29 F 5.835245 7.068718 -14.779387 0
M  V30 30 N 6.229417 0.172816 -13.757075 0
M  V30 31 C 10.365937 8.251987 -8.920429 0
M  V30 32 C 7.702865 5.574826 -17.462734 0 CFG=2
M  V30 33 O 5.799099 6.070562 -18.853218 0
M  V30 34 C 5.880146 4.108770 -14.291767 0
M  V30 35 H 7.379679 4.336527 -10.969704 0
M  V30 36 H 5.097663 3.367454 -12.493535 0
M  V30 37 H 7.955197 5.989798 -15.375223 0
M  V30 38 H 9.821701 5.524867 -13.518340 0
M  V30 39 H 5.403003 7.882866 -17.225309 0
M  V30 40 H 7.378692 7.346211 -18.688836 0
M  V30 41 H 7.407940 6.773243 -11.319447 0
M  V30 42 H 8.828655 6.707110 -12.314024 0
M  V30 43 H 8.427273 6.671056 -22.973964 0
M  V30 44 H 6.754773 6.160674 -23.174641 0
M  V30 45 H 7.191054 7.858462 -23.346924 0
M  V30 46 H 12.205089 8.745543 -9.290491 0
M  V30 47 H 3.706599 6.596042 -21.491701 0
M  V30 48 H 7.427946 0.440107 -12.082511 0
M  V30 49 H 5.765138 0.953535 -11.884660 0
M  V30 50 H 5.046597 5.909289 -16.187053 0
M  V30 51 H 8.470873 8.191619 -9.783359 0
M  V30 52 H 10.218578 5.974864 -10.388164 0
M  V30 53 H 8.808147 6.015118 -9.334161 0
M  V30 54 H 6.769469 3.824823 -18.420271 0
M  V30 55 H 8.132655 4.491049 -19.311427 0
M  V30 56 H 8.417924 3.551503 -17.861822 0
M  V30 57 H 7.787852 7.955257 -20.906229 0
M  V30 58 H 7.472213 6.245637 -20.764245 0
M  V30 59 H 3.139664 8.169301 -19.324177 0
M  V30 60 H 3.278789 6.738772 -18.291738 0
M  V30 61 H 4.189534 8.169187 -17.961315 0
M  V30 62 H 7.881003 3.632009 -15.185331 0
M  V30 63 H 6.634814 3.437361 -16.191584 0
M  V30 64 H 5.589778 4.905873 -20.246212 0
M  V30 65 H 7.040779 0.025759 -14.339868 0
M  V30 66 H 5.894736 -0.753796 -13.493343 0
M  V30 67 H 10.241713 7.644384 -8.021308 0
M  V30 68 H 10.251398 9.304124 -8.680144 0
M  V30 69 H 8.713990 5.984424 -17.446098 0
M  V30 70 H 5.044164 4.778909 -14.411119 0
M  V30 71 H 9.895165 4.002637 -14.285946 0
M  V30 72 H 9.731994 8.338269 -10.860210 0
M  V30 END ATOM
M  V30 BEGIN BOND
M  V30 1 1 5 1
M  V30 2 1 8 7
M  V30 3 1 9 1
M  V30 4 1 10 2
M  V30 5 1 11 9
M  V30 6 2 14 9
M  V30 7 1 15 1
M  V30 8 1 15 5
M  V30 9 1 17 4
M  V30 10 1 17 7
M  V30 11 1 20 10
M  V30 12 1 20 18
M  V30 13 1 1 22 CFG=1
M  V30 14 1 22 12
M  V30 15 1 23 5
M  V30 16 1 24 4
M  V30 17 1 25 3
M  V30 18 1 25 16
M  V30 19 2 25 19
M  V30 20 1 26 15
M  V30 21 2 27 2
M  V30 22 1 27 6
M  V30 23 1 27 19
M  V30 24 2 28 9
M  V30 25 1 29 17
M  V30 26 1 30 16
M  V30 27 1 31 13
M  V30 28 1 31 18
M  V30 29 1 32 4
M  V30 30 1 32 8
M  V30 31 1 32 21
M  V30 32 1 5 33 CFG=1
M  V30 33 1 33 8
M  V30 34 2 34 3
M  V30 35 1 34 24
M  V30 36 1 35 2
M  V30 37 1 36 3
M  V30 38 1 4 37 CFG=1
M  V30 39 1 38 6
M  V30 40 1 39 7
M  V30 41 1 8 40 CFG=3
M  V30 42 1 41 10
M  V30 43 1 42 10
M  V30 44 1 43 12
M  V30 45 1 44 12
M  V30 46 1 45 12
M  V30 47 1 46 13
M  V30 48 1 15 47 CFG=3
M  V30 49 1 48 16
M  V30 50 1 49 16
M  V30 51 1 17 50 CFG=3
M  V30 52 1 51 18
M  V30 53 1 52 20
M  V30 54 1 53 20
M  V30 55 1 54 21
M  V30 56 1 55 21
M  V30 57 1 56 21
M  V30 58 1 57 22
M  V30 59 1 58 22
M  V30 60 1 59 23
M  V30 61 1 60 23
M  V30 62 1 61 23
M  V30 63 1 62 24
M  V30 64 1 63 24
M  V30 65 1 64 26
M  V30 66 1 65 30
M  V30 67 1 66 30
M  V30 68 1 67 31
M  V30 69 1 68 31
M  V30 70 1 32 69 CFG=1
M  V30 71 1 70 34
M  V30 72 1 71 6
M  V30 73 1 72 18
M  V30 END BOND
M  V30 END CTAB
M  END
>  <i_epik_Tot_Q>  (1) 
0

>  <i_epik_Tot_abs_Q>  (1) 
2

>  <i_i_glide_confnum>  (1) 
1704

>  <i_i_glide_lignum>  (1) 
25

>  <i_i_glide_posenum>  (1) 
302

>  <i_i_glide_rotatable_bonds>  (1) 
15

>  <i_lp_mmshare_version>  (1) 
72125

>  <i_m_source_file_index>  (1) 
11

>  <i_f3d_flags>  (1) 
0

>  <num_sample>  (1) 
50

>  <b_lp_Chiralities_Consistent>  (1) 
1

>  <r_epik_Charging_Adjusted_Penalty>  (1) 
0.33639934582642134

>  <r_epik_Ionization_Penalty>  (1) 
0.23315943830934333

>  <r_epik_Ionization_Penalty_Charging>  (1) 
0.10316865490585193

>  <r_epik_Ionization_Penalty_Neutral>  (1) 
0.12999078340349141

>  <r_epik_State_Penalty>  (1) 
0.23323069092056939

>  <r_glide_ring_energy>  (1) 
0

>  <r_i_docking_score>  (1) 
-3.995783857290939

>  <r_i_glide_ecoul>  (1) 
-7.5661120060215739

>  <r_i_glide_eff_state_penalty>  (1) 
0.23323069092056939

>  <r_i_glide_einternal>  (1) 
34.98845095814179

>  <r_i_glide_emodel>  (1) 
-18.822606026727573

>  <r_i_glide_emodel_strain>  (1) 
6.1917649925708815

>  <r_i_glide_energy>  (1) 
-30.86290187545427

>  <r_i_glide_erotb>  (1) 
0.82510599487301828

>  <r_i_glide_esite>  (1) 
-0.14221491495203195

>  <r_i_glide_evdw>  (1) 
-23.296789869432697

>  <r_i_glide_gscore>  (1) 
-4.2290145482115085

>  <r_i_glide_gscore_strain>  (1) 
0.54794124814272038

>  <r_i_glide_hbond>  (1) 
-0.3597104750344331

>  <r_i_glide_ligand_efficiency>  (1) 
-0.11752305462620409

>  <r_i_glide_ligand_efficiency_ln>  (1) 
-0.88278073201643259

>  <r_i_glide_ligand_efficiency_sa>  (1) 
-0.38072907468922917

>  <r_i_glide_lipo>  (1) 
-1.6778610071239362

>  <r_i_glide_metal>  (1) 
-0

>  <r_i_glide_rewards>  (1) 
-1.1225190997419756

>  <r_lp_Energy>  (1) 
28.206426

>  <s_epik_Chemistry_Notes>  (1) 
This compound has an imine and may undergo hydrolysis. This compound contains an acetal/aminal-like group ( X-CH(R)-Y where X, Y are N, S, or O) that may be acid/base labile, releasing an aldehyde.

>  <s_epik_cmdline>  (1) 
J2VwaWtfcHl0aG9uJywgJy1waHQnLCAnMS4wJywgJy1waCcsICc3LjQnLCAnLXRuJywgJzgnLCAnLW1hJywgJzUwMCcsICctaW1hZScsICc8aW5maWxlLm1hZT4nLCAnLW9tYWUnLCAnPG91dGZpbGUubWFlPic=

>  <s_epik_input>  (1) 
W1NIXVMoPU8pKD1PKVtDQEBdMShbQ0gyXVtDSDNdKVtDQEBdKFtDSDNdKShbQ0BASF0xW09IXSlPW0NASF0oW0NAQEhdMltDSDNdKVtOSF1bQ0BASF0oRilbQ0BIXTJbQ0gyXS9bQ0hdPVtDSF1cQyhbQ0gyXVtOSDJdKT1OL0MoPU4vW0hdKS9bQ0gyXVtDSDJdW0NIMl1bTkhdW0NIMl1bT0hd

>  <s_glide_docking_method>  (1) 
confgen

>  <s_i_glide_gridfile>  (1) 
gpcr_drd2_6luq_protein_autoprepared_prepared

>  <s_lp_Force_Field>  (1) 
S-OPLS

>  <s_lp_Variant>  (1) 
DiffSBDD_10_num_sample_50-5

>  <s_m_source_file>  (1) 
generated__ligand_DiffSBDD_2026-05-06_prepared.sdf

>  <GenAI_Model>  (1) 
DiffSBDD

>  <Protein>  (1) 
generic_title2

$$$$
DiffSBDD_2_num_sample_50
     RDKit          3D

  0  0  0  0  0  0  0  0  0  0999 V3000
M  V30 BEGIN CTAB
M  V30 COUNTS 54 57 0 0 1
M  V30 BEGIN ATOM
M  V30 1 C 9.434843 7.921429 -10.649649 0 CFG=1
M  V30 2 C 7.835468 5.211106 -10.203910 0
M  V30 3 O 9.400513 5.090292 -8.502945 0 CHG=-1
M  V30 4 C 8.720189 4.518161 -15.815362 0
M  V30 5 O 7.112105 0.846761 -17.641036 0
M  V30 6 C 7.960261 1.670005 -18.169637 0
M  V30 7 C 11.869458 9.230090 -6.489576 0
M  V30 8 C 6.869192 0.407195 -16.424308 0
M  V30 9 C 11.172000 8.236512 -7.428051 0
M  V30 10 O 6.477318 0.562786 -14.194649 0 CHG=-1
M  V30 11 C 8.417426 2.757327 -17.597651 0
M  V30 12 C 9.751879 4.773306 -17.984374 0
M  V30 13 C 6.915670 1.111887 -15.233687 0
M  V30 14 C 7.753347 6.719064 -12.136135 0
M  V30 15 N 9.434851 7.009687 -9.517534 0 CFG=1 CHG=1
M  V30 16 C 9.264890 5.553513 -9.719186 0 CFG=2
M  V30 17 C 11.263061 8.654891 -8.906281 0
M  V30 18 C 9.472839 5.233179 -16.662901 0
M  V30 19 C 6.508363 4.636841 -12.163417 0
M  V30 20 N 7.714401 5.328997 -11.663490 0
M  V30 21 C 7.434836 2.464447 -15.159336 0
M  V30 22 C 6.661166 4.232148 -13.630449 0
M  V30 23 N 7.292112 3.051570 -13.862357 0
M  V30 24 C 9.265486 3.613527 -18.426420 0
M  V30 25 C 8.116451 3.199696 -16.189494 0
M  V30 26 C 10.706449 7.644216 -9.889374 0 CFG=2
M  V30 27 O 6.209806 4.954644 -14.522507 0
M  V30 28 C 9.158648 7.321327 -12.006871 0
M  V30 29 H 8.849830 8.800626 -10.385660 0
M  V30 30 H 7.062078 5.769301 -9.680937 0
M  V30 31 H 7.652730 4.169326 -9.944659 0
M  V30 32 H 8.591961 4.913380 -14.833376 0
M  V30 33 H 8.191457 1.395233 -19.188643 0
M  V30 34 H 11.778447 8.911064 -5.450804 0
M  V30 35 H 11.434891 10.225538 -6.567880 0
M  V30 36 H 12.931743 9.315616 -6.719795 0
M  V30 37 H 6.477394 -0.598873 -16.465561 0
M  V30 38 H 11.617427 7.248506 -7.301100 0
M  V30 39 H 10.127612 8.140862 -7.128000 0
M  V30 40 H 10.369808 5.373281 -18.635654 0
M  V30 41 H 7.503613 6.761506 -13.195551 0
M  V30 42 H 7.000726 7.327786 -11.633212 0
M  V30 43 H 9.916273 5.202879 -10.512889 0
M  V30 44 H 10.768733 9.604098 -9.091659 0
M  V30 45 H 12.308810 8.822825 -9.168296 0
M  V30 46 H 9.894354 6.169294 -16.330947 0
M  V30 47 H 5.624382 5.262925 -12.028299 0
M  V30 48 H 6.322907 3.722458 -11.598655 0
M  V30 49 H 7.492670 2.455534 -13.071528 0
M  V30 50 H 9.499614 3.302020 -19.434248 0
M  V30 51 H 11.425345 6.969301 -10.335686 0
M  V30 52 H 9.236281 8.159496 -12.691671 0
M  V30 53 H 9.934881 6.615368 -12.305143 0
M  V30 54 H 8.878157 7.400319 -8.769248 0
M  V30 END ATOM
M  V30 BEGIN BOND
M  V30 1 1 6 5
M  V30 2 1 8 5
M  V30 3 1 9 7
M  V30 4 2 11 6
M  V30 5 2 13 8
M  V30 6 1 13 10
M  V30 7 1 15 1
M  V30 8 1 16 2
M  V30 9 1 16 3
M  V30 10 1 16 15
M  V30 11 1 17 9
M  V30 12 2 18 4
M  V30 13 1 18 12
M  V30 14 1 20 2
M  V30 15 1 20 14
M  V30 16 1 20 19
M  V30 17 1 21 13
M  V30 18 1 22 19
M  V30 19 1 23 21
M  V30 20 1 23 22
M  V30 21 1 24 11
M  V30 22 2 24 12
M  V30 23 1 25 4
M  V30 24 1 25 11
M  V30 25 2 25 21
M  V30 26 1 26 1
M  V30 27 1 26 15
M  V30 28 1 26 17
M  V30 29 2 27 22
M  V30 30 1 28 1
M  V30 31 1 28 14
M  V30 32 1 1 29 CFG=1
M  V30 33 1 30 2
M  V30 34 1 31 2
M  V30 35 1 32 4
M  V30 36 1 33 6
M  V30 37 1 34 7
M  V30 38 1 35 7
M  V30 39 1 36 7
M  V30 40 1 37 8
M  V30 41 1 38 9
M  V30 42 1 39 9
M  V30 43 1 40 12
M  V30 44 1 41 14
M  V30 45 1 42 14
M  V30 46 1 16 43 CFG=3
M  V30 47 1 44 17
M  V30 48 1 45 17
M  V30 49 1 46 18
M  V30 50 1 47 19
M  V30 51 1 48 19
M  V30 52 1 49 23
M  V30 53 1 50 24
M  V30 54 1 26 51 CFG=3
M  V30 55 1 52 28
M  V30 56 1 53 28
M  V30 57 1 15 54 CFG=1
M  V30 END BOND
M  V30 END CTAB
M  END
>  <i_epik_Tot_Q>  (1) 
-1

>  <i_epik_Tot_abs_Q>  (1) 
3

>  <i_i_glide_confnum>  (1) 
6

>  <i_i_glide_lignum>  (1) 
6

>  <i_i_glide_posenum>  (1) 
278

>  <i_i_glide_rotatable_bonds>  (1) 
6

>  <i_lp_mmshare_version>  (1) 
72125

>  <i_m_source_file_index>  (1) 
3

>  <i_f3d_flags>  (1) 
0

>  <num_sample>  (1) 
50

>  <b_lp_Chiralities_Consistent>  (1) 
1

>  <r_epik_Charging_Adjusted_Penalty>  (1) 
0.20824401478555332

>  <r_epik_Ionization_Penalty>  (1) 
0.10900575238268746

>  <r_epik_Ionization_Penalty_Charging>  (1) 
0.10898275236366674

>  <r_epik_Ionization_Penalty_Neutral>  (1) 
2.3000019020727684e-05

>  <r_epik_State_Penalty>  (1) 
0.099261262421886584

>  <r_glide_ring_energy>  (1) 
0

>  <r_i_docking_score>  (1) 
-3.9781555519261418

>  <r_i_glide_ecoul>  (1) 
-1.6070913389889556

>  <r_i_glide_eff_state_penalty>  (1) 
0.099261262421886584

>  <r_i_glide_einternal>  (1) 
3.081784698809269

>  <r_i_glide_emodel>  (1) 
-33.825983642957858

>  <r_i_glide_emodel_strain>  (1) 
2.3563919580769834

>  <r_i_glide_energy>  (1) 
-31.167752155621791

>  <r_i_glide_erotb>  (1) 
0.52616126561579779

>  <r_i_glide_esite>  (1) 
-0.13840298224179545

>  <r_i_glide_evdw>  (1) 
-29.560660816632836

>  <r_i_glide_gscore>  (1) 
-4.0774168143480285

>  <r_i_glide_gscore_strain>  (1) 
0

>  <r_i_glide_hbond>  (1) 
-0.045688885103499943

>  <r_i_glide_ligand_efficiency>  (1) 
-0.14207698399736221

>  <r_i_glide_ligand_efficiency_ln>  (1) 
-0.91827510510699695

>  <r_i_glide_ligand_efficiency_sa>  (1) 
-0.43142940276374514

>  <r_i_glide_lipo>  (1) 
-1.4555231884599951

>  <r_i_glide_metal>  (1) 
-0

>  <r_i_glide_rewards>  (1) 
-1.2448662824785501

>  <r_lp_Energy>  (1) 
78.401380000000003

>  <s_epik_Chemistry_Notes>  (1) 
This compound contains an acetal/aminal-like group ( X-CH(R)-Y where X, Y are N, S, or O) that may be acid/base labile, releasing an aldehyde.

>  <s_epik_cmdline>  (1) 
J2VwaWtfcHl0aG9uJywgJy1waHQnLCAnMS4wJywgJy1waCcsICc3LjQnLCAnLXRuJywgJzgnLCAnLW1hJywgJzUwMCcsICctaW1hZScsICc8aW5maWxlLm1hZT4nLCAnLW9tYWUnLCAnPG91dGZpbGUubWFlPic=

>  <s_epik_input>  (1) 
W0NIM11bQ0gyXVtDSDJdW0NIXTFOKFtDQEBIXTEyKVtDQEBIXShbT0hdKVtDSDJdTihbQ0gyXVtDSDJdMilbQ0gyXUMoPU8pW05IXUMoQyhbT0hdKT1bQ0hdT1tDSF09Myk9YyhjMzQpW2NIXVtjSF1bY0hdW2NIXTQ=

>  <s_glide_docking_method>  (1) 
confgen

>  <s_i_glide_gridfile>  (1) 
gpcr_drd2_6luq_protein_autoprepared_prepared

>  <s_lp_Force_Field>  (1) 
S-OPLS

>  <s_lp_Variant>  (1) 
DiffSBDD_2_num_sample_50-1

>  <s_m_source_file>  (1) 
generated__ligand_DiffSBDD_2026-05-06_prepared.sdf

>  <GenAI_Model>  (1) 
DiffSBDD

>  <Protein>  (1) 
generic_title2

$$$$
DiffSBDD_1_num_sample_50
     RDKit          3D

  0  0  0  0  0  0  0  0  0  0999 V3000
M  V30 BEGIN CTAB
M  V30 COUNTS 72 77 0 0 1
M  V30 BEGIN ATOM
M  V30 1 N 8.598934 5.510924 -13.769502 0
M  V30 2 C 9.251527 8.492302 -7.642991 0
M  V30 3 C 9.059274 3.606505 -18.627642 0
M  V30 4 O 10.948448 2.454769 -19.602021 0
M  V30 5 C 8.649758 5.673492 -11.390355 0
M  V30 6 O 6.278449 4.987512 -13.441459 0
M  V30 7 C 7.033038 4.783074 -17.616803 0
M  V30 8 C 9.290305 4.736714 -14.790085 0
M  V30 9 C 11.203758 1.282237 -18.841444 0
M  V30 10 C 9.620991 2.799129 -19.646685 0
M  V30 11 C 9.327748 6.107017 -10.073848 0
M  V30 12 C 12.117486 8.631685 -9.183491 0
M  V30 13 C 10.513097 6.565637 -12.624258 0
M  V30 14 C 6.892393 3.491869 -19.745420 0
M  V30 15 O 8.979210 0.191722 -21.475857 0
M  V30 16 C 7.682418 3.956865 -18.669243 0
M  V30 17 C 7.356302 4.872631 -11.243289 0 CFG=2
M  V30 18 C 6.116966 5.287890 -12.056729 0
M  V30 19 N 10.487451 6.970015 -10.261526 0
M  V30 20 C 9.104081 5.189045 -16.228532 0 CFG=2
M  V30 21 O 9.361888 1.576616 -21.701260 0
M  V30 22 C 9.225006 5.905409 -12.593490 0
M  V30 23 C 7.632353 5.320498 -16.530341 0
M  V30 24 C 7.458088 2.695517 -20.759897 0
M  V30 25 C 13.055193 8.648227 -7.983242 0
M  V30 26 C 7.194946 5.841903 -14.025159 0 CFG=2
M  V30 27 O 7.034476 4.721032 -9.891724 0
M  V30 28 C 11.363662 7.603978 -6.514356 0 CFG=1
M  V30 29 S 10.080726 4.161058 -17.316498 0
M  V30 30 C 11.067797 7.055874 -11.516996 0
M  V30 31 C 8.818108 2.349009 -20.711586 0
M  V30 32 C 10.369258 7.444381 -7.694945 0 CFG=2
M  V30 33 C 6.843235 6.120977 -15.509924 0
M  V30 34 C 11.181003 7.404174 -9.035981 0 CFG=2
M  V30 35 C 12.247471 8.847867 -6.705577 0
M  V30 36 C 10.758722 7.606824 -5.113041 0
M  V30 37 H 9.548436 9.369447 -7.091669 0
M  V30 38 H 8.943757 8.807848 -8.638875 0
M  V30 39 H 8.390253 8.100593 -7.102065 0
M  V30 40 H 5.973720 4.951635 -17.745250 0
M  V30 41 H 8.890549 3.734275 -14.685626 0
M  V30 42 H 10.349419 4.691208 -14.571239 0
M  V30 43 H 12.221222 0.940404 -19.028971 0
M  V30 44 H 11.109569 1.475299 -17.772388 0
M  V30 45 H 10.527398 0.466948 -19.102734 0
M  V30 46 H 8.634134 6.620332 -9.428100 0
M  V30 47 H 9.643289 5.205333 -9.547671 0
M  V30 48 H 12.769445 8.596517 -10.049749 0
M  V30 49 H 11.549454 9.559663 -9.260286 0
M  V30 50 H 11.035483 6.667018 -13.555532 0
M  V30 51 H 5.843228 3.748908 -19.790080 0
M  V30 52 H 9.701929 -0.106100 -20.945321 0
M  V30 53 H 7.616124 3.864439 -11.567960 0
M  V30 54 H 5.839567 6.328768 -11.877382 0
M  V30 55 H 5.264488 4.694708 -11.725584 0
M  V30 56 H 9.547843 6.169297 -16.315184 0
M  V30 57 H 6.843917 2.346005 -21.576830 0
M  V30 58 H 13.567226 7.691856 -7.950509 0
M  V30 59 H 13.855948 9.369283 -8.090996 0
M  V30 60 H 7.061316 6.813710 -13.544002 0
M  V30 61 H 6.785235 5.571258 -9.548352 0
M  V30 62 H 11.992933 6.713682 -6.552525 0
M  V30 63 H 12.021579 7.542631 -11.534952 0
M  V30 64 H 9.895437 6.470979 -7.557929 0
M  V30 65 H 7.034873 7.177830 -15.693607 0
M  V30 66 H 5.768584 5.984994 -15.641765 0
M  V30 67 H 11.834845 6.568811 -8.886351 0
M  V30 68 H 12.902750 8.992719 -5.848319 0
M  V30 69 H 11.665002 9.766586 -6.764902 0
M  V30 70 H 10.578397 8.631017 -4.789677 0
M  V30 71 H 9.835006 7.029501 -5.073538 0
M  V30 72 H 11.460123 7.178822 -4.395920 0
M  V30 END ATOM
M  V30 BEGIN BOND
M  V30 1 1 8 1
M  V30 2 1 9 4
M  V30 3 1 10 3
M  V30 4 1 10 4
M  V30 5 1 11 5
M  V30 6 2 16 3
M  V30 7 1 16 7
M  V30 8 1 16 14
M  V30 9 1 17 5
M  V30 10 1 18 6
M  V30 11 1 18 17
M  V30 12 1 19 11
M  V30 13 1 20 8
M  V30 14 1 21 15
M  V30 15 1 22 1
M  V30 16 2 22 5
M  V30 17 1 22 13
M  V30 18 2 23 7
M  V30 19 1 23 20
M  V30 20 2 24 14
M  V30 21 1 25 12
M  V30 22 1 26 1
M  V30 23 1 26 6
M  V30 24 1 27 17
M  V30 25 1 29 3
M  V30 26 1 29 20
M  V30 27 2 30 13
M  V30 28 1 30 19
M  V30 29 2 31 10
M  V30 30 1 31 21
M  V30 31 1 31 24
M  V30 32 1 32 2
M  V30 33 1 32 28
M  V30 34 1 33 23
M  V30 35 1 33 26
M  V30 36 1 34 12
M  V30 37 1 34 19
M  V30 38 1 34 32
M  V30 39 1 35 25
M  V30 40 1 35 28
M  V30 41 1 36 28
M  V30 42 1 37 2
M  V30 43 1 38 2
M  V30 44 1 39 2
M  V30 45 1 40 7
M  V30 46 1 41 8
M  V30 47 1 42 8
M  V30 48 1 43 9
M  V30 49 1 44 9
M  V30 50 1 45 9
M  V30 51 1 46 11
M  V30 52 1 47 11
M  V30 53 1 48 12
M  V30 54 1 49 12
M  V30 55 1 50 13
M  V30 56 1 51 14
M  V30 57 1 52 15
M  V30 58 1 17 53 CFG=3
M  V30 59 1 54 18
M  V30 60 1 55 18
M  V30 61 1 20 56 CFG=1
M  V30 62 1 57 24
M  V30 63 1 58 25
M  V30 64 1 59 25
M  V30 65 1 26 60 CFG=1
M  V30 66 1 61 27
M  V30 67 1 28 62 CFG=1
M  V30 68 1 63 30
M  V30 69 1 32 64 CFG=1
M  V30 70 1 65 33
M  V30 71 1 66 33
M  V30 72 1 34 67 CFG=1
M  V30 73 1 68 35
M  V30 74 1 69 35
M  V30 75 1 70 36
M  V30 76 1 71 36
M  V30 77 1 72 36
M  V30 END BOND
M  V30 END CTAB
M  END
>  <i_epik_Tot_Q>  (1) 
0

>  <i_epik_Tot_abs_Q>  (1) 
0

>  <i_i_glide_confnum>  (1) 
3

>  <i_i_glide_lignum>  (1) 
4

>  <i_i_glide_posenum>  (1) 
202

>  <i_i_glide_rotatable_bonds>  (1) 
5

>  <i_lp_mmshare_version>  (1) 
72125

>  <i_m_source_file_index>  (1) 
2

>  <i_f3d_flags>  (1) 
0

>  <num_sample>  (1) 
50

>  <b_lp_Chiralities_Consistent>  (1) 
1

>  <r_epik_Charging_Adjusted_Penalty>  (1) 
1.7947178929853217e-12

>  <r_epik_Ionization_Penalty>  (1) 
2.2136665369831182e-05

>  <r_epik_Ionization_Penalty_Charging>  (1) 
1.7947178929853217e-12

>  <r_epik_Ionization_Penalty_Neutral>  (1) 
2.2136663575113287e-05

>  <r_epik_State_Penalty>  (1) 
-0

>  <r_glide_ring_energy>  (1) 
0

>  <r_i_docking_score>  (1) 
-3.9703210271558529

>  <r_i_glide_ecoul>  (1) 
-1.2397912926105059

>  <r_i_glide_eff_state_penalty>  (1) 
-0

>  <r_i_glide_einternal>  (1) 
5.0237769689932215

>  <r_i_glide_emodel>  (1) 
-26.148679899291352

>  <r_i_glide_emodel_strain>  (1) 
4.2409789289001907

>  <r_i_glide_energy>  (1) 
-23.42264892224955

>  <r_i_glide_erotb>  (1) 
0.15600053340392078

>  <r_i_glide_esite>  (1) 
-0.036106140843361091

>  <r_i_glide_evdw>  (1) 
-22.182857629639045

>  <r_i_glide_gscore>  (1) 
-3.9703210271558529

>  <r_i_glide_gscore_strain>  (1) 
0.06024473222504767

>  <r_i_glide_hbond>  (1) 
-0.070523399824987412

>  <r_i_glide_ligand_efficiency>  (1) 
-0.1102866951987737

>  <r_i_glide_ligand_efficiency_ln>  (1) 
-0.86621678244732991

>  <r_i_glide_ligand_efficiency_sa>  (1) 
-0.36415864406736714

>  <r_i_glide_lipo>  (1) 
-1.9471788466033388

>  <r_i_glide_metal>  (1) 
-0

>  <r_i_glide_rewards>  (1) 
-0.83764633013960554

>  <r_lp_Energy>  (1) 
70.104143999999991

>  <r_lp_tautomer_probability>  (1) 
1

>  <s_epik_Chemistry_Notes>  (1) 
This compound has an imine and may undergo hydrolysis. This compound contains an acetal/aminal-like group ( X-CH(R)-Y where X, Y are N, S, or O) that may be acid/base labile, releasing an aldehyde.

>  <s_epik_cmdline>  (1) 
J2VwaWtfcHl0aG9uJywgJy1waHQnLCAnMS4wJywgJy1waCcsICc3LjQnLCAnLXRuJywgJzgnLCAnLW1hJywgJzUwMCcsICctaW1hZScsICc8aW5maWxlLm1hZT4nLCAnLW9tYWUnLCAnPG91dGZpbGUubWFlPic=

>  <s_epik_input>  (1) 
W0NIMl0xW0NIMl1bQ0gyXVtDQEBIXShbQ0BIXShbQ0gzXSlbQ0BASF0xW0NIM10pTihbQ0hdPVtDSF0yKVtDSDJdQyg9QzJOMzQpW0NAQEhdKFtPSF0pW0NIMl1PW0NAQEhdNFtDSDJdQzVbQ0BASF0oW0NIMl0zKVNjNmMoW0NIXT01KVtjSF1bY0hdYyhPW09IXSljNk9bQ0gzXQ==

>  <s_glide_docking_method>  (1) 
confgen

>  <s_i_glide_gridfile>  (1) 
gpcr_drd2_6luq_protein_autoprepared_prepared

>  <s_lp_Force_Field>  (1) 
S-OPLS

>  <s_lp_Variant>  (1) 
DiffSBDD_1_num_sample_50-1

>  <s_m_source_file>  (1) 
generated__ligand_DiffSBDD_2026-05-06_prepared.sdf

>  <GenAI_Model>  (1) 
DiffSBDD

>  <Protein>  (1) 
generic_title2

$$$$
DiffSBDD_24_num_sample_50
     RDKit          3D

  0  0  0  0  0  0  0  0  0  0999 V3000
M  V30 BEGIN CTAB
M  V30 COUNTS 84 90 0 0 1
M  V30 BEGIN ATOM
M  V30 1 N 9.978725 4.485732 -17.731815 0
M  V30 2 C 9.939936 7.856519 -10.225387 0
M  V30 3 O 6.159144 7.081739 -15.118763 0
M  V30 4 C 6.802974 4.887194 -18.297943 0 CFG=2
M  V30 5 C 13.565411 1.655813 -18.059644 0 CFG=1
M  V30 6 C 9.435021 7.025226 -7.783380 0 CFG=2
M  V30 7 C 6.606542 5.030985 -14.012964 0 CFG=2
M  V30 8 C 7.712953 5.546355 -16.212951 0
M  V30 9 N 14.391194 1.932607 -19.237210 0
M  V30 10 N 8.027059 4.948126 -11.988221 0
M  V30 11 C 9.140185 5.059066 -14.183825 0
M  V30 12 C 8.877691 3.526185 -17.987190 0
M  V30 13 C 12.189769 2.306756 -18.244097 0
M  V30 14 C 8.934168 5.241289 -15.687166 0
M  V30 15 C 15.529973 1.029768 -19.153562 0
M  V30 16 C 11.026689 4.535024 -18.763945 0
M  V30 17 C 14.718785 3.360105 -19.297983 0 CFG=2
M  V30 18 O 11.189510 5.769575 -16.291693 0
M  V30 19 C 9.065501 8.260735 -6.979171 0
M  V30 20 F 6.606183 3.703652 -14.161839 0
M  V30 21 C 13.393677 4.117697 -19.512168 0
M  V30 22 C 6.442199 6.648723 -20.156028 0
M  V30 23 C 14.918103 -0.353449 -18.959130 0 CFG=1
M  V30 24 C 5.572063 7.798179 -16.193771 0
M  V30 25 C 12.351718 3.826934 -18.414557 0 CFG=2
M  V30 26 C 7.842422 4.033526 -19.001323 0
M  V30 27 F 11.452293 7.857378 -6.777120 0
M  V30 28 C 10.421454 7.267805 -8.912597 0 CFG=2
M  V30 29 C 10.131878 5.202641 -16.563174 0
M  V30 30 C 5.807387 5.605902 -19.224950 0
M  V30 31 C 6.435898 5.708521 -15.384795 0 CFG=2
M  V30 32 C 7.920311 5.496560 -13.345623 0 CFG=1
M  V30 33 C 15.701697 3.677542 -20.439678 0
M  V30 34 S 13.482276 -0.140828 -17.897046 0
M  V30 35 C 8.720147 5.701698 -10.938362 0 CFG=1
M  V30 36 O 7.549565 5.825268 -17.548317 0
M  V30 37 C 10.414876 8.117101 -7.651664 0 CFG=1
M  V30 38 Cl 14.430076 -1.030430 -20.534915 0
M  V30 39 C 9.692278 6.817837 -11.334768 0
M  V30 40 C 7.225992 5.772951 -11.091716 0
M  V30 41 H 9.034778 8.436078 -10.045988 0
M  V30 42 H 10.690307 8.569099 -10.566951 0
M  V30 43 H 6.234839 4.217890 -17.664254 0
M  V30 44 H 14.054261 2.043498 -17.163696 0
M  V30 45 H 9.596757 6.118570 -7.203873 0
M  V30 46 H 5.744246 5.261103 -13.386744 0
M  V30 47 H 9.349688 4.015625 -13.974696 0
M  V30 48 H 10.024780 5.612417 -13.868505 0
M  V30 49 H 8.409710 3.139137 -17.081130 0
M  V30 50 H 9.337022 2.637210 -18.420011 0
M  V30 51 H 11.691850 1.879221 -19.115883 0
M  V30 52 H 11.560208 2.089192 -17.380895 0
M  V30 53 H 16.161132 1.060521 -20.042032 0
M  V30 54 H 16.139009 1.292842 -18.292201 0
M  V30 55 H 10.643620 4.129232 -19.701158 0
M  V30 56 H 11.227807 5.586278 -18.978839 0
M  V30 57 H 15.168504 3.672409 -18.354191 0
M  V30 58 H 8.370622 8.969379 -7.422842 0
M  V30 59 H 9.019181 8.169436 -5.897154 0
M  V30 60 H 13.589576 5.190013 -19.549820 0
M  V30 61 H 12.980862 3.849944 -20.486552 0
M  V30 62 H 5.674661 7.190518 -20.708390 0
M  V30 63 H 7.104716 6.187918 -20.887941 0
M  V30 64 H 7.021986 7.379460 -19.592743 0
M  V30 65 H 15.632926 -1.030697 -18.505463 0
M  V30 66 H 5.404239 8.831578 -15.891864 0
M  V30 67 H 4.608071 7.372124 -16.472092 0
M  V30 68 H 6.213611 7.812084 -17.072360 0
M  V30 69 H 12.751697 4.225439 -17.482248 0
M  V30 70 H 8.337341 4.588889 -19.797201 0
M  V30 71 H 7.345922 3.187864 -19.478365 0
M  V30 72 H 11.249899 6.570168 -9.009643 0
M  V30 73 H 5.269173 4.867774 -19.820761 0
M  V30 74 H 5.054751 6.099243 -18.610432 0
M  V30 75 H 5.563198 5.305078 -15.886283 0
M  V30 76 H 7.875562 6.584121 -13.338861 0
M  V30 77 H 15.827019 4.754956 -20.551858 0
M  V30 78 H 15.344734 3.287693 -21.393570 0
M  V30 79 H 16.691965 3.263212 -20.252616 0
M  V30 80 H 9.070662 5.108739 -10.096036 0
M  V30 81 H 10.635256 6.356323 -11.623362 0
M  V30 82 H 9.346879 7.371937 -12.202590 0
M  V30 83 H 6.795093 6.698884 -11.471872 0
M  V30 84 H 6.628242 5.265614 -10.337277 0
M  V30 END ATOM
M  V30 BEGIN BOND
M  V30 1 1 9 5
M  V30 2 1 12 1
M  V30 3 1 13 5
M  V30 4 2 14 8
M  V30 5 1 14 11
M  V30 6 1 15 9
M  V30 7 1 16 1
M  V30 8 1 17 9
M  V30 9 1 19 6
M  V30 10 1 20 7
M  V30 11 1 21 17
M  V30 12 1 23 15
M  V30 13 1 24 3
M  V30 14 1 25 13
M  V30 15 1 25 16
M  V30 16 1 25 21
M  V30 17 1 26 4
M  V30 18 1 26 12
M  V30 19 1 28 2
M  V30 20 1 28 6
M  V30 21 1 29 1
M  V30 22 1 29 14
M  V30 23 2 29 18
M  V30 24 1 30 4
M  V30 25 1 30 22
M  V30 26 1 31 3
M  V30 27 1 31 7
M  V30 28 1 31 8
M  V30 29 1 32 7
M  V30 30 1 32 10
M  V30 31 1 32 11
M  V30 32 1 33 17
M  V30 33 1 34 5
M  V30 34 1 34 23
M  V30 35 1 35 10
M  V30 36 1 36 4
M  V30 37 1 36 8
M  V30 38 1 37 6
M  V30 39 1 37 19
M  V30 40 1 37 27 CFG=1
M  V30 41 1 37 28
M  V30 42 1 38 23
M  V30 43 1 39 2
M  V30 44 1 39 35
M  V30 45 1 40 10
M  V30 46 1 40 35
M  V30 47 1 41 2
M  V30 48 1 42 2
M  V30 49 1 4 43 CFG=1
M  V30 50 1 5 44 CFG=1
M  V30 51 1 6 45 CFG=1
M  V30 52 1 7 46 CFG=1
M  V30 53 1 47 11
M  V30 54 1 48 11
M  V30 55 1 49 12
M  V30 56 1 50 12
M  V30 57 1 51 13
M  V30 58 1 52 13
M  V30 59 1 53 15
M  V30 60 1 54 15
M  V30 61 1 55 16
M  V30 62 1 56 16
M  V30 63 1 17 57 CFG=1
M  V30 64 1 58 19
M  V30 65 1 59 19
M  V30 66 1 60 21
M  V30 67 1 61 21
M  V30 68 1 62 22
M  V30 69 1 63 22
M  V30 70 1 64 22
M  V30 71 1 23 65 CFG=1
M  V30 72 1 66 24
M  V30 73 1 67 24
M  V30 74 1 68 24
M  V30 75 1 25 69 CFG=1
M  V30 76 1 70 26
M  V30 77 1 71 26
M  V30 78 1 28 72 CFG=3
M  V30 79 1 73 30
M  V30 80 1 74 30
M  V30 81 1 31 75 CFG=3
M  V30 82 1 32 76 CFG=1
M  V30 83 1 77 33
M  V30 84 1 78 33
M  V30 85 1 79 33
M  V30 86 1 35 80 CFG=1
M  V30 87 1 81 39
M  V30 88 1 82 39
M  V30 89 1 83 40
M  V30 90 1 84 40
M  V30 END BOND
M  V30 END CTAB
M  END
>  <i_epik_Tot_Q>  (1) 
0

>  <i_epik_Tot_abs_Q>  (1) 
0

>  <i_i_glide_confnum>  (1) 
165

>  <i_i_glide_lignum>  (1) 
66

>  <i_i_glide_posenum>  (1) 
88

>  <i_i_glide_rotatable_bonds>  (1) 
8

>  <i_lp_mmshare_version>  (1) 
72125

>  <i_m_source_file_index>  (1) 
25

>  <i_f3d_flags>  (1) 
0

>  <num_sample>  (1) 
50

>  <b_lp_Chiralities_Consistent>  (1) 
1

>  <r_epik_Charging_Adjusted_Penalty>  (1) 
0.52172569417545378

>  <r_epik_Ionization_Penalty>  (1) 
0.52172594648505022

>  <r_epik_Ionization_Penalty_Charging>  (1) 
0

>  <r_epik_Ionization_Penalty_Neutral>  (1) 
0.52172594648505022

>  <r_epik_State_Penalty>  (1) 
0.52172569417545378

>  <r_glide_ring_energy>  (1) 
0

>  <r_i_docking_score>  (1) 
-3.9568391782643983

>  <r_i_glide_ecoul>  (1) 
-0.056470980667661763

>  <r_i_glide_eff_state_penalty>  (1) 
0.52172569417545378

>  <r_i_glide_einternal>  (1) 
8.6600703108543939

>  <r_i_glide_emodel>  (1) 
-42.889001284778757

>  <r_i_glide_emodel_strain>  (1) 
0

>  <r_i_glide_energy>  (1) 
-37.481667748633939

>  <r_i_glide_erotb>  (1) 
0.23292316522527595

>  <r_i_glide_esite>  (1) 
0

>  <r_i_glide_evdw>  (1) 
-37.425196767966277

>  <r_i_glide_gscore>  (1) 
-4.4785648724398524

>  <r_i_glide_gscore_strain>  (1) 
0

>  <r_i_glide_hbond>  (1) 
0

>  <r_i_glide_ligand_efficiency>  (1) 
-0.098920979456609964

>  <r_i_glide_ligand_efficiency_ln>  (1) 
-0.84387735214492265

>  <r_i_glide_ligand_efficiency_sa>  (1) 
-0.33830499098500549

>  <r_i_glide_lipo>  (1) 
-1.8837351890065568

>  <r_i_glide_metal>  (1) 
-0

>  <r_i_glide_rewards>  (1) 
-0.94802236316010835

>  <r_lp_Energy>  (1) 
49.504489

>  <s_epik_Chemistry_Notes>  (1) 
This compound contains an acetal/aminal-like group ( X-CH(R)-Y where X, Y are N, S, or O) that may be acid/base labile, releasing an aldehyde.

>  <s_epik_cmdline>  (1) 
J2VwaWtfcHl0aG9uJywgJy1waHQnLCAnMS4wJywgJy1waCcsICc3LjQnLCAnLXRuJywgJzgnLCAnLW1hJywgJzUwMCcsICctaW1hZScsICc8aW5maWxlLm1hZT4nLCAnLW9tYWUnLCAnPG91dGZpbGUubWFlPic=

>  <s_epik_input>  (1) 
UzFbQ0BASF0oQ2wpW0NIMl1OKFtDQEhdMTIpW0NAQEhdKFtDSDNdKVtDSDJdW0NASF0oW0NIMl0yKVtDSDJdTihbQ0gyXVtDSDJdW0NAQEhdKE8zKVtDSDJdW0NIM10pQyg9TylDKD1DMzQpW0NIMl1bQ0BASF0oW0NASF0oRilbQ0BIXTRPW0NIM10pTjVbQ0BIXShbQ0gyXTUpW0NIMl1bQ0gyXVtDQEBIXTZbQ0hdKFtDSDJdNylDNjdG

>  <s_glide_docking_method>  (1) 
confgen

>  <s_i_glide_gridfile>  (1) 
gpcr_drd2_6luq_protein_autoprepared_prepared

>  <s_lp_Force_Field>  (1) 
S-OPLS

>  <s_lp_Variant>  (1) 
DiffSBDD_24_num_sample_50-3

>  <s_m_source_file>  (1) 
generated__ligand_DiffSBDD_2026-05-06_prepared.sdf

>  <GenAI_Model>  (1) 
DiffSBDD

>  <Protein>  (1) 
generic_title2

$$$$
DiffSBDD_14_num_sample_50
     RDKit          3D

  0  0  0  0  0  0  0  0  0  0999 V3000
M  V30 BEGIN CTAB
M  V30 COUNTS 70 74 0 0 1
M  V30 BEGIN ATOM
M  V30 1 C 7.391845 3.814613 -17.076275 0 CFG=2
M  V30 2 C 9.616274 6.828100 -11.653645 0 CFG=1
M  V30 3 C 8.584653 1.992140 -18.434201 0
M  V30 4 C 8.367291 5.373467 -18.755759 0
M  V30 5 C 7.833165 4.127607 -13.112611 0
M  V30 6 C 11.359686 8.726147 -4.879833 0
M  V30 7 O 11.892407 9.769420 -4.206774 0
M  V30 8 C 10.850633 7.414772 -10.975087 0
M  V30 9 O 9.834676 5.957682 -9.456621 0
M  V30 10 C 9.034778 8.141036 -7.817660 0
M  V30 11 N 9.726038 8.320025 -9.094972 0 CHG=1
M  V30 12 N 8.923786 3.991742 -12.342840 0
M  V30 13 C 7.283089 4.506319 -15.663488 0 CFG=2
M  V30 14 C 8.743136 3.143282 -17.429040 0 CFG=1
M  V30 15 C 8.952516 4.348670 -10.934345 0
M  V30 16 C 12.593418 8.219293 -2.499063 0
M  V30 17 O 12.389281 7.133781 -3.361962 0
M  V30 18 C 6.037083 4.287304 -19.282441 0
M  V30 19 O 6.767303 4.582903 -12.699193 0
M  V30 20 C 7.749516 5.970872 -15.619172 0
M  V30 21 C 9.010004 5.853611 -10.612697 0 CFG=2
M  V30 22 C 10.541117 8.968339 -5.984649 0
M  V30 23 O 8.705799 7.886549 -11.891598 0
M  V30 24 C 12.942847 9.413297 -3.363731 0
M  V30 25 C 7.071714 4.735471 -18.261345 0
M  V30 26 S 9.783999 4.436621 -18.128630 0
M  V30 27 C 11.035673 6.348451 -5.148867 0
M  V30 28 C 7.977653 3.677941 -14.566518 0
M  V30 29 C 5.760289 5.477287 -18.404653 0
M  V30 30 C 9.954699 7.893196 -6.666208 0
M  V30 31 C 10.211579 6.580754 -6.252370 0
M  V30 32 C 10.634863 7.088724 -9.507996 0 CFG=2
M  V30 33 C 11.600560 7.399326 -4.456374 0
M  V30 34 H 6.650219 3.013345 -17.056176 0
M  V30 35 H 9.866625 6.360053 -12.605913 0
M  V30 36 H 7.924037 1.217209 -18.043915 0
M  V30 37 H 8.178204 2.332742 -19.385866 0
M  V30 38 H 9.547397 1.522802 -18.638362 0
M  V30 39 H 8.395813 5.390260 -19.844897 0
M  V30 40 H 8.436219 6.404940 -18.410505 0
M  V30 41 H 11.763179 6.940246 -11.329170 0
M  V30 42 H 10.980262 8.487004 -11.091510 0
M  V30 43 H 8.402931 9.001325 -7.603326 0
M  V30 44 H 8.405310 7.256603 -7.890836 0
M  V30 45 H 10.264387 9.171537 -9.076205 0
M  V30 46 H 9.767127 3.609324 -12.747693 0
M  V30 47 H 6.226397 4.537784 -15.410205 0
M  V30 48 H 9.247538 2.704325 -16.574305 0
M  V30 49 H 9.830805 3.853480 -10.520053 0
M  V30 50 H 8.091397 3.919453 -10.424715 0
M  V30 51 H 13.405854 8.008645 -1.807510 0
M  V30 52 H 11.694815 8.402386 -1.908997 0
M  V30 53 H 6.238639 4.479358 -20.335294 0
M  V30 54 H 5.470766 3.380379 -19.082172 0
M  V30 55 H 8.803545 6.061561 -15.879628 0
M  V30 56 H 7.161070 6.571966 -16.307913 0
M  V30 57 H 7.618070 6.421169 -14.634964 0
M  V30 58 H 8.002747 6.169009 -10.343428 0
M  V30 59 H 10.347258 9.979369 -6.292382 0
M  V30 60 H 7.851271 7.514914 -12.069221 0
M  V30 61 H 13.834793 9.335480 -3.971826 0
M  V30 62 H 13.034793 10.216422 -2.691655 0
M  V30 63 H 11.224532 5.369299 -4.821717 0
M  V30 64 H 9.034687 3.769351 -14.773940 0
M  V30 65 H 7.700113 2.624904 -14.633795 0
M  V30 66 H 5.031963 5.370258 -17.606858 0
M  V30 67 H 5.786665 6.456425 -18.878434 0
M  V30 68 H 9.763258 5.750305 -6.774605 0
M  V30 69 H 11.539806 7.012410 -8.905449 0
M  V30 70 H 8.972023 8.410168 -9.772678 0
M  V30 END ATOM
M  V30 BEGIN BOND
M  V30 1 1 7 6
M  V30 2 1 8 2
M  V30 3 1 11 10
M  V30 4 1 12 5
M  V30 5 1 13 1
M  V30 6 1 14 1
M  V30 7 1 14 3
M  V30 8 1 15 12
M  V30 9 1 17 16
M  V30 10 2 19 5
M  V30 11 1 20 13
M  V30 12 1 21 2
M  V30 13 1 21 9
M  V30 14 1 21 15
M  V30 15 1 22 6
M  V30 16 1 23 2
M  V30 17 1 24 7
M  V30 18 1 24 16
M  V30 19 1 25 1
M  V30 20 1 25 4
M  V30 21 1 25 18
M  V30 22 1 26 4
M  V30 23 1 26 14
M  V30 24 1 28 5
M  V30 25 1 28 13
M  V30 26 1 29 18
M  V30 27 1 29 25
M  V30 28 1 30 10
M  V30 29 2 30 22
M  V30 30 2 31 27
M  V30 31 1 31 30
M  V30 32 1 32 8
M  V30 33 1 32 9
M  V30 34 1 32 11
M  V30 35 2 33 6
M  V30 36 1 33 17
M  V30 37 1 33 27
M  V30 38 1 1 34 CFG=1
M  V30 39 1 2 35 CFG=3
M  V30 40 1 36 3
M  V30 41 1 37 3
M  V30 42 1 38 3
M  V30 43 1 39 4
M  V30 44 1 40 4
M  V30 45 1 41 8
M  V30 46 1 42 8
M  V30 47 1 43 10
M  V30 48 1 44 10
M  V30 49 1 45 11
M  V30 50 1 46 12
M  V30 51 1 13 47 CFG=1
M  V30 52 1 14 48 CFG=1
M  V30 53 1 49 15
M  V30 54 1 50 15
M  V30 55 1 51 16
M  V30 56 1 52 16
M  V30 57 1 53 18
M  V30 58 1 54 18
M  V30 59 1 55 20
M  V30 60 1 56 20
M  V30 61 1 57 20
M  V30 62 1 21 58 CFG=1
M  V30 63 1 59 22
M  V30 64 1 60 23
M  V30 65 1 61 24
M  V30 66 1 62 24
M  V30 67 1 63 27
M  V30 68 1 64 28
M  V30 69 1 65 28
M  V30 70 1 66 29
M  V30 71 1 67 29
M  V30 72 1 68 31
M  V30 73 1 32 69 CFG=1
M  V30 74 1 70 11
M  V30 END BOND
M  V30 END CTAB
M  END
>  <i_epik_Tot_Q>  (1) 
1

>  <i_epik_Tot_abs_Q>  (1) 
1

>  <i_i_glide_confnum>  (1) 
1354

>  <i_i_glide_lignum>  (1) 
51

>  <i_i_glide_posenum>  (1) 
229

>  <i_i_glide_rotatable_bonds>  (1) 
10

>  <i_lp_mmshare_version>  (1) 
72125

>  <i_m_source_file_index>  (1) 
15

>  <i_f3d_flags>  (1) 
0

>  <num_sample>  (1) 
50

>  <b_lp_Chiralities_Consistent>  (1) 
1

>  <r_epik_Charging_Adjusted_Penalty>  (1) 
1.0556351429747846

>  <r_epik_Ionization_Penalty>  (1) 
0.52782311309915253

>  <r_epik_Ionization_Penalty_Charging>  (1) 
0.52781757148739228

>  <r_epik_Ionization_Penalty_Neutral>  (1) 
5.5416117603015013e-06

>  <r_epik_State_Penalty>  (1) 
0.52781757148739217

>  <r_glide_ring_energy>  (1) 
1.486375344435521

>  <r_i_docking_score>  (1) 
-3.9508901815660886

>  <r_i_glide_ecoul>  (1) 
-4.4385661535999557

>  <r_i_glide_eff_state_penalty>  (1) 
0.52781757148739217

>  <r_i_glide_einternal>  (1) 
9.9153273983056991

>  <r_i_glide_emodel>  (1) 
-35.704577226108896

>  <r_i_glide_emodel_strain>  (1) 
2.1529983158819164

>  <r_i_glide_energy>  (1) 
-28.937951348009584

>  <r_i_glide_erotb>  (1) 
0.79916653529319603

>  <r_i_glide_esite>  (1) 
-0.13099166628406994

>  <r_i_glide_evdw>  (1) 
-24.49938519440963

>  <r_i_glide_gscore>  (1) 
-4.4787077530534809

>  <r_i_glide_gscore_strain>  (1) 
0

>  <r_i_glide_hbond>  (1) 
-0.075830481014830198

>  <r_i_glide_ligand_efficiency>  (1) 
-0.11972394489594208

>  <r_i_glide_ligand_efficiency_ln>  (1) 
-0.87865751976575246

>  <r_i_glide_ligand_efficiency_sa>  (1) 
-0.38401866337626284

>  <r_i_glide_lipo>  (1) 
-2.4503079190374861

>  <r_i_glide_metal>  (1) 
-0

>  <r_i_glide_rewards>  (1) 
-0.72999003924981509

>  <r_lp_Energy>  (1) 
8.7074730000000002

>  <r_lp_tautomer_probability>  (1) 
1

>  <s_epik_Chemistry_Notes>  (1) 
This compound contains an acetal/aminal-like group ( X-CH(R)-Y where X, Y are N, S, or O) that may be acid/base labile, releasing an aldehyde.

>  <s_epik_cmdline>  (1) 
J2VwaWtfcHl0aG9uJywgJy1waHQnLCAnMS4wJywgJy1waCcsICc3LjQnLCAnLXRuJywgJzgnLCAnLW1hJywgJzUwMCcsICctaW1hZScsICc8aW5maWxlLm1hZT4nLCAnLW9tYWUnLCAnPG91dGZpbGUubWFlPic=

>  <s_epik_input>  (1) 
W0NIMl0xU1tDQEhdKFtDSDNdKVtDQEhdKEMxMltDSDJdW0NIMl0yKVtDQEhdKFtDSDNdKVtDSDJdQyg9TylbTkhdW0NIMl1bQ0BIXTNPW0NAQEhdKFtDSDJdW0NAQEhdM1tPSF0pW05IXVtDSDJdYyhbY0hdNClbY0hdW2NIXWMoYzQ1KU9bQ0gyXVtDSDJdTzU=

>  <s_glide_docking_method>  (1) 
confgen

>  <s_i_glide_gridfile>  (1) 
gpcr_drd2_6luq_protein_autoprepared_prepared

>  <s_lp_Force_Field>  (1) 
S-OPLS

>  <s_lp_Variant>  (1) 
DiffSBDD_14_num_sample_50-2

>  <s_m_source_file>  (1) 
generated__ligand_DiffSBDD_2026-05-06_prepared.sdf

>  <GenAI_Model>  (1) 
DiffSBDD

>  <Protein>  (1) 
generic_title2

$$$$
DiffSBDD_22_num_sample_50
     RDKit          3D

  0  0  0  0  0  0  0  0  0  0999 V3000
M  V30 BEGIN CTAB
M  V30 COUNTS 53 56 0 0 1
M  V30 BEGIN ATOM
M  V30 1 C 8.164915 4.606870 -12.477352 0
M  V30 2 C 10.555164 5.036091 -16.742538 0
M  V30 3 O 11.423702 5.901109 -16.644034 0
M  V30 4 C 6.810249 3.532644 -14.136526 0 CFG=1
M  V30 5 C 9.173407 4.359870 -11.376031 0
M  V30 6 C 9.526424 4.816281 -15.638585 0
M  V30 7 C 7.962560 0.174574 -14.206074 0
M  V30 8 S 8.016342 0.801692 -16.920650 0
M  V30 9 C 7.853776 1.355179 -15.187323 0 CFG=1
M  V30 10 C 6.631378 4.891639 -14.883806 0 CFG=2
M  V30 11 C 7.507916 5.768699 -12.680382 0
M  V30 12 O 6.599675 7.292286 -14.324691 0
M  V30 13 C 6.634726 2.216284 -14.934172 0
M  V30 14 C 7.518865 4.782511 -17.845010 0 CFG=2
M  V30 15 C 10.462405 4.139094 -17.984852 0 CFG=1
M  V30 16 C 8.408794 5.510037 -18.870048 0
M  V30 17 S 7.894131 5.370182 -16.141695 0 CHG=1
M  V30 18 C 7.385906 3.275285 -18.176108 0
M  V30 19 C 8.700333 4.887978 -10.014864 0
M  V30 20 C 10.008352 2.681219 -17.690180 0
M  V30 21 C 6.502461 5.982318 -13.793140 0 CFG=1
M  V30 22 C 9.755370 4.823692 -19.175330 0
M  V30 23 C 8.531015 2.251431 -17.928214 0 CFG=1
M  V30 24 O 7.953124 3.508112 -13.281093 0
M  V30 25 H 5.977077 3.498239 -13.432278 0
M  V30 26 H 9.352731 3.286597 -11.305892 0
M  V30 27 H 10.125494 4.809269 -11.659918 0
M  V30 28 H 9.829926 5.307397 -14.712154 0
M  V30 29 H 9.434881 3.769299 -15.455433 0
M  V30 30 H 7.921536 0.517107 -13.171667 0
M  V30 31 H 8.887259 -0.389291 -14.319767 0
M  V30 32 H 7.141528 -0.525418 -14.357545 0
M  V30 33 H 8.634846 2.031935 -15.002226 0
M  V30 34 H 5.686618 4.914078 -15.418009 0
M  V30 35 H 7.691817 6.608980 -12.023822 0
M  V30 36 H 5.737465 7.594857 -14.574663 0
M  V30 37 H 5.887119 1.592999 -14.434918 0
M  V30 38 H 6.235619 2.469378 -15.893682 0
M  V30 39 H 6.519638 5.188227 -18.006368 0
M  V30 40 H 11.504828 4.041942 -18.291294 0
M  V30 41 H 7.859854 5.607519 -19.807315 0
M  V30 42 H 8.580139 6.537393 -18.543623 0
M  V30 43 H 6.432514 2.875220 -17.851198 0
M  V30 44 H 7.221619 3.267549 -19.257004 0
M  V30 45 H 9.391272 4.594330 -9.225097 0
M  V30 46 H 7.717179 4.490536 -9.757555 0
M  V30 47 H 8.625503 5.975949 -10.007736 0
M  V30 48 H 10.622140 2.042909 -18.327941 0
M  V30 49 H 10.325665 2.373270 -16.695004 0
M  V30 50 H 5.521618 5.902263 -13.321024 0
M  V30 51 H 10.424476 5.577299 -19.593777 0
M  V30 52 H 9.615826 4.094560 -19.974984 0
M  V30 53 H 8.596554 1.772665 -18.908532 0
M  V30 END ATOM
M  V30 BEGIN BOND
M  V30 1 2 3 2
M  V30 2 1 5 1
M  V30 3 1 6 2
M  V30 4 1 9 7
M  V30 5 1 9 8
M  V30 6 1 10 4
M  V30 7 2 11 1
M  V30 8 1 13 4
M  V30 9 1 13 9
M  V30 10 1 15 2
M  V30 11 1 16 14
M  V30 12 1 17 6 CFG=1
M  V30 13 1 17 10
M  V30 14 1 17 14
M  V30 15 1 18 14
M  V30 16 1 19 5
M  V30 17 1 20 15
M  V30 18 1 21 10
M  V30 19 1 21 11
M  V30 20 1 21 12
M  V30 21 1 22 15
M  V30 22 1 22 16
M  V30 23 1 23 8
M  V30 24 1 23 18
M  V30 25 1 23 20
M  V30 26 1 24 1
M  V30 27 1 24 4
M  V30 28 1 4 25 CFG=1
M  V30 29 1 26 5
M  V30 30 1 27 5
M  V30 31 1 28 6
M  V30 32 1 29 6
M  V30 33 1 30 7
M  V30 34 1 31 7
M  V30 35 1 32 7
M  V30 36 1 9 33 CFG=1
M  V30 37 1 10 34 CFG=3
M  V30 38 1 35 11
M  V30 39 1 36 12
M  V30 40 1 37 13
M  V30 41 1 38 13
M  V30 42 1 14 39 CFG=3
M  V30 43 1 15 40 CFG=3
M  V30 44 1 41 16
M  V30 45 1 42 16
M  V30 46 1 43 18
M  V30 47 1 44 18
M  V30 48 1 45 19
M  V30 49 1 46 19
M  V30 50 1 47 19
M  V30 51 1 48 20
M  V30 52 1 49 20
M  V30 53 1 21 50 CFG=1
M  V30 54 1 51 22
M  V30 55 1 52 22
M  V30 56 1 23 53 CFG=3
M  V30 END BOND
M  V30 END CTAB
M  END
>  <i_epik_Tot_Q>  (1) 
1

>  <i_epik_Tot_abs_Q>  (1) 
1

>  <i_i_glide_confnum>  (1) 
1

>  <i_i_glide_lignum>  (1) 
60

>  <i_i_glide_posenum>  (1) 
278

>  <i_i_glide_rotatable_bonds>  (1) 
2

>  <i_lp_mmshare_version>  (1) 
72125

>  <i_m_source_file_index>  (1) 
23

>  <i_f3d_flags>  (1) 
0

>  <num_sample>  (1) 
50

>  <b_lp_Chiralities_Consistent>  (1) 
1

>  <r_epik_Charging_Adjusted_Penalty>  (1) 
0.074119830427950756

>  <r_epik_Ionization_Penalty>  (1) 
0.0741198432157502

>  <r_epik_Ionization_Penalty_Charging>  (1) 
0

>  <r_epik_Ionization_Penalty_Neutral>  (1) 
0.0741198432157502

>  <r_epik_State_Penalty>  (1) 
0.074119830427950756

>  <r_glide_ring_energy>  (1) 
0

>  <r_i_docking_score>  (1) 
-3.9431773256063609

>  <r_i_glide_ecoul>  (1) 
-0.69225752700390242

>  <r_i_glide_eff_state_penalty>  (1) 
0.074119830427950756

>  <r_i_glide_einternal>  (1) 
0.42654896639201045

>  <r_i_glide_emodel>  (1) 
-25.321754328738088

>  <r_i_glide_emodel_strain>  (1) 
1.0194546549577552

>  <r_i_glide_energy>  (1) 
-21.199333221499568

>  <r_i_glide_erotb>  (1) 
0

>  <r_i_glide_esite>  (1) 
0

>  <r_i_glide_evdw>  (1) 
-20.507075694495665

>  <r_i_glide_gscore>  (1) 
-4.0172971560343118

>  <r_i_glide_gscore_strain>  (1) 
0

>  <r_i_glide_hbond>  (1) 
0

>  <r_i_glide_ligand_efficiency>  (1) 
-0.16429905523359836

>  <r_i_glide_ligand_efficiency_ln>  (1) 
-0.94378327463482581

>  <r_i_glide_ligand_efficiency_sa>  (1) 
-0.47392048362514083

>  <r_i_glide_lipo>  (1) 
-1.4741646110048856

>  <r_i_glide_metal>  (1) 
-0

>  <r_i_glide_rewards>  (1) 
-1.4139401312540576

>  <r_lp_Energy>  (1) 
36.408808000000001

>  <s_epik_cmdline>  (1) 
J2VwaWtfcHl0aG9uJywgJy1waHQnLCAnMS4wJywgJy1waCcsICc3LjQnLCAnLXRuJywgJzgnLCAnLW1hJywgJzUwMCcsICctaW1hZScsICc8aW5maWxlLm1hZT4nLCAnLW9tYWUnLCAnPG91dGZpbGUubWFlPic=

>  <s_epik_input>  (1) 
W0NIM11bQ0gyXUMoTzEpPVtDSF1bQ0BASF0oW09IXSlbQ0BIXShbQ0BIXTEyKVtTK10zW0NASF00W0NIMl1bQ0gyXVtDQEBIXShDKD1PKVtDSDJdMylbQ0gyXVtDQEhdKFtDSDJdNClTW0NASF0oW0NIM10pW0NIMl0y

>  <s_glide_docking_method>  (1) 
confgen

>  <s_i_glide_gridfile>  (1) 
gpcr_drd2_6luq_protein_autoprepared_prepared

>  <s_lp_Force_Field>  (1) 
S-OPLS

>  <s_lp_Variant>  (1) 
DiffSBDD_22_num_sample_50-1

>  <s_m_source_file>  (1) 
generated__ligand_DiffSBDD_2026-05-06_prepared.sdf

>  <GenAI_Model>  (1) 
DiffSBDD

>  <Protein>  (1) 
generic_title2

$$$$
DiffSBDD_29_num_sample_50
     RDKit          3D

  0  0  0  0  0  0  0  0  0  0999 V3000
M  V30 BEGIN CTAB
M  V30 COUNTS 64 67 0 0 1
M  V30 BEGIN ATOM
M  V30 1 C 6.916540 5.314967 -15.230066 0
M  V30 2 O 10.820437 8.168230 -9.606691 0
M  V30 3 C 10.988997 8.468092 -5.467100 0
M  V30 4 C 7.599907 4.347403 -14.303031 0
M  V30 5 O 9.151540 6.661009 -8.169790 0
M  V30 6 N 8.220666 7.214926 -11.754026 0 CFG=2 CHG=1
M  V30 7 C 9.941478 8.297122 -6.571628 0
M  V30 8 C 12.724759 9.085921 -7.320009 0
M  V30 9 C 13.735441 7.909028 -9.286243 0
M  V30 10 C 6.380342 6.343996 -17.325713 0
M  V30 11 C 8.485031 5.975999 -12.547312 0
M  V30 12 C 7.115476 8.033165 -12.292107 0
M  V30 13 C 8.555364 5.496982 -7.653329 0
M  V30 14 C 11.337355 7.342234 -8.569957 0 CFG=1
M  V30 15 C 6.124959 6.205092 -14.617559 0
M  V30 16 C 5.832641 7.220730 -12.455265 0
M  V30 17 C 7.232831 5.140405 -12.926399 0 CFG=1
M  V30 18 C 12.728340 7.785180 -8.110108 0 CFG=2
M  V30 19 C 7.077277 5.347965 -16.620290 0
M  V30 20 C 10.504646 7.398742 -10.761809 0
M  V30 21 N 5.435758 7.200157 -15.229879 0
M  V30 22 C 10.297987 7.106488 -7.469913 0 CFG=2
M  V30 23 C 12.242592 9.217382 -5.868772 0
M  V30 24 N 6.090766 6.035519 -13.259218 0
M  V30 25 C 5.571410 7.248033 -16.587182 0
M  V30 26 N 8.622620 3.638421 -17.855478 0
M  V30 27 C 9.410400 8.077285 -11.571919 0
M  V30 28 C 7.936888 4.395068 -17.311408 0
M  V30 29 C 7.834469 4.792795 -8.793105 0
M  V30 30 H 11.248055 7.500442 -5.034405 0
M  V30 31 H 10.594113 9.058187 -4.652512 0
M  V30 32 H 7.125213 3.366665 -14.354109 0
M  V30 33 H 8.671252 4.249016 -14.484161 0
M  V30 34 H 8.981756 8.091171 -6.096403 0
M  V30 35 H 9.800808 9.214978 -7.140736 0
M  V30 36 H 13.766129 9.394333 -7.271676 0
M  V30 37 H 12.144636 9.769302 -7.931988 0
M  V30 38 H 13.276395 8.274611 -10.202869 0
M  V30 39 H 14.563935 8.586506 -9.091989 0
M  V30 40 H 14.232506 6.969563 -9.491599 0
M  V30 41 H 6.462320 6.425079 -18.399261 0
M  V30 42 H 9.192019 5.320136 -12.045490 0
M  V30 43 H 8.980488 6.291641 -13.463726 0
M  V30 44 H 7.438672 8.423504 -13.259420 0
M  V30 45 H 6.919566 8.884304 -11.635498 0
M  V30 46 H 9.332339 4.820451 -7.325060 0
M  V30 47 H 7.902432 5.738875 -6.810022 0
M  V30 48 H 11.478052 6.337445 -8.945610 0
M  V30 49 H 5.033817 7.831076 -12.872571 0
M  V30 50 H 5.468605 6.895824 -11.480740 0
M  V30 51 H 6.965633 4.460405 -12.115966 0
M  V30 52 H 13.080823 6.983393 -7.491504 0
M  V30 53 H 10.147516 6.409085 -10.481224 0
M  V30 54 H 11.399961 7.251393 -11.368189 0
M  V30 55 H 10.704986 6.314486 -6.838519 0
M  V30 56 H 13.032526 8.969302 -5.158526 0
M  V30 57 H 12.063905 10.280815 -5.699736 0
M  V30 58 H 5.024274 8.027559 -17.094859 0
M  V30 59 H 9.790776 8.403310 -12.539825 0
M  V30 60 H 9.081228 8.968917 -11.040934 0
M  V30 61 H 7.408265 3.857515 -8.435978 0
M  V30 62 H 7.035093 5.398100 -9.210767 0
M  V30 63 H 8.527368 4.568756 -9.601776 0
M  V30 64 H 7.899820 6.963025 -10.821359 0
M  V30 END ATOM
M  V30 BEGIN BOND
M  V30 1 1 4 1
M  V30 2 1 7 3
M  V30 3 1 11 6
M  V30 4 1 12 6
M  V30 5 1 13 5
M  V30 6 1 14 2
M  V30 7 1 15 1
M  V30 8 1 16 12
M  V30 9 1 17 4
M  V30 10 1 17 11
M  V30 11 1 18 8
M  V30 12 1 18 9
M  V30 13 1 18 14
M  V30 14 2 19 1
M  V30 15 1 19 10
M  V30 16 1 20 2
M  V30 17 2 21 15
M  V30 18 1 22 5
M  V30 19 1 22 7
M  V30 20 1 22 14
M  V30 21 1 23 3
M  V30 22 1 23 8
M  V30 23 1 24 15
M  V30 24 1 24 16
M  V30 25 1 24 17
M  V30 26 2 25 10
M  V30 27 1 25 21
M  V30 28 1 27 6
M  V30 29 1 27 20
M  V30 30 1 28 19
M  V30 31 3 28 26
M  V30 32 1 29 13
M  V30 33 1 30 3
M  V30 34 1 31 3
M  V30 35 1 32 4
M  V30 36 1 33 4
M  V30 37 1 34 7
M  V30 38 1 35 7
M  V30 39 1 36 8
M  V30 40 1 37 8
M  V30 41 1 38 9
M  V30 42 1 39 9
M  V30 43 1 40 9
M  V30 44 1 41 10
M  V30 45 1 42 11
M  V30 46 1 43 11
M  V30 47 1 44 12
M  V30 48 1 45 12
M  V30 49 1 46 13
M  V30 50 1 47 13
M  V30 51 1 14 48 CFG=3
M  V30 52 1 49 16
M  V30 53 1 50 16
M  V30 54 1 17 51 CFG=1
M  V30 55 1 18 52 CFG=1
M  V30 56 1 53 20
M  V30 57 1 54 20
M  V30 58 1 22 55 CFG=1
M  V30 59 1 56 23
M  V30 60 1 57 23
M  V30 61 1 58 25
M  V30 62 1 59 27
M  V30 63 1 60 27
M  V30 64 1 61 29
M  V30 65 1 62 29
M  V30 66 1 63 29
M  V30 67 1 6 64 CFG=1
M  V30 END BOND
M  V30 END CTAB
M  END
>  <i_epik_Tot_Q>  (1) 
1

>  <i_epik_Tot_abs_Q>  (1) 
1

>  <i_i_glide_confnum>  (1) 
458

>  <i_i_glide_lignum>  (1) 
75

>  <i_i_glide_posenum>  (1) 
335

>  <i_i_glide_rotatable_bonds>  (1) 
6

>  <i_lp_mmshare_version>  (1) 
72125

>  <i_m_source_file_index>  (1) 
30

>  <i_f3d_flags>  (1) 
0

>  <num_sample>  (1) 
50

>  <b_lp_Chiralities_Consistent>  (1) 
1

>  <r_epik_Charging_Adjusted_Penalty>  (1) 
1.0026227849201053

>  <r_epik_Ionization_Penalty>  (1) 
0.50131159217577048

>  <r_epik_Ionization_Penalty_Charging>  (1) 
0.50131139246005263

>  <r_epik_Ionization_Penalty_Neutral>  (1) 
1.9971571790720627e-07

>  <r_epik_State_Penalty>  (1) 
0.50131139246005263

>  <r_glide_ring_energy>  (1) 
1.2730141362043799

>  <r_i_docking_score>  (1) 
-3.9399535558795447

>  <r_i_glide_ecoul>  (1) 
-2.8855459039957276

>  <r_i_glide_eff_state_penalty>  (1) 
0.50131139246005263

>  <r_i_glide_einternal>  (1) 
6.9632094284933093

>  <r_i_glide_emodel>  (1) 
-27.608567049442669

>  <r_i_glide_emodel_strain>  (1) 
4.5430681488617353

>  <r_i_glide_energy>  (1) 
-27.697878189454372

>  <r_i_glide_erotb>  (1) 
0.6137117962777916

>  <r_i_glide_esite>  (1) 
-0.10000000000000001

>  <r_i_glide_evdw>  (1) 
-24.812332285458645

>  <r_i_glide_gscore>  (1) 
-4.4412649483395974

>  <r_i_glide_gscore_strain>  (1) 
0.13576703721543382

>  <r_i_glide_hbond>  (1) 
-0.14056699275772952

>  <r_i_glide_ligand_efficiency>  (1) 
-0.13586046744412222

>  <r_i_glide_ligand_efficiency_ln>  (1) 
-0.9021494556945886

>  <r_i_glide_ligand_efficiency_sa>  (1) 
-0.41740640007412105

>  <r_i_glide_lipo>  (1) 
-1.9638543597865246

>  <r_i_glide_metal>  (1) 
-0

>  <r_i_glide_rewards>  (1) 
-1.312873929416277

>  <r_lp_Energy>  (1) 
45.537855

>  <s_epik_cmdline>  (1) 
J2VwaWtfcHl0aG9uJywgJy1waHQnLCAnMS4wJywgJy1waCcsICc3LjQnLCAnLXRuJywgJzgnLCAnLW1hJywgJzUwMCcsICctaW1hZScsICc8aW5maWxlLm1hZT4nLCAnLW9tYWUnLCAnPG91dGZpbGUubWFlPic=

>  <s_epik_input>  (1) 
TiNDYzFbY0hdW2NIXW5jKGMxMilOM1tDQEhdKFtDSDJdMilbQ0gyXU4oW0NIMl1bQ0gyXTMpW0NIMl1bQ0gyXU9bQ0BIXTRbQ0BASF0oW0NIM10pW0NIMl1bQ0gyXVtDSDJdW0NIMl1bQ0BIXTRPW0NIMl1bQ0gzXQ==

>  <s_glide_docking_method>  (1) 
confgen

>  <s_i_glide_gridfile>  (1) 
gpcr_drd2_6luq_protein_autoprepared_prepared

>  <s_lp_Force_Field>  (1) 
S-OPLS

>  <s_lp_Variant>  (1) 
DiffSBDD_29_num_sample_50-5

>  <s_m_source_file>  (1) 
generated__ligand_DiffSBDD_2026-05-06_prepared.sdf

>  <GenAI_Model>  (1) 
DiffSBDD

>  <Protein>  (1) 
generic_title2

$$$$
DiffSBDD_2_num_sample_50
     RDKit          3D

  0  0  0  0  0  0  0  0  0  0999 V3000
M  V30 BEGIN CTAB
M  V30 COUNTS 55 58 0 0 1
M  V30 BEGIN ATOM
M  V30 1 C 9.906378 7.715488 -10.593402 0 CFG=1
M  V30 2 C 8.176597 5.089542 -10.563239 0
M  V30 3 O 8.946354 5.099025 -8.370675 0 CHG=-1
M  V30 4 C 8.212229 4.227545 -17.586967 0
M  V30 5 O 4.552146 6.610248 -17.855287 0
M  V30 6 C 5.436692 6.467394 -18.844986 0
M  V30 7 C 11.398603 8.992305 -5.783443 0
M  V30 8 C 4.834633 7.166213 -16.691628 0
M  V30 9 C 11.268812 7.956085 -6.905234 0
M  V30 10 O 5.912830 7.369280 -14.697767 0
M  V30 11 C 6.582766 5.779762 -18.737057 0
M  V30 12 C 8.356694 4.645165 -19.977144 0
M  V30 13 C 5.768865 6.714177 -15.857477 0
M  V30 14 C 8.976471 6.310985 -12.521092 0
M  V30 15 N 9.434826 6.917979 -9.467104 0 CFG=1 CHG=1
M  V30 16 C 9.317124 5.451027 -9.574574 0 CFG=2
M  V30 17 C 10.752006 8.563561 -8.213656 0
M  V30 18 C 8.786364 3.970857 -18.774577 0
M  V30 19 C 7.838664 4.101964 -12.807784 0
M  V30 20 N 8.671213 4.995244 -11.944794 0
M  V30 21 C 6.713288 5.581664 -16.168304 0
M  V30 22 C 6.890807 4.771152 -13.818497 0
M  V30 23 N 7.378520 4.913288 -15.083937 0
M  V30 24 C 7.317844 5.494452 -19.963337 0
M  V30 25 C 7.113530 5.208176 -17.454098 0
M  V30 26 C 10.731466 7.548779 -9.333492 0 CFG=2
M  V30 27 O 5.763326 5.114469 -13.466924 0
M  V30 28 C 10.208287 6.969466 -11.884385 0
M  V30 29 H 9.238683 8.569437 -10.683431 0
M  V30 30 H 7.326601 5.769306 -10.488579 0
M  V30 31 H 7.782531 4.123035 -10.266330 0
M  V30 32 H 8.582168 3.707804 -16.718780 0
M  V30 33 H 5.051036 6.843266 -19.781807 0
M  V30 34 H 11.785800 8.533361 -4.873599 0
M  V30 35 H 10.430890 9.433469 -5.545783 0
M  V30 36 H 12.076313 9.798751 -6.065710 0
M  V30 37 H 4.179104 7.996809 -16.472138 0
M  V30 38 H 12.234572 7.488359 -7.090841 0
M  V30 39 H 10.598268 7.155902 -6.585081 0
M  V30 40 H 5.223960 8.012291 -14.639820 0
M  V30 41 H 8.869075 4.447945 -20.907351 0
M  V30 42 H 9.228875 6.168244 -13.568729 0
M  V30 43 H 8.110355 6.975455 -12.491096 0
M  V30 44 H 10.234797 5.042011 -9.972676 0
M  V30 45 H 9.749904 8.969295 -8.068681 0
M  V30 46 H 11.404754 9.380796 -8.519115 0
M  V30 47 H 9.594052 3.255665 -18.828337 0
M  V30 48 H 7.264981 3.391309 -12.212574 0
M  V30 49 H 8.529617 3.479248 -13.377377 0
M  V30 50 H 8.266789 4.489551 -15.298076 0
M  V30 51 H 7.009169 5.962652 -20.887105 0
M  V30 52 H 11.551739 6.838033 -9.358589 0
M  V30 53 H 10.583598 7.714363 -12.584661 0
M  V30 54 H 11.027341 6.262313 -11.773750 0
M  V30 55 H 8.596767 7.368028 -9.091604 0
M  V30 END ATOM
M  V30 BEGIN BOND
M  V30 1 1 6 5
M  V30 2 1 8 5
M  V30 3 1 9 7
M  V30 4 2 11 6
M  V30 5 2 13 8
M  V30 6 1 13 10
M  V30 7 1 15 1
M  V30 8 1 16 2
M  V30 9 1 16 3
M  V30 10 1 16 15
M  V30 11 1 17 9
M  V30 12 2 18 4
M  V30 13 1 18 12
M  V30 14 1 20 2
M  V30 15 1 20 14
M  V30 16 1 20 19
M  V30 17 1 21 13
M  V30 18 1 22 19
M  V30 19 1 23 21
M  V30 20 1 23 22
M  V30 21 1 24 11
M  V30 22 2 24 12
M  V30 23 1 25 4
M  V30 24 1 25 11
M  V30 25 2 25 21
M  V30 26 1 26 1
M  V30 27 1 26 15
M  V30 28 1 26 17
M  V30 29 2 27 22
M  V30 30 1 28 1
M  V30 31 1 28 14
M  V30 32 1 1 29 CFG=3
M  V30 33 1 30 2
M  V30 34 1 31 2
M  V30 35 1 32 4
M  V30 36 1 33 6
M  V30 37 1 34 7
M  V30 38 1 35 7
M  V30 39 1 36 7
M  V30 40 1 37 8
M  V30 41 1 38 9
M  V30 42 1 39 9
M  V30 43 1 40 10
M  V30 44 1 41 12
M  V30 45 1 42 14
M  V30 46 1 43 14
M  V30 47 1 16 44 CFG=3
M  V30 48 1 45 17
M  V30 49 1 46 17
M  V30 50 1 47 18
M  V30 51 1 48 19
M  V30 52 1 49 19
M  V30 53 1 50 23
M  V30 54 1 51 24
M  V30 55 1 26 52 CFG=3
M  V30 56 1 53 28
M  V30 57 1 54 28
M  V30 58 1 15 55 CFG=1
M  V30 END BOND
M  V30 END CTAB
M  END
>  <i_epik_Tot_Q>  (1) 
0

>  <i_epik_Tot_abs_Q>  (1) 
2

>  <i_i_glide_confnum>  (1) 
45

>  <i_i_glide_lignum>  (1) 
8

>  <i_i_glide_posenum>  (1) 
282

>  <i_i_glide_rotatable_bonds>  (1) 
7

>  <i_lp_mmshare_version>  (1) 
72125

>  <i_m_source_file_index>  (1) 
3

>  <i_f3d_flags>  (1) 
0

>  <num_sample>  (1) 
50

>  <b_lp_Chiralities_Consistent>  (1) 
1

>  <r_epik_Charging_Adjusted_Penalty>  (1) 
1.1352312410036836

>  <r_epik_Ionization_Penalty>  (1) 
1.1482633258778028

>  <r_epik_Ionization_Penalty_Charging>  (1) 
0.01211088635150746

>  <r_epik_Ionization_Penalty_Neutral>  (1) 
1.1361524395262954

>  <r_epik_State_Penalty>  (1) 
1.1231203546521762

>  <r_glide_ring_energy>  (1) 
0

>  <r_i_docking_score>  (1) 
-3.9232534834275787

>  <r_i_glide_ecoul>  (1) 
-3.1140549838213682

>  <r_i_glide_eff_state_penalty>  (1) 
1.1231203546521762

>  <r_i_glide_einternal>  (1) 
2.9745760020637526

>  <r_i_glide_emodel>  (1) 
-42.716192518851962

>  <r_i_glide_emodel_strain>  (1) 
1.4368760355528707

>  <r_i_glide_energy>  (1) 
-34.593869369080274

>  <r_i_glide_erotb>  (1) 
0.65461972943922775

>  <r_i_glide_esite>  (1) 
-0.12567209823588193

>  <r_i_glide_evdw>  (1) 
-31.479814385258909

>  <r_i_glide_gscore>  (1) 
-5.0463738380797549

>  <r_i_glide_gscore_strain>  (1) 
0

>  <r_i_glide_hbond>  (1) 
-0.18914197109905981

>  <r_i_glide_ligand_efficiency>  (1) 
-0.14011619583669924

>  <r_i_glide_ligand_efficiency_ln>  (1) 
-0.90560209570275185

>  <r_i_glide_ligand_efficiency_sa>  (1) 
-0.42547529505889159

>  <r_i_glide_lipo>  (1) 
-1.9547435697626498

>  <r_i_glide_metal>  (1) 
-0

>  <r_i_glide_rewards>  (1) 
-1.3903369615852403

>  <r_lp_Energy>  (1) 
71.160493000000002

>  <s_epik_Chemistry_Notes>  (1) 
This compound contains an acetal/aminal-like group ( X-CH(R)-Y where X, Y are N, S, or O) that may be acid/base labile, releasing an aldehyde.

>  <s_epik_cmdline>  (1) 
J2VwaWtfcHl0aG9uJywgJy1waHQnLCAnMS4wJywgJy1waCcsICc3LjQnLCAnLXRuJywgJzgnLCAnLW1hJywgJzUwMCcsICctaW1hZScsICc8aW5maWxlLm1hZT4nLCAnLW9tYWUnLCAnPG91dGZpbGUubWFlPic=

>  <s_epik_input>  (1) 
W0NIM11bQ0gyXVtDSDJdW0NIXTFOKFtDQEBIXTEyKVtDQEBIXShbT0hdKVtDSDJdTihbQ0gyXVtDSDJdMilbQ0gyXUMoPU8pW05IXUMoQyhbT0hdKT1bQ0hdT1tDSF09Myk9YyhjMzQpW2NIXVtjSF1bY0hdW2NIXTQ=

>  <s_glide_docking_method>  (1) 
confgen

>  <s_i_glide_gridfile>  (1) 
gpcr_drd2_6luq_protein_autoprepared_prepared

>  <s_lp_Force_Field>  (1) 
S-OPLS

>  <s_lp_Variant>  (1) 
DiffSBDD_2_num_sample_50-3

>  <s_m_source_file>  (1) 
generated__ligand_DiffSBDD_2026-05-06_prepared.sdf

>  <GenAI_Model>  (1) 
DiffSBDD

>  <Protein>  (1) 
generic_title2

$$$$
DiffSBDD_35_num_sample_50
     RDKit          3D

  0  0  0  0  0  0  0  0  0  0999 V3000
M  V30 BEGIN CTAB
M  V30 COUNTS 55 58 0 0 1
M  V30 BEGIN ATOM
M  V30 1 C 7.708821 3.738095 -17.043297 0
M  V30 2 C 8.176799 -1.631015 -18.191011 0
M  V30 3 C 7.406121 0.774464 -17.534338 0 CFG=1
M  V30 4 O 9.673814 4.925129 -16.305328 0
M  V30 5 C 6.099826 -0.613611 -19.276913 0
M  V30 6 O 10.259055 6.569310 -11.891667 0
M  V30 7 O 8.985329 3.845479 -19.100580 0
M  V30 8 C 6.043868 5.757758 -13.453378 0 CFG=1
M  V30 9 C 6.881395 3.783343 -12.006061 0 CFG=1
M  V30 10 C 8.032851 3.249611 -12.855550 0
M  V30 11 C 8.239571 1.609224 -18.541365 0
M  V30 12 C 6.979304 -0.663604 -18.008141 0
M  V30 13 C 7.179325 4.733862 -10.921883 0 CFG=1
M  V30 14 C 6.720257 6.572632 -12.418114 0 CFG=2
M  V30 15 C 4.616459 -0.665682 -17.344591 0
M  V30 16 C 9.059068 6.324959 -11.786757 0
M  V30 17 C 8.303683 5.100426 -16.609061 0 CFG=2
M  V30 18 C 8.515341 5.426987 -10.669269 0
M  V30 19 C 8.370686 3.139832 -18.298908 0
M  V30 20 O 8.783100 1.090206 -19.516538 0
M  V30 21 C 7.651349 5.727932 -15.384909 0
M  V30 22 C 6.671544 5.156048 -14.663498 0
M  V30 23 Cl 8.234839 0.639321 -15.957505 0
M  V30 24 O 8.109093 6.801252 -12.612688 0
M  V30 25 C 6.198648 5.187794 -12.013007 0 CFG=2
M  V30 26 C 4.712731 -0.180172 -18.796508 0
M  V30 27 O 5.952873 7.630083 -11.891667 0
M  V30 28 C 5.975465 -1.274223 -17.008824 0
M  V30 29 H 7.792620 3.058154 -16.203197 0
M  V30 30 H 6.648332 3.858469 -17.261146 0
M  V30 31 H 7.837177 -2.628511 -18.471248 0
M  V30 32 H 8.866478 -1.312487 -18.970080 0
M  V30 33 H 8.748769 -1.746022 -17.270109 0
M  V30 34 H 6.499190 1.345603 -17.338856 0
M  V30 35 H 10.067262 5.769994 -16.146701 0
M  V30 36 H 6.479568 0.031609 -20.068129 0
M  V30 37 H 6.020985 -1.612973 -19.708092 0
M  V30 38 H 5.034838 6.068640 -13.706254 0
M  V30 39 H 6.192819 2.981512 -11.749288 0
M  V30 40 H 8.685011 4.038467 -13.223855 0
M  V30 41 H 8.643506 2.559458 -12.275131 0
M  V30 42 H 7.643998 2.697512 -13.710368 0
M  V30 43 H 6.705467 4.475954 -9.976236 0
M  V30 44 H 3.834840 -1.409864 -17.221892 0
M  V30 45 H 4.405251 0.157860 -16.662979 0
M  V30 46 H 8.219014 5.811404 -17.431674 0
M  V30 47 H 9.260848 4.669176 -10.427601 0
M  V30 48 H 8.408828 6.051459 -9.781830 0
M  V30 49 H 8.021605 6.696848 -15.091667 0
M  V30 50 H 6.296283 4.189016 -14.957857 0
M  V30 51 H 3.919036 -0.588345 -19.423558 0
M  V30 52 H 4.634831 0.906690 -18.835593 0
M  V30 53 H 6.234840 7.769298 -10.980333 0
M  V30 54 H 5.912680 -2.354115 -17.154583 0
M  V30 55 H 6.234827 -1.127080 -15.961117 0
M  V30 END ATOM
M  V30 BEGIN BOND
M  V30 1 1 10 9
M  V30 2 1 11 3
M  V30 3 1 12 2
M  V30 4 1 12 3
M  V30 5 1 12 5
M  V30 6 1 13 9
M  V30 7 1 14 8
M  V30 8 2 16 6
M  V30 9 1 17 1
M  V30 10 1 17 4
M  V30 11 1 18 13
M  V30 12 1 18 16
M  V30 13 1 19 1
M  V30 14 2 19 7
M  V30 15 1 19 11
M  V30 16 2 20 11
M  V30 17 1 21 17
M  V30 18 1 22 8
M  V30 19 2 22 21
M  V30 20 1 23 3
M  V30 21 1 24 14
M  V30 22 1 24 16
M  V30 23 1 25 8
M  V30 24 1 25 9
M  V30 25 1 25 13
M  V30 26 1 25 14 CFG=1
M  V30 27 1 26 5
M  V30 28 1 26 15
M  V30 29 1 14 27 CFG=1
M  V30 30 1 28 12
M  V30 31 1 28 15
M  V30 32 1 29 1
M  V30 33 1 30 1
M  V30 34 1 31 2
M  V30 35 1 32 2
M  V30 36 1 33 2
M  V30 37 1 3 34 CFG=1
M  V30 38 1 35 4
M  V30 39 1 36 5
M  V30 40 1 37 5
M  V30 41 1 8 38 CFG=3
M  V30 42 1 9 39 CFG=1
M  V30 43 1 40 10
M  V30 44 1 41 10
M  V30 45 1 42 10
M  V30 46 1 13 43 CFG=1
M  V30 47 1 44 15
M  V30 48 1 45 15
M  V30 49 1 17 46 CFG=3
M  V30 50 1 47 18
M  V30 51 1 48 18
M  V30 52 1 49 21
M  V30 53 1 50 22
M  V30 54 1 51 26
M  V30 55 1 52 26
M  V30 56 1 53 27
M  V30 57 1 54 28
M  V30 58 1 55 28
M  V30 END BOND
M  V30 END CTAB
M  END
>  <i_epik_Tot_Q>  (1) 
0

>  <i_epik_Tot_abs_Q>  (1) 
0

>  <i_i_glide_confnum>  (1) 
464

>  <i_i_glide_lignum>  (1) 
90

>  <i_i_glide_posenum>  (1) 
240

>  <i_i_glide_rotatable_bonds>  (1) 
9

>  <i_lp_mmshare_version>  (1) 
72125

>  <i_m_source_file_index>  (1) 
36

>  <i_f3d_flags>  (1) 
0

>  <num_sample>  (1) 
50

>  <b_lp_Chiralities_Consistent>  (1) 
1

>  <r_epik_Charging_Adjusted_Penalty>  (1) 
0

>  <r_epik_Ionization_Penalty>  (1) 
1.4539570635880344e-05

>  <r_epik_Ionization_Penalty_Charging>  (1) 
0

>  <r_epik_Ionization_Penalty_Neutral>  (1) 
1.4539570635880344e-05

>  <r_epik_State_Penalty>  (1) 
-0

>  <r_glide_ring_energy>  (1) 
0.0026261030611502726

>  <r_i_docking_score>  (1) 
-3.9147411119381248

>  <r_i_glide_ecoul>  (1) 
-5.9838694443615505

>  <r_i_glide_eff_state_penalty>  (1) 
-0

>  <r_i_glide_einternal>  (1) 
14.527146623103304

>  <r_i_glide_emodel>  (1) 
-31.420741780101118

>  <r_i_glide_emodel_strain>  (1) 
0.082771109462598247

>  <r_i_glide_energy>  (1) 
-33.530316859031167

>  <r_i_glide_erotb>  (1) 
0.81694813045343473

>  <r_i_glide_esite>  (1) 
-0.069115020361731241

>  <r_i_glide_evdw>  (1) 
-27.546447414669615

>  <r_i_glide_gscore>  (1) 
-3.9147411119381248

>  <r_i_glide_gscore_strain>  (1) 
0

>  <r_i_glide_hbond>  (1) 
-0.16

>  <r_i_glide_ligand_efficiency>  (1) 
-0.13981218256921873

>  <r_i_glide_ligand_efficiency_ln>  (1) 
-0.90363719042889867

>  <r_i_glide_ligand_efficiency_sa>  (1) 
-0.42455213172355644

>  <r_i_glide_lipo>  (1) 
-1.2815821814791224

>  <r_i_glide_metal>  (1) 
-0

>  <r_i_glide_rewards>  (1) 
-0.94608925316299231

>  <r_lp_Energy>  (1) 
41.196965999999996

>  <r_lp_tautomer_probability>  (1) 
1

>  <s_epik_Chemistry_Notes>  (1) 
This compound has an ester and may undergo hydrolysis at high or low pH.

>  <s_epik_cmdline>  (1) 
J2VwaWtfcHl0aG9uJywgJy1waHQnLCAnMS4wJywgJy1waCcsICc3LjQnLCAnLXRuJywgJzgnLCAnLW1hJywgJzUwMCcsICctaW1hZScsICc8aW5maWxlLm1hZT4nLCAnLW9tYWUnLCAnPG91dGZpbGUubWFlPic=

>  <s_epik_input>  (1) 
W0NIMl0xW0NIMl1bQ0gyXVtDSDJdQzEoW0NIM10pW0NAQEhdKENsKUMoPU8pQyg9TylbQ0gyXVtDQEhdKFtPSF0pL1tDSF09W0NIXS9bQ0BASF0yW0NAXTMoW09IXSlPQyg9TylbQ0gyXVtDQEBIXShDMjM0KVtDQEBIXTRbQ0gzXQ==

>  <s_glide_docking_method>  (1) 
confgen

>  <s_i_glide_gridfile>  (1) 
gpcr_drd2_6luq_protein_autoprepared_prepared

>  <s_lp_Force_Field>  (1) 
S-OPLS

>  <s_lp_Variant>  (1) 
DiffSBDD_35_num_sample_50-2

>  <s_m_source_file>  (1) 
generated__ligand_DiffSBDD_2026-05-06_prepared.sdf

>  <GenAI_Model>  (1) 
DiffSBDD

>  <Protein>  (1) 
generic_title2

$$$$
DiffSBDD_10_num_sample_50
     RDKit          3D

  0  0  0  0  0  0  0  0  0  0999 V3000
M  V30 BEGIN CTAB
M  V30 COUNTS 73 74 0 0 1
M  V30 BEGIN ATOM
M  V30 1 C 10.750352 8.235946 -8.961090 0 CFG=2
M  V30 2 C 5.749761 -0.752132 -17.079665 0
M  V30 3 C 6.634838 2.183054 -14.992590 0
M  V30 4 C 7.452761 5.030917 -12.523385 0 CFG=1
M  V30 5 C 9.600335 7.240507 -9.145673 0 CFG=2
M  V30 6 N 7.956017 0.289435 -17.173064 0
M  V30 7 N 9.016338 6.797414 -12.689290 0
M  V30 8 C 8.684863 6.583233 -11.314184 0 CFG=1
M  V30 9 S 11.778023 7.983379 -7.423177 0
M  V30 10 C 5.474027 -0.831897 -18.586881 0
M  V30 11 S 10.831124 9.181746 -5.960059 0 CHG=-1
M  V30 12 C 12.635046 7.911622 -10.624061 0
M  V30 13 O 7.854409 -0.103321 -22.045819 0
M  V30 14 O 11.726078 6.587493 -6.959236 0
M  V30 15 C 9.338846 8.713160 -8.804857 0 CFG=2
M  V30 16 C 6.961578 0.662241 -12.856538 0
M  V30 17 C 8.350664 5.795957 -13.505085 0 CFG=1
M  V30 18 N 5.900862 -0.201177 -20.966235 0 CHG=1
M  V30 19 N 6.993410 -0.227648 -15.113180 0
M  V30 20 C 6.381978 -0.077557 -19.571693 0
M  V30 21 C 9.399710 4.188685 -11.008509 0
M  V30 22 C 11.554273 8.822392 -10.087589 0
M  V30 23 C 9.204314 6.137332 -8.171982 0
M  V30 24 C 7.026391 3.606402 -12.889575 0
M  V30 25 C 6.881936 0.807061 -14.378622 0
M  V30 26 O 8.674276 9.369115 -9.891693 0
M  V30 27 C 6.863904 -0.244001 -16.499237 0
M  V30 28 O 13.082663 8.608485 -7.668361 0
M  V30 29 F 9.274756 5.016970 -14.068191 0
M  V30 30 N 6.287831 -0.574705 -12.419452 0 CHG=1
M  V30 31 C 6.640386 0.610307 -21.954571 0
M  V30 32 C 8.186360 5.146312 -11.184988 0 CFG=2
M  V30 33 O 9.792768 6.790368 -10.497119 0
M  V30 34 C 6.685347 3.383391 -14.345292 0
M  V30 35 H 4.967734 -1.145166 -16.444004 0
M  V30 36 H 6.396348 2.170190 -16.046236 0
M  V30 37 H 6.539665 5.622967 -12.444381 0
M  V30 38 H 8.003974 0.310984 -18.178637 0
M  V30 39 H 10.013548 6.704591 -12.817085 0
M  V30 40 H 7.887285 7.286827 -11.092128 0
M  V30 41 H 4.450041 -0.480916 -18.716098 0
M  V30 42 H 5.458221 -1.891203 -18.840536 0
M  V30 43 H 13.140353 8.394457 -11.459492 0
M  V30 44 H 13.398833 7.695560 -9.875976 0
M  V30 45 H 12.230114 6.972552 -11.001620 0
M  V30 46 H 8.428978 0.349506 -22.647801 0
M  V30 47 H 8.902109 8.935318 -7.833768 0
M  V30 48 H 8.000891 0.672383 -12.528036 0
M  V30 49 H 6.364656 1.376901 -12.312449 0
M  V30 50 H 7.785477 6.274359 -14.307492 0
M  V30 51 H 4.929358 0.080420 -21.012301 0
M  V30 52 H 7.388568 -0.491117 -19.528397 0
M  V30 53 H 6.438448 0.976436 -19.296239 0
M  V30 54 H 10.183517 4.394791 -11.741257 0
M  V30 55 H 9.835778 4.272963 -10.017787 0
M  V30 56 H 9.153850 3.136962 -11.098396 0
M  V30 57 H 10.852418 8.966803 -10.893407 0
M  V30 58 H 11.942651 9.801946 -9.800214 0
M  V30 59 H 9.110344 6.533661 -7.160777 0
M  V30 60 H 8.244808 5.704066 -8.442046 0
M  V30 61 H 9.953488 5.347495 -8.161001 0
M  V30 62 H 6.161929 3.378954 -12.264783 0
M  V30 63 H 7.863017 2.952686 -12.686805 0
M  V30 64 H 7.832919 8.884632 -9.891591 0
M  V30 65 H 6.464615 -0.775517 -11.444789 0
M  V30 66 H 5.291824 -0.513398 -12.577650 0
M  V30 67 H 6.799038 1.636667 -21.622394 0
M  V30 68 H 6.122961 0.615561 -22.914300 0
M  V30 69 H 7.476741 5.061478 -10.359839 0
M  V30 70 H 6.472287 4.277544 -14.913678 0
M  V30 71 H 8.775711 0.623937 -16.683655 0
M  V30 72 H 5.957516 -1.167237 -21.253827 0
M  V30 73 H 6.599111 -1.340954 -13.001840 0
M  V30 END ATOM
M  V30 BEGIN BOND
M  V30 1 1 5 1
M  V30 2 1 8 7
M  V30 3 1 9 1
M  V30 4 1 10 2
M  V30 5 1 11 9
M  V30 6 2 14 9
M  V30 7 1 15 1
M  V30 8 1 15 5
M  V30 9 1 17 4
M  V30 10 1 17 7
M  V30 11 1 20 10
M  V30 12 1 20 18
M  V30 13 1 1 22 CFG=3
M  V30 14 1 22 12
M  V30 15 1 23 5
M  V30 16 1 24 4
M  V30 17 1 25 3
M  V30 18 1 25 16
M  V30 19 2 25 19
M  V30 20 1 26 15
M  V30 21 2 27 2
M  V30 22 1 27 6
M  V30 23 1 27 19
M  V30 24 2 28 9
M  V30 25 1 29 17
M  V30 26 1 30 16
M  V30 27 1 31 13
M  V30 28 1 31 18
M  V30 29 1 32 4
M  V30 30 1 32 8
M  V30 31 1 32 21
M  V30 32 1 5 33 CFG=3
M  V30 33 1 33 8
M  V30 34 2 34 3
M  V30 35 1 34 24
M  V30 36 1 35 2
M  V30 37 1 36 3
M  V30 38 1 4 37 CFG=1
M  V30 39 1 38 6
M  V30 40 1 39 7
M  V30 41 1 8 40 CFG=1
M  V30 42 1 41 10
M  V30 43 1 42 10
M  V30 44 1 43 12
M  V30 45 1 44 12
M  V30 46 1 45 12
M  V30 47 1 46 13
M  V30 48 1 15 47 CFG=1
M  V30 49 1 48 16
M  V30 50 1 49 16
M  V30 51 1 17 50 CFG=3
M  V30 52 1 51 18
M  V30 53 1 52 20
M  V30 54 1 53 20
M  V30 55 1 54 21
M  V30 56 1 55 21
M  V30 57 1 56 21
M  V30 58 1 57 22
M  V30 59 1 58 22
M  V30 60 1 59 23
M  V30 61 1 60 23
M  V30 62 1 61 23
M  V30 63 1 62 24
M  V30 64 1 63 24
M  V30 65 1 64 26
M  V30 66 1 65 30
M  V30 67 1 66 30
M  V30 68 1 67 31
M  V30 69 1 68 31
M  V30 70 1 32 69 CFG=1
M  V30 71 1 70 34
M  V30 72 1 71 6
M  V30 73 1 72 18
M  V30 74 1 73 30
M  V30 END BOND
M  V30 END CTAB
M  END
>  <i_epik_Tot_Q>  (1) 
1

>  <i_epik_Tot_abs_Q>  (1) 
3

>  <i_i_glide_confnum>  (1) 
2542

>  <i_i_glide_lignum>  (1) 
29

>  <i_i_glide_posenum>  (1) 
91

>  <i_i_glide_rotatable_bonds>  (1) 
15

>  <i_lp_mmshare_version>  (1) 
72125

>  <i_m_source_file_index>  (1) 
11

>  <i_f3d_flags>  (1) 
0

>  <num_sample>  (1) 
50

>  <b_lp_Chiralities_Consistent>  (1) 
1

>  <r_epik_Charging_Adjusted_Penalty>  (1) 
2.168687317063887

>  <r_epik_Ionization_Penalty>  (1) 
1.1047352072338965

>  <r_epik_Ionization_Penalty_Charging>  (1) 
1.0999234457570315

>  <r_epik_Ionization_Penalty_Neutral>  (1) 
0.0048117614768649203

>  <r_epik_State_Penalty>  (1) 
1.0687638713068555

>  <r_glide_ring_energy>  (1) 
0

>  <r_i_docking_score>  (1) 
-3.9096258757503115

>  <r_i_glide_ecoul>  (1) 
-15.957977716116364

>  <r_i_glide_eff_state_penalty>  (1) 
1.0687638713068555

>  <r_i_glide_einternal>  (1) 
18.370426940592729

>  <r_i_glide_emodel>  (1) 
-25.08103075465041

>  <r_i_glide_emodel_strain>  (1) 
4.5773182841874984

>  <r_i_glide_energy>  (1) 
-19.626098634793475

>  <r_i_glide_erotb>  (1) 
0.57553451871204087

>  <r_i_glide_esite>  (1) 
-0.12923292871691355

>  <r_i_glide_evdw>  (1) 
-3.66812091867711

>  <r_i_glide_gscore>  (1) 
-4.9783897470571672

>  <r_i_glide_gscore_strain>  (1) 
0.14432957104687461

>  <r_i_glide_hbond>  (1) 
-0.13717268378039901

>  <r_i_glide_ligand_efficiency>  (1) 
-0.11498899634559739

>  <r_i_glide_ligand_efficiency_ln>  (1) 
-0.86374601724458311

>  <r_i_glide_ligand_efficiency_sa>  (1) 
-0.37251970957825076

>  <r_i_glide_lipo>  (1) 
-1.2586473993931928

>  <r_i_glide_metal>  (1) 
-0

>  <r_i_glide_rewards>  (1) 
-1.596098121574266

>  <r_lp_Energy>  (1) 
21.645868

>  <s_epik_Chemistry_Notes>  (1) 
This compound has an imine and may undergo hydrolysis. This compound contains an acetal/aminal-like group ( X-CH(R)-Y where X, Y are N, S, or O) that may be acid/base labile, releasing an aldehyde.

>  <s_epik_cmdline>  (1) 
J2VwaWtfcHl0aG9uJywgJy1waHQnLCAnMS4wJywgJy1waCcsICc3LjQnLCAnLXRuJywgJzgnLCAnLW1hJywgJzUwMCcsICctaW1hZScsICc8aW5maWxlLm1hZT4nLCAnLW9tYWUnLCAnPG91dGZpbGUubWFlPic=

>  <s_epik_input>  (1) 
W1NIXVMoPU8pKD1PKVtDQEBdMShbQ0gyXVtDSDNdKVtDQEBdKFtDSDNdKShbQ0BASF0xW09IXSlPW0NASF0oW0NAQEhdMltDSDNdKVtOSF1bQ0BASF0oRilbQ0BIXTJbQ0gyXS9bQ0hdPVtDSF1cQyhbQ0gyXVtOSDJdKT1OL0MoPU4vW0hdKS9bQ0gyXVtDSDJdW0NIMl1bTkhdW0NIMl1bT0hd

>  <s_glide_docking_method>  (1) 
confgen

>  <s_i_glide_gridfile>  (1) 
gpcr_drd2_6luq_protein_autoprepared_prepared

>  <s_lp_Force_Field>  (1) 
S-OPLS

>  <s_lp_Variant>  (1) 
DiffSBDD_10_num_sample_50-9

>  <s_m_source_file>  (1) 
generated__ligand_DiffSBDD_2026-05-06_prepared.sdf

>  <GenAI_Model>  (1) 
DiffSBDD

>  <Protein>  (1) 
generic_title2

$$$$
DiffSBDD_10_num_sample_50
     RDKit          3D

  0  0  0  0  0  0  0  0  0  0999 V3000
M  V30 BEGIN CTAB
M  V30 COUNTS 71 72 0 0 1
M  V30 BEGIN ATOM
M  V30 1 C 10.742344 7.689423 -9.033377 0 CFG=2
M  V30 2 C 8.136024 5.677525 -19.621393 0
M  V30 3 C 7.439829 4.139750 -16.492495 0
M  V30 4 C 7.236386 4.555751 -12.677772 0 CFG=1
M  V30 5 C 9.476329 6.803380 -9.165878 0 CFG=2
M  V30 6 N 6.043107 4.466739 -19.538006 0
M  V30 7 N 7.214223 5.369274 -10.478099 0
M  V30 8 C 8.594120 5.060966 -10.753394 0 CFG=1
M  V30 9 S 11.185667 8.297717 -7.279461 0
M  V30 10 C 7.563571 6.950830 -20.236060 0
M  V30 11 S 11.434891 6.491729 -6.250168 0 CHG=-1
M  V30 12 C 12.691114 8.969374 -10.154826 0
M  V30 13 O 7.834915 10.543103 -23.247950 0
M  V30 14 O 12.492052 8.969155 -7.251606 0
M  V30 15 C 9.426383 8.312713 -9.384958 0 CFG=2
M  V30 16 C 8.499443 1.834114 -16.985574 0
M  V30 17 C 6.475138 5.470419 -11.714442 0 CFG=1
M  V30 18 N 7.796095 8.771492 -21.822843 0
M  V30 19 N 7.982693 3.446679 -18.760853 0
M  V30 20 C 8.343830 7.472517 -21.450220 0
M  V30 21 C 9.496778 5.791370 -13.050731 0
M  V30 22 C 11.867345 7.698271 -10.071533 0
M  V30 23 C 8.855465 6.073265 -7.975501 0
M  V30 24 C 6.825807 4.824643 -14.143846 0
M  V30 25 C 7.972357 3.175351 -17.505532 0
M  V30 26 O 9.038581 8.567676 -10.724329 0
M  V30 27 C 7.403152 4.583615 -19.323107 0
M  V30 28 O 10.038729 8.962512 -6.643516 0
M  V30 29 F 6.495671 6.740203 -12.123886 0
M  V30 30 N 9.417613 1.189431 -17.907394 0
M  V30 31 C 8.424605 9.280084 -23.025998 0
M  V30 32 C 8.717749 4.714944 -12.265979 0 CFG=2
M  V30 33 O 9.515035 6.073212 -10.416641 0
M  V30 34 C 7.369565 3.857125 -15.173411 0
M  V30 35 H 9.198564 5.677788 -19.418344 0
M  V30 36 H 7.104521 5.092621 -16.872516 0
M  V30 37 H 6.948134 3.532625 -12.430053 0
M  V30 38 H 5.511625 5.200470 -19.982643 0
M  V30 39 H 7.096680 6.258441 -9.970629 0
M  V30 40 H 8.868199 4.194018 -10.152369 0
M  V30 41 H 7.582648 7.721467 -19.473803 0
M  V30 42 H 6.515906 6.816109 -20.500895 0
M  V30 43 H 13.215857 9.033828 -11.103546 0
M  V30 44 H 12.082426 9.862680 -10.027364 0
M  V30 45 H 13.471138 8.969362 -9.399137 0
M  V30 46 H 8.425176 11.038809 -23.821801 0
M  V30 47 H 8.866460 8.926432 -8.685271 0
M  V30 48 H 9.034554 1.960300 -16.048129 0
M  V30 49 H 7.652634 1.172069 -16.797958 0
M  V30 50 H 5.432501 5.183732 -11.577332 0
M  V30 51 H 6.802142 8.705768 -21.984623 0
M  V30 52 H 8.265972 6.770539 -22.282737 0
M  V30 53 H 9.401619 7.581163 -21.204433 0
M  V30 54 H 9.028272 6.772161 -12.956254 0
M  V30 55 H 10.523357 5.873139 -12.692584 0
M  V30 56 H 9.558199 5.546143 -14.110942 0
M  V30 57 H 12.558983 6.892733 -9.890641 0
M  V30 58 H 11.436849 7.506792 -11.053388 0
M  V30 59 H 8.811506 6.716210 -7.098917 0
M  V30 60 H 7.834280 5.765640 -8.150216 0
M  V30 61 H 9.433174 5.180632 -7.739575 0
M  V30 62 H 7.088972 5.841823 -14.438295 0
M  V30 63 H 5.738852 4.764508 -14.208008 0
M  V30 64 H 8.138632 8.254772 -10.769363 0
M  V30 65 H 9.597088 0.243261 -17.603430 0
M  V30 66 H 8.961298 1.124584 -18.807252 0
M  V30 67 H 8.233503 8.618036 -23.868865 0
M  V30 68 H 9.503570 9.374508 -22.896271 0
M  V30 69 H 9.244229 3.765103 -12.365910 0
M  V30 70 H 7.703841 2.901777 -14.800192 0
M  V30 71 H 5.548468 3.606445 -19.349718 0
M  V30 END ATOM
M  V30 BEGIN BOND
M  V30 1 1 5 1
M  V30 2 1 8 7
M  V30 3 1 9 1
M  V30 4 1 10 2
M  V30 5 1 11 9
M  V30 6 2 14 9
M  V30 7 1 15 1
M  V30 8 1 15 5
M  V30 9 1 17 4
M  V30 10 1 17 7
M  V30 11 1 20 10
M  V30 12 1 20 18
M  V30 13 1 1 22 CFG=3
M  V30 14 1 22 12
M  V30 15 1 23 5
M  V30 16 1 24 4
M  V30 17 1 25 3
M  V30 18 1 25 16
M  V30 19 2 25 19
M  V30 20 1 26 15
M  V30 21 2 27 2
M  V30 22 1 27 6
M  V30 23 1 27 19
M  V30 24 2 28 9
M  V30 25 1 29 17
M  V30 26 1 30 16
M  V30 27 1 31 13
M  V30 28 1 31 18
M  V30 29 1 32 4
M  V30 30 1 32 8
M  V30 31 1 32 21
M  V30 32 1 5 33 CFG=3
M  V30 33 1 33 8
M  V30 34 2 34 3
M  V30 35 1 34 24
M  V30 36 1 35 2
M  V30 37 1 36 3
M  V30 38 1 4 37 CFG=1
M  V30 39 1 38 6
M  V30 40 1 39 7
M  V30 41 1 8 40 CFG=1
M  V30 42 1 41 10
M  V30 43 1 42 10
M  V30 44 1 43 12
M  V30 45 1 44 12
M  V30 46 1 45 12
M  V30 47 1 46 13
M  V30 48 1 15 47 CFG=1
M  V30 49 1 48 16
M  V30 50 1 49 16
M  V30 51 1 17 50 CFG=1
M  V30 52 1 51 18
M  V30 53 1 52 20
M  V30 54 1 53 20
M  V30 55 1 54 21
M  V30 56 1 55 21
M  V30 57 1 56 21
M  V30 58 1 57 22
M  V30 59 1 58 22
M  V30 60 1 59 23
M  V30 61 1 60 23
M  V30 62 1 61 23
M  V30 63 1 62 24
M  V30 64 1 63 24
M  V30 65 1 64 26
M  V30 66 1 65 30
M  V30 67 1 66 30
M  V30 68 1 67 31
M  V30 69 1 68 31
M  V30 70 1 32 69 CFG=1
M  V30 71 1 70 34
M  V30 72 1 71 6
M  V30 END BOND
M  V30 END CTAB
M  END
>  <i_epik_Tot_Q>  (1) 
-1

>  <i_epik_Tot_abs_Q>  (1) 
1

>  <i_i_glide_confnum>  (1) 
1810

>  <i_i_glide_lignum>  (1) 
38

>  <i_i_glide_posenum>  (1) 
272

>  <i_i_glide_rotatable_bonds>  (1) 
15

>  <i_lp_mmshare_version>  (1) 
72125

>  <i_m_source_file_index>  (1) 
11

>  <i_f3d_flags>  (1) 
0

>  <num_sample>  (1) 
50

>  <b_lp_Chiralities_Consistent>  (1) 
1

>  <r_epik_Charging_Adjusted_Penalty>  (1) 
1.239197207418439

>  <r_epik_Ionization_Penalty>  (1) 
1.2496715491914541

>  <r_epik_Ionization_Penalty_Charging>  (1) 
1.1069707349969355e-11

>  <r_epik_Ionization_Penalty_Neutral>  (1) 
1.2496715491803843

>  <r_epik_State_Penalty>  (1) 
1.2391972074073692

>  <r_glide_ring_energy>  (1) 
0

>  <r_i_docking_score>  (1) 
-3.9072625365229072

>  <r_i_glide_ecoul>  (1) 
-13.240580739022828

>  <r_i_glide_eff_state_penalty>  (1) 
1.2391972074073692

>  <r_i_glide_einternal>  (1) 
13.015450844788687

>  <r_i_glide_emodel>  (1) 
-44.282179509429611

>  <r_i_glide_emodel_strain>  (1) 
3.3858357898172358

>  <r_i_glide_energy>  (1) 
-43.385070051251745

>  <r_i_glide_erotb>  (1) 
0.82803537691766171

>  <r_i_glide_esite>  (1) 
-0.13777842016156233

>  <r_i_glide_evdw>  (1) 
-30.144489312228917

>  <r_i_glide_gscore>  (1) 
-5.1464597439302766

>  <r_i_glide_gscore_strain>  (1) 
0

>  <r_i_glide_hbond>  (1) 
-0.38424374094506925

>  <r_i_glide_ligand_efficiency>  (1) 
-0.11491948636832081

>  <r_i_glide_ligand_efficiency_ln>  (1) 
-0.86322388931982963

>  <r_i_glide_ligand_efficiency_sa>  (1) 
-0.37229452423555898

>  <r_i_glide_lipo>  (1) 
-1.1773679125126728

>  <r_i_glide_metal>  (1) 
-0

>  <r_i_glide_rewards>  (1) 
-0.78179347076376371

>  <r_lp_Energy>  (1) 
21.684180999999999

>  <s_epik_Chemistry_Notes>  (1) 
This compound has an imine and may undergo hydrolysis. This compound contains an acetal/aminal-like group ( X-CH(R)-Y where X, Y are N, S, or O) that may be acid/base labile, releasing an aldehyde.

>  <s_epik_cmdline>  (1) 
J2VwaWtfcHl0aG9uJywgJy1waHQnLCAnMS4wJywgJy1waCcsICc3LjQnLCAnLXRuJywgJzgnLCAnLW1hJywgJzUwMCcsICctaW1hZScsICc8aW5maWxlLm1hZT4nLCAnLW9tYWUnLCAnPG91dGZpbGUubWFlPic=

>  <s_epik_input>  (1) 
W1NIXVMoPU8pKD1PKVtDQEBdMShbQ0gyXVtDSDNdKVtDQEBdKFtDSDNdKShbQ0BASF0xW09IXSlPW0NASF0oW0NAQEhdMltDSDNdKVtOSF1bQ0BASF0oRilbQ0BIXTJbQ0gyXVxbQ0hdPVtDSF1cQyhbQ0gyXVtOSDJdKT1OL0MoPU4vW0hdKS9bQ0gyXVtDSDJdW0NIMl1bTkhdW0NIMl1bT0hd

>  <s_glide_docking_method>  (1) 
confgen

>  <s_i_glide_gridfile>  (1) 
gpcr_drd2_6luq_protein_autoprepared_prepared

>  <s_lp_Force_Field>  (1) 
S-OPLS

>  <s_lp_Variant>  (1) 
DiffSBDD_10_num_sample_50-18

>  <s_m_source_file>  (1) 
generated__ligand_DiffSBDD_2026-05-06_prepared.sdf

>  <GenAI_Model>  (1) 
DiffSBDD

>  <Protein>  (1) 
generic_title2

$$$$
DiffSBDD_10_num_sample_50
     RDKit          3D

  0  0  0  0  0  0  0  0  0  0999 V3000
M  V30 BEGIN CTAB
M  V30 COUNTS 73 74 0 0 1
M  V30 BEGIN ATOM
M  V30 1 C 6.376810 7.669867 -21.008638 0 CFG=2
M  V30 2 C 9.001727 5.740644 -9.182712 0
M  V30 3 C 7.172945 6.304576 -12.516545 0
M  V30 4 C 6.136633 5.819973 -16.029675 0 CFG=1
M  V30 5 C 5.122122 7.677064 -20.100023 0 CFG=2
M  V30 6 N 9.533135 7.395766 -10.862715 0
M  V30 7 N 5.834837 5.148233 -18.291657 0
M  V30 8 C 5.013788 6.299076 -18.137827 0 CFG=1
M  V30 9 S 6.524406 9.132329 -22.175324 0
M  V30 10 C 9.108707 6.675083 -7.988109 0
M  V30 11 S 6.567613 8.061945 -23.991059 0 CHG=-1
M  V30 12 C 8.627516 6.605427 -21.763108 0
M  V30 13 O 11.834138 7.786643 -4.291658 0
M  V30 14 O 5.308966 9.958819 -22.207753 0
M  V30 15 C 5.204826 6.779392 -21.329805 0 CFG=2
M  V30 16 C 8.367281 4.287530 -13.638944 0
M  V30 17 C 6.866049 5.262932 -17.273219 0 CFG=2
M  V30 18 N 10.473062 7.199552 -5.953266 0 CHG=1
M  V30 19 N 9.093736 5.195055 -11.504205 0
M  V30 20 C 10.401919 6.423864 -7.207944 0
M  V30 21 C 4.684658 8.048869 -16.289964 0
M  V30 22 C 7.732665 7.065671 -20.603183 0
M  V30 23 C 4.025662 8.718670 -20.029947 0
M  V30 24 C 7.083516 6.598653 -15.087195 0
M  V30 25 C 8.277429 5.278600 -12.488032 0
M  V30 26 O 5.351156 5.394291 -21.083931 0
M  V30 27 C 9.200624 6.113674 -10.460019 0
M  V30 28 O 7.834766 9.768969 -21.982510 0
M  V30 29 F 7.434706 4.080157 -17.039906 0
M  V30 30 N 8.474122 2.926655 -13.080405 0 CHG=1
M  V30 31 C 11.396188 6.620301 -4.957668 0
M  V30 32 C 4.916431 6.569934 -16.623496 0 CFG=2
M  V30 33 O 5.617779 7.366863 -18.792848 0
M  V30 34 C 6.635240 6.853205 -13.643787 0
M  V30 35 H 8.750824 4.713310 -8.964142 0
M  V30 36 H 6.807864 6.608594 -11.544141 0
M  V30 37 H 5.751652 4.969300 -15.470631 0
M  V30 38 H 9.472448 8.169398 -10.216524 0
M  V30 39 H 6.191205 5.071980 -19.237917 0
M  V30 40 H 4.024715 6.154348 -18.572659 0
M  V30 41 H 8.246668 6.483752 -7.348564 0
M  V30 42 H 9.038933 7.718615 -8.295431 0
M  V30 43 H 9.510994 6.089291 -21.387485 0
M  V30 44 H 8.098405 5.916220 -22.421435 0
M  V30 45 H 8.976735 7.442391 -22.367067 0
M  V30 46 H 12.189922 7.541857 -3.448483 0
M  V30 47 H 4.573268 6.999585 -22.188961 0
M  V30 48 H 7.461201 4.261488 -14.233721 0
M  V30 49 H 9.227896 4.507621 -14.272405 0
M  V30 50 H 7.641452 5.948855 -17.617764 0
M  V30 51 H 9.550904 7.245325 -5.541711 0
M  V30 52 H 11.274335 6.650632 -7.822372 0
M  V30 53 H 10.457395 5.369295 -6.972399 0
M  V30 54 H 5.459096 8.699648 -16.693981 0
M  V30 55 H 3.719112 8.349158 -16.691401 0
M  V30 56 H 4.634836 8.220391 -15.218127 0
M  V30 57 H 8.274810 7.769328 -19.980440 0
M  V30 58 H 7.564412 6.202011 -19.968540 0
M  V30 59 H 3.435149 8.726777 -20.945581 0
M  V30 60 H 3.351236 8.511398 -19.200562 0
M  V30 61 H 4.459829 9.706440 -19.891669 0
M  V30 62 H 7.166740 7.602642 -15.491601 0
M  V30 63 H 8.102598 6.229984 -15.152171 0
M  V30 64 H 5.762282 5.012235 -21.846496 0
M  V30 65 H 8.555246 2.244673 -13.819947 0
M  V30 66 H 9.288186 2.884078 -12.480081 0
M  V30 67 H 12.234623 6.098554 -5.420032 0
M  V30 68 H 10.871887 5.937085 -4.288077 0
M  V30 69 H 4.024881 6.041101 -16.291683 0
M  V30 70 H 5.826368 7.556882 -13.528210 0
M  V30 71 H 9.551437 7.643455 -11.840293 0
M  V30 72 H 10.777933 8.137027 -6.168785 0
M  V30 73 H 7.655319 2.727657 -12.525301 0
M  V30 END ATOM
M  V30 BEGIN BOND
M  V30 1 1 5 1
M  V30 2 1 8 7
M  V30 3 1 9 1
M  V30 4 1 10 2
M  V30 5 1 11 9
M  V30 6 2 14 9
M  V30 7 1 15 1
M  V30 8 1 15 5
M  V30 9 1 17 4
M  V30 10 1 17 7
M  V30 11 1 20 10
M  V30 12 1 20 18
M  V30 13 1 1 22 CFG=1
M  V30 14 1 22 12
M  V30 15 1 23 5
M  V30 16 1 24 4
M  V30 17 1 25 3
M  V30 18 1 25 16
M  V30 19 2 25 19
M  V30 20 1 26 15
M  V30 21 2 27 2
M  V30 22 1 27 6
M  V30 23 1 27 19
M  V30 24 2 28 9
M  V30 25 1 29 17
M  V30 26 1 30 16
M  V30 27 1 31 13
M  V30 28 1 31 18
M  V30 29 1 32 4
M  V30 30 1 32 8
M  V30 31 1 32 21
M  V30 32 1 5 33 CFG=1
M  V30 33 1 33 8
M  V30 34 2 34 3
M  V30 35 1 34 24
M  V30 36 1 35 2
M  V30 37 1 36 3
M  V30 38 1 4 37 CFG=1
M  V30 39 1 38 6
M  V30 40 1 39 7
M  V30 41 1 8 40 CFG=3
M  V30 42 1 41 10
M  V30 43 1 42 10
M  V30 44 1 43 12
M  V30 45 1 44 12
M  V30 46 1 45 12
M  V30 47 1 46 13
M  V30 48 1 15 47 CFG=3
M  V30 49 1 48 16
M  V30 50 1 49 16
M  V30 51 1 17 50 CFG=3
M  V30 52 1 51 18
M  V30 53 1 52 20
M  V30 54 1 53 20
M  V30 55 1 54 21
M  V30 56 1 55 21
M  V30 57 1 56 21
M  V30 58 1 57 22
M  V30 59 1 58 22
M  V30 60 1 59 23
M  V30 61 1 60 23
M  V30 62 1 61 23
M  V30 63 1 62 24
M  V30 64 1 63 24
M  V30 65 1 64 26
M  V30 66 1 65 30
M  V30 67 1 66 30
M  V30 68 1 67 31
M  V30 69 1 68 31
M  V30 70 1 32 69 CFG=1
M  V30 71 1 70 34
M  V30 72 1 71 6
M  V30 73 1 72 18
M  V30 74 1 73 30
M  V30 END BOND
M  V30 END CTAB
M  END
>  <i_epik_Tot_Q>  (1) 
1

>  <i_epik_Tot_abs_Q>  (1) 
3

>  <i_i_glide_confnum>  (1) 
271

>  <i_i_glide_lignum>  (1) 
33

>  <i_i_glide_posenum>  (1) 
5

>  <i_i_glide_rotatable_bonds>  (1) 
15

>  <i_lp_mmshare_version>  (1) 
72125

>  <i_m_source_file_index>  (1) 
11

>  <i_f3d_flags>  (1) 
0

>  <num_sample>  (1) 
50

>  <b_lp_Chiralities_Consistent>  (1) 
1

>  <r_epik_Charging_Adjusted_Penalty>  (1) 
2.168687317063887

>  <r_epik_Ionization_Penalty>  (1) 
1.1047352072338965

>  <r_epik_Ionization_Penalty_Charging>  (1) 
1.0999234457570315

>  <r_epik_Ionization_Penalty_Neutral>  (1) 
0.0048117614768649203

>  <r_epik_State_Penalty>  (1) 
1.0687638713068555

>  <r_glide_ring_energy>  (1) 
0

>  <r_i_docking_score>  (1) 
-3.8931670104941665

>  <r_i_glide_ecoul>  (1) 
-4.7696098431106977

>  <r_i_glide_eff_state_penalty>  (1) 
1.0687638713068555

>  <r_i_glide_einternal>  (1) 
9.261999985951423

>  <r_i_glide_emodel>  (1) 
-48.116798756106526

>  <r_i_glide_emodel_strain>  (1) 
3.0174479040767039

>  <r_i_glide_energy>  (1) 
-38.374224335891526

>  <r_i_glide_erotb>  (1) 
0.82219216958862984

>  <r_i_glide_esite>  (1) 
-0.090740662593262564

>  <r_i_glide_evdw>  (1) 
-33.604614492780826

>  <r_i_glide_gscore>  (1) 
-4.9619308818010222

>  <r_i_glide_gscore_strain>  (1) 
0

>  <r_i_glide_hbond>  (1) 
0

>  <r_i_glide_ligand_efficiency>  (1) 
-0.11450491207335783

>  <r_i_glide_ligand_efficiency_ln>  (1) 
-0.86010979225396755

>  <r_i_glide_ligand_efficiency_sa>  (1) 
-0.37095146445709071

>  <r_i_glide_lipo>  (1) 
-1.7959007195980934

>  <r_i_glide_metal>  (1) 
-0

>  <r_i_glide_rewards>  (1) 
-1.5018094680926501

>  <r_lp_Energy>  (1) 
18.368548999999998

>  <s_epik_Chemistry_Notes>  (1) 
This compound has an imine and may undergo hydrolysis. This compound contains an acetal/aminal-like group ( X-CH(R)-Y where X, Y are N, S, or O) that may be acid/base labile, releasing an aldehyde.

>  <s_epik_cmdline>  (1) 
J2VwaWtfcHl0aG9uJywgJy1waHQnLCAnMS4wJywgJy1waCcsICc3LjQnLCAnLXRuJywgJzgnLCAnLW1hJywgJzUwMCcsICctaW1hZScsICc8aW5maWxlLm1hZT4nLCAnLW9tYWUnLCAnPG91dGZpbGUubWFlPic=

>  <s_epik_input>  (1) 
W1NIXVMoPU8pKD1PKVtDQEBdMShbQ0gyXVtDSDNdKVtDQEBdKFtDSDNdKShbQ0BASF0xW09IXSlPW0NASF0oW0NAQEhdMltDSDNdKVtOSF1bQ0BASF0oRilbQ0BIXTJbQ0gyXS9bQ0hdPVtDSF1cQyhbQ0gyXVtOSDJdKT1OL0MoPU4vW0hdKS9bQ0gyXVtDSDJdW0NIMl1bTkhdW0NIMl1bT0hd

>  <s_glide_docking_method>  (1) 
confgen

>  <s_i_glide_gridfile>  (1) 
gpcr_drd2_6luq_protein_autoprepared_prepared

>  <s_lp_Force_Field>  (1) 
S-OPLS

>  <s_lp_Variant>  (1) 
DiffSBDD_10_num_sample_50-13

>  <s_m_source_file>  (1) 
generated__ligand_DiffSBDD_2026-05-06_prepared.sdf

>  <GenAI_Model>  (1) 
DiffSBDD

>  <Protein>  (1) 
generic_title2

$$$$
DiffSBDD_10_num_sample_50
     RDKit          3D

  0  0  0  0  0  0  0  0  0  0999 V3000
M  V30 BEGIN CTAB
M  V30 COUNTS 73 74 0 0 1
M  V30 BEGIN ATOM
M  V30 1 C 14.171687 3.853655 -17.893769 0 CFG=2
M  V30 2 C 8.299823 3.820857 -12.105757 0
M  V30 3 C 7.713596 2.422161 -15.394903 0
M  V30 4 C 9.428309 1.622831 -18.658959 0 CFG=1
M  V30 5 C 13.605220 3.231012 -19.181951 0 CFG=2
M  V30 6 N 6.227102 4.501629 -13.146051 0
M  V30 7 N 11.653046 0.785482 -18.869313 0
M  V30 8 C 11.594650 1.963410 -19.666922 0 CFG=1
M  V30 9 S 15.620857 5.030963 -18.114371 0
M  V30 10 C 8.717093 5.202422 -11.640347 0
M  V30 11 S 16.634763 4.667670 -16.291674 0 CHG=-1
M  V30 12 C 12.432039 5.448428 -16.831156 0
M  V30 13 O 9.834805 7.935867 -8.023608 0
M  V30 14 O 16.520100 4.569326 -19.182752 0
M  V30 15 C 14.571723 2.447824 -18.298584 0 CFG=2
M  V30 16 C 6.580351 0.271692 -14.523266 0
M  V30 17 C 10.564882 0.892808 -17.918009 0 CFG=2
M  V30 18 N 9.034843 6.569294 -9.571326 0 CHG=1
M  V30 19 N 6.829227 2.261240 -13.137863 0
M  V30 20 C 8.794467 5.217099 -10.106087 0
M  V30 21 C 9.856058 3.785707 -20.151824 0
M  V30 22 C 13.280662 4.175946 -16.688581 0
M  V30 23 C 13.942864 3.781003 -20.562765 0
M  V30 24 C 8.586924 2.562003 -17.765195 0
M  V30 25 C 7.034893 1.707116 -14.270895 0
M  V30 26 O 14.012742 1.425189 -17.491721 0
M  V30 27 C 7.163268 3.556506 -12.774956 0
M  V30 28 O 15.151123 6.423901 -18.093017 0
M  V30 29 F 10.204611 -0.317524 -17.491663 0
M  V30 30 N 5.834835 -0.230698 -13.351151 0 CHG=1
M  V30 31 C 9.455138 6.585194 -8.160951 0
M  V30 32 C 10.110198 2.289141 -19.876230 0 CFG=2
M  V30 33 O 12.198288 3.036304 -19.001590 0
M  V30 34 C 7.907609 1.857051 -16.605832 0
M  V30 35 H 8.973850 3.009406 -11.863023 0
M  V30 36 H 8.044755 3.429962 -15.190244 0
M  V30 37 H 8.753246 0.863071 -19.058117 0
M  V30 38 H 6.343535 5.481303 -12.928496 0
M  V30 39 H 12.538161 0.746551 -18.364362 0
M  V30 40 H 12.088235 1.784022 -20.620803 0
M  V30 41 H 8.017437 5.963137 -11.986004 0
M  V30 42 H 9.687031 5.440155 -12.078691 0
M  V30 43 H 11.718459 5.520694 -16.010230 0
M  V30 44 H 13.038154 6.352031 -16.804244 0
M  V30 45 H 11.865707 5.446255 -17.762108 0
M  V30 46 H 9.226332 8.353526 -7.429842 0
M  V30 47 H 15.583383 2.242051 -18.640659 0
M  V30 48 H 5.923459 0.229273 -15.392607 0
M  V30 49 H 7.444449 -0.367929 -14.708320 0
M  V30 50 H 10.912106 1.479078 -17.069906 0
M  V30 51 H 8.145739 7.104384 -9.602445 0
M  V30 52 H 9.590910 4.545174 -9.782639 0
M  V30 53 H 7.865339 4.840845 -9.673275 0
M  V30 54 H 10.131026 4.417315 -19.307167 0
M  V30 55 H 10.435145 4.121246 -21.012791 0
M  V30 56 H 8.805127 3.969141 -20.374834 0
M  V30 57 H 12.600746 3.342645 -16.518487 0
M  V30 58 H 13.895841 4.243178 -15.792346 0
M  V30 59 H 14.986958 3.604704 -20.812740 0
M  V30 60 H 13.349279 3.309818 -21.343220 0
M  V30 61 H 13.743852 4.852397 -20.595499 0
M  V30 62 H 7.801717 3.020774 -18.366794 0
M  V30 63 H 9.204248 3.373793 -17.376756 0
M  V30 64 H 14.261270 1.591757 -16.592867 0
M  V30 65 H 5.480893 -1.193292 -13.491639 0
M  V30 66 H 6.441500 -0.211989 -12.545401 0
M  V30 67 H 10.309533 5.930819 -7.982123 0
M  V30 68 H 8.635660 6.319988 -7.491013 0
M  V30 69 H 9.801852 1.733880 -20.763523 0
M  V30 70 H 7.569175 0.849472 -16.795353 0
M  V30 71 H 5.381643 4.250487 -13.636124 0
M  V30 72 H 9.731404 7.046350 -10.121375 0
M  V30 73 H 5.052515 0.380670 -13.173454 0
M  V30 END ATOM
M  V30 BEGIN BOND
M  V30 1 1 5 1
M  V30 2 1 8 7
M  V30 3 1 9 1
M  V30 4 1 10 2
M  V30 5 1 11 9
M  V30 6 2 14 9
M  V30 7 1 15 1
M  V30 8 1 15 5
M  V30 9 1 17 4
M  V30 10 1 17 7
M  V30 11 1 20 10
M  V30 12 1 20 18
M  V30 13 1 1 22 CFG=1
M  V30 14 1 22 12
M  V30 15 1 23 5
M  V30 16 1 24 4
M  V30 17 1 25 3
M  V30 18 1 25 16
M  V30 19 2 25 19
M  V30 20 1 26 15
M  V30 21 2 27 2
M  V30 22 1 27 6
M  V30 23 1 27 19
M  V30 24 2 28 9
M  V30 25 1 29 17
M  V30 26 1 30 16
M  V30 27 1 31 13
M  V30 28 1 31 18
M  V30 29 1 32 4
M  V30 30 1 32 8
M  V30 31 1 32 21
M  V30 32 1 5 33 CFG=1
M  V30 33 1 33 8
M  V30 34 2 34 3
M  V30 35 1 34 24
M  V30 36 1 35 2
M  V30 37 1 36 3
M  V30 38 1 4 37 CFG=3
M  V30 39 1 38 6
M  V30 40 1 39 7
M  V30 41 1 8 40 CFG=3
M  V30 42 1 41 10
M  V30 43 1 42 10
M  V30 44 1 43 12
M  V30 45 1 44 12
M  V30 46 1 45 12
M  V30 47 1 46 13
M  V30 48 1 15 47 CFG=3
M  V30 49 1 48 16
M  V30 50 1 49 16
M  V30 51 1 17 50 CFG=1
M  V30 52 1 51 18
M  V30 53 1 52 20
M  V30 54 1 53 20
M  V30 55 1 54 21
M  V30 56 1 55 21
M  V30 57 1 56 21
M  V30 58 1 57 22
M  V30 59 1 58 22
M  V30 60 1 59 23
M  V30 61 1 60 23
M  V30 62 1 61 23
M  V30 63 1 62 24
M  V30 64 1 63 24
M  V30 65 1 64 26
M  V30 66 1 65 30
M  V30 67 1 66 30
M  V30 68 1 67 31
M  V30 69 1 68 31
M  V30 70 1 32 69 CFG=3
M  V30 71 1 70 34
M  V30 72 1 71 6
M  V30 73 1 72 18
M  V30 74 1 73 30
M  V30 END BOND
M  V30 END CTAB
M  END
>  <i_epik_Tot_Q>  (1) 
1

>  <i_epik_Tot_abs_Q>  (1) 
3

>  <i_i_glide_confnum>  (1) 
15

>  <i_i_glide_lignum>  (1) 
34

>  <i_i_glide_posenum>  (1) 
344

>  <i_i_glide_rotatable_bonds>  (1) 
15

>  <i_lp_mmshare_version>  (1) 
72125

>  <i_m_source_file_index>  (1) 
11

>  <i_f3d_flags>  (1) 
0

>  <num_sample>  (1) 
50

>  <b_lp_Chiralities_Consistent>  (1) 
1

>  <r_epik_Charging_Adjusted_Penalty>  (1) 
2.168687317063887

>  <r_epik_Ionization_Penalty>  (1) 
1.1047352072338965

>  <r_epik_Ionization_Penalty_Charging>  (1) 
1.0999234457570315

>  <r_epik_Ionization_Penalty_Neutral>  (1) 
0.0048117614768649203

>  <r_epik_State_Penalty>  (1) 
1.0687638713068555

>  <r_glide_ring_energy>  (1) 
0

>  <r_i_docking_score>  (1) 
-3.8911703565938884

>  <r_i_glide_ecoul>  (1) 
-15.920575807299233

>  <r_i_glide_eff_state_penalty>  (1) 
1.0687638713068555

>  <r_i_glide_einternal>  (1) 
6.980797995805629

>  <r_i_glide_emodel>  (1) 
-62.728671120471063

>  <r_i_glide_emodel_strain>  (1) 
0.60152736294206477

>  <r_i_glide_energy>  (1) 
-44.53652799725802

>  <r_i_glide_erotb>  (1) 
0.82219216958862984

>  <r_i_glide_esite>  (1) 
-0.29541468417407696

>  <r_i_glide_evdw>  (1) 
-28.61595218995879

>  <r_i_glide_gscore>  (1) 
-4.9599342279007441

>  <r_i_glide_gscore_strain>  (1) 
0

>  <r_i_glide_hbond>  (1) 
-0.46404482266143576

>  <r_i_glide_ligand_efficiency>  (1) 
-0.11444618695864378

>  <r_i_glide_ligand_efficiency_ln>  (1) 
-0.85966867540315128

>  <r_i_glide_ligand_efficiency_sa>  (1) 
-0.37076121788243166

>  <r_i_glide_lipo>  (1) 
-0.8434920199117355

>  <r_i_glide_metal>  (1) 
-0

>  <r_i_glide_rewards>  (1) 
-0.3602908901493011

>  <r_lp_Energy>  (1) 
23.104900000000001

>  <s_epik_Chemistry_Notes>  (1) 
This compound has an imine and may undergo hydrolysis. This compound contains an acetal/aminal-like group ( X-CH(R)-Y where X, Y are N, S, or O) that may be acid/base labile, releasing an aldehyde.

>  <s_epik_cmdline>  (1) 
J2VwaWtfcHl0aG9uJywgJy1waHQnLCAnMS4wJywgJy1waCcsICc3LjQnLCAnLXRuJywgJzgnLCAnLW1hJywgJzUwMCcsICctaW1hZScsICc8aW5maWxlLm1hZT4nLCAnLW9tYWUnLCAnPG91dGZpbGUubWFlPic=

>  <s_epik_input>  (1) 
W1NIXVMoPU8pKD1PKVtDQEBdMShbQ0gyXVtDSDNdKVtDQEBdKFtDSDNdKShbQ0BASF0xW09IXSlPW0NASF0oW0NAQEhdMltDSDNdKVtOSF1bQ0BASF0oRilbQ0BIXTJbQ0gyXVxbQ0hdPVtDSF1cQyhbQ0gyXVtOSDJdKT1OL0MoPU4vW0hdKS9bQ0gyXVtDSDJdW0NIMl1bTkhdW0NIMl1bT0hd

>  <s_glide_docking_method>  (1) 
confgen

>  <s_i_glide_gridfile>  (1) 
gpcr_drd2_6luq_protein_autoprepared_prepared

>  <s_lp_Force_Field>  (1) 
S-OPLS

>  <s_lp_Variant>  (1) 
DiffSBDD_10_num_sample_50-14

>  <s_m_source_file>  (1) 
generated__ligand_DiffSBDD_2026-05-06_prepared.sdf

>  <GenAI_Model>  (1) 
DiffSBDD

>  <Protein>  (1) 
generic_title2

$$$$
DiffSBDD_12_num_sample_50
     RDKit          3D

  0  0  0  0  0  0  0  0  0  0999 V3000
M  V30 BEGIN CTAB
M  V30 COUNTS 66 67 0 0 1
M  V30 BEGIN ATOM
M  V30 1 C 11.068046 8.700057 -8.781861 0 CFG=2
M  V30 2 C 8.784329 4.796973 -16.279854 0
M  V30 3 O 10.376366 1.052751 -18.321808 0
M  V30 4 C 5.434773 7.434398 -12.295118 0
M  V30 5 C 7.894456 3.908695 -13.388282 0
M  V30 6 C 10.396224 8.264217 -7.457788 0
M  V30 7 O 10.305145 8.304688 -9.926940 0
M  V30 8 F 10.534928 6.955704 -7.240933 0
M  V30 9 C 5.967276 6.055730 -12.722276 0 CFG=1
M  V30 10 C 7.759538 2.442813 -17.753870 0
M  V30 11 C 12.574832 8.382887 -8.802349 0
M  V30 12 C 10.338470 2.356032 -17.774884 0
M  V30 13 F 10.966053 8.918753 -6.444338 0
M  V30 14 C 6.548547 5.942286 -14.171455 0 CFG=2
M  V30 15 C 11.158967 6.969287 -11.740259 0
M  V30 16 F 9.102548 8.569340 -7.462848 0
M  V30 17 C 9.105311 4.600879 -17.774641 0
M  V30 18 C 5.591691 6.522768 -15.233909 0
M  V30 19 C 7.430111 4.156153 -15.913449 0 CFG=1
M  V30 20 C 7.343543 4.109454 -11.969097 0
M  V30 21 C 8.244367 6.470046 -11.562948 0
M  V30 22 C 6.986150 5.570214 -11.666647 0 CFG=1
M  V30 23 C 9.158024 6.169875 -10.365111 0
M  V30 24 C 7.477150 2.651749 -16.255464 0
M  V30 25 C 9.072163 3.118135 -18.215794 0 CFG=2
M  V30 26 C 6.927415 4.450367 -14.465340 0 CFG=1
M  V30 27 C 10.464048 6.968917 -10.359263 0 CFG=2
M  V30 28 F 13.123012 8.569242 -9.997966 0
M  V30 29 H 11.034840 9.769301 -8.863108 0
M  V30 30 H 8.766540 5.859948 -16.052215 0
M  V30 31 H 9.584598 4.371576 -15.676970 0
M  V30 32 H 10.362093 1.116949 -19.264443 0
M  V30 33 H 6.223219 8.169365 -12.291650 0
M  V30 34 H 4.638155 7.815928 -12.925547 0
M  V30 35 H 5.037008 7.398051 -11.280769 0
M  V30 36 H 8.071553 2.844172 -13.533868 0
M  V30 37 H 8.869036 4.386266 -13.476597 0
M  V30 38 H 5.107900 5.385787 -12.676009 0
M  V30 39 H 6.928174 2.856219 -18.326575 0
M  V30 40 H 7.772362 1.377745 -17.984730 0
M  V30 41 H 13.126554 8.981848 -8.082614 0
M  V30 42 H 12.767423 7.369339 -8.513785 0
M  V30 43 H 10.391058 2.284151 -16.691678 0
M  V30 44 H 11.233224 2.886843 -18.100119 0
M  V30 45 H 7.453449 6.546608 -14.225440 0
M  V30 46 H 11.148605 5.982651 -12.206317 0
M  V30 47 H 10.635548 7.641407 -12.420969 0
M  V30 48 H 12.193433 7.295951 -11.699686 0
M  V30 49 H 10.075015 5.043239 -18.007766 0
M  V30 50 H 8.376492 5.158818 -18.363592 0
M  V30 51 H 4.695462 5.912661 -15.338106 0
M  V30 52 H 5.292756 7.543604 -15.003304 0
M  V30 53 H 6.066578 6.586431 -16.212059 0
M  V30 54 H 6.690582 4.569423 -16.596362 0
M  V30 55 H 6.458217 3.484774 -11.838571 0
M  V30 56 H 8.070687 3.769117 -11.240358 0
M  V30 57 H 8.801134 6.377406 -12.489544 0
M  V30 58 H 7.992880 7.523361 -11.491669 0
M  V30 59 H 6.493546 5.592235 -10.691693 0
M  V30 60 H 8.634815 6.331113 -9.423437 0
M  V30 61 H 9.435387 5.118581 -10.367180 0
M  V30 62 H 6.534058 2.171412 -15.997926 0
M  V30 63 H 8.240929 2.143449 -15.667532 0
M  V30 64 H 9.073874 3.113985 -19.307011 0
M  V30 65 H 6.002043 3.882659 -14.354195 0
M  V30 66 H 11.035038 6.464434 -9.594412 0
M  V30 END ATOM
M  V30 BEGIN BOND
M  V30 1 1 6 1
M  V30 2 1 7 1
M  V30 3 1 8 6
M  V30 4 1 9 4
M  V30 5 1 11 1
M  V30 6 1 12 3
M  V30 7 1 13 6
M  V30 8 1 14 9
M  V30 9 1 16 6
M  V30 10 1 17 2
M  V30 11 1 18 14
M  V30 12 1 19 2
M  V30 13 1 20 5
M  V30 14 1 22 9
M  V30 15 1 22 20
M  V30 16 1 22 21
M  V30 17 1 23 21
M  V30 18 1 24 10
M  V30 19 1 24 19
M  V30 20 1 25 10
M  V30 21 1 25 12
M  V30 22 1 25 17
M  V30 23 1 26 5
M  V30 24 1 26 14
M  V30 25 1 26 19
M  V30 26 1 27 7
M  V30 27 1 27 15
M  V30 28 1 27 23
M  V30 29 1 28 11
M  V30 30 1 1 29 CFG=1
M  V30 31 1 30 2
M  V30 32 1 31 2
M  V30 33 1 32 3
M  V30 34 1 33 4
M  V30 35 1 34 4
M  V30 36 1 35 4
M  V30 37 1 36 5
M  V30 38 1 37 5
M  V30 39 1 9 38 CFG=3
M  V30 40 1 39 10
M  V30 41 1 40 10
M  V30 42 1 41 11
M  V30 43 1 42 11
M  V30 44 1 43 12
M  V30 45 1 44 12
M  V30 46 1 14 45 CFG=1
M  V30 47 1 46 15
M  V30 48 1 47 15
M  V30 49 1 48 15
M  V30 50 1 49 17
M  V30 51 1 50 17
M  V30 52 1 51 18
M  V30 53 1 52 18
M  V30 54 1 53 18
M  V30 55 1 19 54 CFG=3
M  V30 56 1 55 20
M  V30 57 1 56 20
M  V30 58 1 57 21
M  V30 59 1 58 21
M  V30 60 1 22 59 CFG=1
M  V30 61 1 60 23
M  V30 62 1 61 23
M  V30 63 1 62 24
M  V30 64 1 63 24
M  V30 65 1 25 64 CFG=3
M  V30 66 1 26 65 CFG=1
M  V30 67 1 27 66 CFG=1
M  V30 END BOND
M  V30 END CTAB
M  END
>  <i_epik_Tot_Q>  (1) 
0

>  <i_epik_Tot_abs_Q>  (1) 
0

>  <i_i_glide_confnum>  (1) 
704

>  <i_i_glide_lignum>  (1) 
47

>  <i_i_glide_posenum>  (1) 
246

>  <i_i_glide_rotatable_bonds>  (1) 
10

>  <i_lp_mmshare_version>  (1) 
72125

>  <i_m_source_file_index>  (1) 
13

>  <i_f3d_flags>  (1) 
0

>  <num_sample>  (1) 
50

>  <b_lp_Chiralities_Consistent>  (1) 
1

>  <r_epik_Charging_Adjusted_Penalty>  (1) 
0

>  <r_epik_Ionization_Penalty>  (1) 
3.7258490457677376e-07

>  <r_epik_Ionization_Penalty_Charging>  (1) 
0

>  <r_epik_Ionization_Penalty_Neutral>  (1) 
3.7258490457677376e-07

>  <r_epik_State_Penalty>  (1) 
-0

>  <r_glide_ring_energy>  (1) 
0

>  <r_i_docking_score>  (1) 
-3.8910545648957671

>  <r_i_glide_ecoul>  (1) 
0.80124702664678338

>  <r_i_glide_eff_state_penalty>  (1) 
-0

>  <r_i_glide_einternal>  (1) 
11.196356146557466

>  <r_i_glide_emodel>  (1) 
-21.763769634007595

>  <r_i_glide_emodel_strain>  (1) 
0.55181566892229483

>  <r_i_glide_energy>  (1) 
-23.746008068875753

>  <r_i_glide_erotb>  (1) 
0.81823453102936505

>  <r_i_glide_esite>  (1) 
-0.1173357311118589

>  <r_i_glide_evdw>  (1) 
-24.547255095522537

>  <r_i_glide_gscore>  (1) 
-3.8910545648957671

>  <r_i_glide_gscore_strain>  (1) 
0

>  <r_i_glide_hbond>  (1) 
0

>  <r_i_glide_ligand_efficiency>  (1) 
-0.13896623446056311

>  <r_i_glide_ligand_efficiency_ln>  (1) 
-0.89816963990428145

>  <r_i_glide_ligand_efficiency_sa>  (1) 
-0.42198333502603363

>  <r_i_glide_lipo>  (1) 
-1.5631548964845667

>  <r_i_glide_metal>  (1) 
-0

>  <r_i_glide_rewards>  (1) 
-1.9216227675495969

>  <r_lp_Energy>  (1) 
30.869408

>  <r_lp_tautomer_probability>  (1) 
1

>  <s_epik_cmdline>  (1) 
J2VwaWtfcHl0aG9uJywgJy1waHQnLCAnMS4wJywgJy1waCcsICc3LjQnLCAnLXRuJywgJzgnLCAnLW1hJywgJzUwMCcsICctaW1hZScsICc8aW5maWxlLm1hZT4nLCAnLW9tYWUnLCAnPG91dGZpbGUubWFlPic=

>  <s_epik_input>  (1) 
RkMoRikoRilbQ0BASF0oW0NIMl1GKU9bQ0BIXShbQ0gzXSlbQ0gyXVtDSDJdW0NAQEhdMVtDSDJdW0NIMl1bQ0BASF0oW0NAQEhdKFtDSDNdKVtDQEBIXTFbQ0gzXSlbQ0BIXTJbQ0gyXVtDSDJdW0NASF0oW0NIMl1bQ0gyXTIpW0NIMl1bT0hd

>  <s_glide_docking_method>  (1) 
confgen

>  <s_i_glide_gridfile>  (1) 
gpcr_drd2_6luq_protein_autoprepared_prepared

>  <s_lp_Force_Field>  (1) 
S-OPLS

>  <s_lp_Variant>  (1) 
DiffSBDD_12_num_sample_50-1

>  <s_m_source_file>  (1) 
generated__ligand_DiffSBDD_2026-05-06_prepared.sdf

>  <GenAI_Model>  (1) 
DiffSBDD

>  <Protein>  (1) 
generic_title2

$$$$
DiffSBDD_31_num_sample_50
     RDKit          3D

  0  0  0  0  0  0  0  0  0  0999 V3000
M  V30 BEGIN CTAB
M  V30 COUNTS 71 76 0 0 1
M  V30 BEGIN ATOM
M  V30 1 C 6.776376 0.978750 -13.664420 0
M  V30 2 C 7.071201 3.518655 -14.882634 0
M  V30 3 C 10.166862 -0.451050 -21.750093 0
M  V30 4 C 10.679567 1.992498 -19.630099 0
M  V30 5 C 8.428479 1.937069 -20.935232 0
M  V30 6 C 8.124416 4.721723 -19.142530 0
M  V30 7 C 6.525855 0.384246 -21.353126 0 CFG=2
M  V30 8 C 7.268593 6.167856 -14.712882 0
M  V30 9 F 6.634745 -0.230691 -13.078874 0
M  V30 10 C 6.534782 2.145504 -12.925775 0
M  V30 11 C 7.220014 4.888756 -15.542203 0
M  V30 12 C 9.862565 4.014963 -20.949818 0
M  V30 13 C 10.602812 5.076054 -17.360348 0
M  V30 14 C 9.540014 4.766248 -16.288906 0
M  V30 15 C 7.807029 5.594417 -17.916506 0
M  V30 16 C 6.680243 3.409063 -13.525339 0
M  V30 17 F 5.836181 1.344221 -21.974604 0
M  V30 18 C 7.162040 1.067594 -15.011004 0
M  V30 19 C 7.307555 2.328285 -15.621869 0
M  V30 20 C 8.816533 -0.429238 -21.729884 0
M  V30 21 N 8.134534 4.849578 -16.699911 0
M  V30 22 C 10.403711 2.768090 -18.337240 0
M  V30 23 C 5.914964 0.104242 -19.958533 0
M  V30 24 C 9.861418 2.470531 -20.865517 0 CFG=1
M  V30 25 O 6.016844 1.214800 -19.083889 0
M  V30 26 C 6.024240 5.837222 -15.485800 0
M  V30 27 C 9.375326 4.674069 -22.226477 0
M  V30 28 C 7.995097 0.688318 -21.313376 0
M  V30 29 C 6.611241 -0.918423 -22.273201 0 CFG=2
M  V30 30 O 5.541019 -1.830698 -22.114374 0
M  V30 31 C 10.846706 4.674606 -21.902844 0
M  V30 32 C 9.601947 4.729057 -19.607276 0 CFG=2
M  V30 33 N 10.537451 4.223314 -18.574800 0 CFG=1 CHG=1
M  V30 34 C 8.029559 -1.618798 -22.163062 0
M  V30 35 H 10.685195 -1.338903 -22.082103 0
M  V30 36 H 10.765666 0.361898 -21.449658 0
M  V30 37 H 10.507908 0.936941 -19.421255 0
M  V30 38 H 11.740605 2.084518 -19.866148 0
M  V30 39 H 7.670629 2.653954 -20.674974 0
M  V30 40 H 7.768167 3.717649 -18.923426 0
M  V30 41 H 7.511877 5.078052 -19.971151 0
M  V30 42 H 7.221325 6.122736 -13.628886 0
M  V30 43 H 7.834879 7.011302 -15.091673 0
M  V30 44 H 6.234772 2.072883 -11.891767 0
M  V30 45 H 11.581996 4.914702 -16.907960 0
M  V30 46 H 10.585262 6.132468 -17.629694 0
M  V30 47 H 9.708378 3.770186 -15.891661 0
M  V30 48 H 9.710366 5.448471 -15.456067 0
M  V30 49 H 6.734725 5.767596 -17.963532 0
M  V30 50 H 8.288306 6.569154 -17.956027 0
M  V30 51 H 6.486526 4.294738 -12.943062 0
M  V30 52 H 7.344356 0.167371 -15.579565 0
M  V30 53 H 7.595873 2.384804 -16.659141 0
M  V30 54 H 9.413386 2.519355 -17.961202 0
M  V30 55 H 11.114754 2.455956 -17.570750 0
M  V30 56 H 6.412325 -0.747291 -19.492471 0
M  V30 57 H 4.861610 -0.160646 -20.057054 0
M  V30 58 H 10.337492 2.194945 -21.802192 0
M  V30 59 H 5.565088 1.002887 -18.280374 0
M  V30 60 H 5.795004 6.530530 -16.290113 0
M  V30 61 H 5.162057 5.534102 -14.895649 0
M  V30 62 H 9.042750 4.030366 -23.038973 0
M  V30 63 H 8.846912 5.622166 -22.142791 0
M  V30 64 H 6.536743 -0.564787 -23.303578 0
M  V30 65 H 4.736453 -1.350876 -22.291623 0
M  V30 66 H 11.288935 5.627457 -21.617526 0
M  V30 67 H 11.489263 4.038077 -22.508398 0
M  V30 68 H 9.856303 5.778189 -19.768870 0
M  V30 69 H 8.368925 -2.042663 -23.108852 0
M  V30 70 H 8.051168 -2.381327 -21.383533 0
M  V30 71 H 11.446952 4.331190 -19.000182 0
M  V30 END ATOM
M  V30 BEGIN BOND
M  V30 1 1 9 1
M  V30 2 1 10 1
M  V30 3 1 11 2
M  V30 4 1 11 8
M  V30 5 1 14 13
M  V30 6 1 15 6
M  V30 7 1 16 2
M  V30 8 2 16 10
M  V30 9 1 7 17 CFG=3
M  V30 10 2 18 1
M  V30 11 2 19 2
M  V30 12 1 19 18
M  V30 13 2 20 3
M  V30 14 1 21 11
M  V30 15 1 21 14
M  V30 16 1 21 15
M  V30 17 1 22 4
M  V30 18 1 23 7
M  V30 19 1 24 4
M  V30 20 1 24 5
M  V30 21 1 24 12
M  V30 22 1 25 23
M  V30 23 1 26 8
M  V30 24 1 26 11
M  V30 25 1 27 12
M  V30 26 2 28 5
M  V30 27 1 28 7
M  V30 28 1 28 20
M  V30 29 1 29 7
M  V30 30 1 30 29
M  V30 31 1 31 12
M  V30 32 1 31 27
M  V30 33 1 32 6
M  V30 34 1 32 12
M  V30 35 1 33 13
M  V30 36 1 33 22
M  V30 37 1 33 32
M  V30 38 1 34 20
M  V30 39 1 34 29
M  V30 40 1 35 3
M  V30 41 1 36 3
M  V30 42 1 37 4
M  V30 43 1 38 4
M  V30 44 1 39 5
M  V30 45 1 40 6
M  V30 46 1 41 6
M  V30 47 1 42 8
M  V30 48 1 43 8
M  V30 49 1 44 10
M  V30 50 1 45 13
M  V30 51 1 46 13
M  V30 52 1 47 14
M  V30 53 1 48 14
M  V30 54 1 49 15
M  V30 55 1 50 15
M  V30 56 1 51 16
M  V30 57 1 52 18
M  V30 58 1 53 19
M  V30 59 1 54 22
M  V30 60 1 55 22
M  V30 61 1 56 23
M  V30 62 1 57 23
M  V30 63 1 24 58 CFG=3
M  V30 64 1 59 25
M  V30 65 1 60 26
M  V30 66 1 61 26
M  V30 67 1 62 27
M  V30 68 1 63 27
M  V30 69 1 29 64 CFG=3
M  V30 70 1 65 30
M  V30 71 1 66 31
M  V30 72 1 67 31
M  V30 73 1 32 68 CFG=3
M  V30 74 1 69 34
M  V30 75 1 70 34
M  V30 76 1 33 71 CFG=3
M  V30 END BOND
M  V30 END CTAB
M  END
>  <i_epik_Tot_Q>  (1) 
1

>  <i_epik_Tot_abs_Q>  (1) 
1

>  <i_i_glide_confnum>  (1) 
188

>  <i_i_glide_lignum>  (1) 
80

>  <i_i_glide_posenum>  (1) 
13

>  <i_i_glide_rotatable_bonds>  (1) 
6

>  <i_lp_mmshare_version>  (1) 
72125

>  <i_m_source_file_index>  (1) 
32

>  <i_f3d_flags>  (1) 
0

>  <num_sample>  (1) 
50

>  <b_lp_Chiralities_Consistent>  (1) 
1

>  <r_epik_Charging_Adjusted_Penalty>  (1) 
0.0036996964664751512

>  <r_epik_Ionization_Penalty>  (1) 
0.0040620325304727405

>  <r_epik_Ionization_Penalty_Charging>  (1) 
0.0036996964664751512

>  <r_epik_Ionization_Penalty_Neutral>  (1) 
0.00036233606399758918

>  <r_epik_State_Penalty>  (1) 
-0

>  <r_glide_ring_energy>  (1) 
0

>  <r_i_docking_score>  (1) 
-3.8859594114168647

>  <r_i_glide_ecoul>  (1) 
-5.3558512429199823

>  <r_i_glide_eff_state_penalty>  (1) 
-0

>  <r_i_glide_einternal>  (1) 
9.9967685720742629

>  <r_i_glide_emodel>  (1) 
-49.705889198030384

>  <r_i_glide_emodel_strain>  (1) 
1.4210453855551748

>  <r_i_glide_energy>  (1) 
-24.836748305200071

>  <r_i_glide_erotb>  (1) 
0.36352394052346937

>  <r_i_glide_esite>  (1) 
-0.065928123383447113

>  <r_i_glide_evdw>  (1) 
-19.480897062280089

>  <r_i_glide_gscore>  (1) 
-3.8859594114168647

>  <r_i_glide_gscore_strain>  (1) 
0

>  <r_i_glide_hbond>  (1) 
-0.32000000000000001

>  <r_i_glide_ligand_efficiency>  (1) 
-0.1142929238652019

>  <r_i_glide_ligand_efficiency_ln>  (1) 
-0.8585174314514854

>  <r_i_glide_ligand_efficiency_sa>  (1) 
-0.37026470495621705

>  <r_i_glide_lipo>  (1) 
-1.6795425658345433

>  <r_i_glide_metal>  (1) 
-0

>  <r_i_glide_rewards>  (1) 
-0.40659012317034204

>  <r_lp_Energy>  (1) 
33.989857000000001

>  <r_lp_tautomer_probability>  (1) 
1

>  <s_epik_cmdline>  (1) 
J2VwaWtfcHl0aG9uJywgJy1waHQnLCAnMS4wJywgJy1waCcsICc3LjQnLCAnLXRuJywgJzgnLCAnLW1hJywgJzUwMCcsICctaW1hZScsICc8aW5maWxlLm1hZT4nLCAnLW9tYWUnLCAnPG91dGZpbGUubWFlPic=

>  <s_epik_input>  (1) 
RmMxW2NIXVtjSF1jKFtjSF1bY0hdMSlDMihbQ0gyXVtDSDJdMilOKFtDSDJdW0NIMl0zKVtDSDJdW0NIMl1OKFtDQEhdM0M0NVtDSDJdW0NIMl01KVtDSDJdW0NIMl1bQ0BIXTQvW0NIXT1DKC9bQ0BdNihGKVtDSDJdW09IXSlDKD1bQ0gyXSlbQ0gyXVtDQEhdNltPSF0=

>  <s_glide_docking_method>  (1) 
confgen

>  <s_i_glide_gridfile>  (1) 
gpcr_drd2_6luq_protein_autoprepared_prepared

>  <s_lp_Force_Field>  (1) 
S-OPLS

>  <s_lp_Variant>  (1) 
DiffSBDD_31_num_sample_50-3

>  <s_m_source_file>  (1) 
generated__ligand_DiffSBDD_2026-05-06_prepared.sdf

>  <GenAI_Model>  (1) 
DiffSBDD

>  <Protein>  (1) 
generic_title2

$$$$
DiffSBDD_10_num_sample_50
     RDKit          3D

  0  0  0  0  0  0  0  0  0  0999 V3000
M  V30 BEGIN CTAB
M  V30 COUNTS 72 73 0 0 1
M  V30 BEGIN ATOM
M  V30 1 C 7.768048 0.895234 -18.475733 0 CFG=2
M  V30 2 C 9.246659 7.072197 -12.115568 0
M  V30 3 C 5.530447 7.355649 -14.605847 0
M  V30 4 C 7.147218 6.137702 -17.908074 0 CFG=1
M  V30 5 C 8.538492 2.061496 -19.134595 0 CFG=2
M  V30 6 N 8.596232 4.754286 -12.350828 0
M  V30 7 N 6.788422 4.793011 -19.836096 0
M  V30 8 C 8.063310 4.428063 -19.317892 0 CFG=1
M  V30 9 S 8.808328 -0.614123 -18.037374 0
M  V30 10 C 10.353292 6.815795 -11.106157 0
M  V30 11 S 7.771957 -2.080354 -19.142763 0 CHG=-1
M  V30 12 C 5.587526 -0.027288 -17.391478 0
M  V30 13 O 10.477119 6.358120 -7.338554 0
M  V30 14 O 10.160866 -0.561737 -18.601732 0
M  V30 15 C 7.659165 1.148908 -19.966736 0 CFG=2
M  V30 16 C 5.877545 7.285443 -12.065203 0
M  V30 17 C 6.071152 5.396851 -18.733304 0 CFG=2
M  V30 18 N 9.436155 7.612498 -8.874765 0 CHG=1
M  V30 19 N 7.518661 6.371863 -13.616448 0
M  V30 20 C 10.501942 7.750042 -9.888821 0
M  V30 21 C 9.494857 5.013476 -17.285143 0
M  V30 22 C 6.606128 1.120251 -17.491827 0
M  V30 23 C 10.050992 2.144492 -19.344413 0
M  V30 24 C 6.921306 6.135395 -16.383641 0
M  V30 25 C 6.399754 6.955613 -13.447726 0
M  V30 26 O 6.489410 1.809683 -20.417529 0
M  V30 27 C 8.485826 6.096813 -12.658163 0
M  V30 28 O 8.649796 -0.913542 -16.609151 0
M  V30 29 F 5.120020 6.210419 -19.189331 0
M  V30 30 N 5.625398 6.058857 -11.326043 0
M  V30 31 C 9.332006 6.318652 -8.166148 0
M  V30 32 C 8.499498 5.531587 -18.354229 0 CFG=2
M  V30 33 O 7.963690 3.245980 -18.584849 0
M  V30 34 C 5.762216 6.998875 -15.899413 0
M  V30 35 H 9.089932 8.100069 -12.413419 0
M  V30 36 H 4.674606 7.962934 -14.354185 0
M  V30 37 H 7.153933 7.175752 -18.240008 0
M  V30 38 H 9.362303 4.408556 -11.790511 0
M  V30 39 H 6.295478 4.000659 -20.227324 0
M  V30 40 H 8.760109 4.324658 -20.145353 0
M  V30 41 H 11.289998 6.849133 -11.664626 0
M  V30 42 H 10.233824 5.793570 -10.768526 0
M  V30 43 H 4.798872 0.223170 -16.682670 0
M  V30 44 H 5.116885 -0.231369 -18.354191 0
M  V30 45 H 6.040746 -0.952477 -17.035355 0
M  V30 46 H 10.608827 5.494340 -6.972956 0
M  V30 47 H 8.127624 0.484077 -20.685849 0
M  V30 48 H 6.621829 7.880689 -11.542280 0
M  V30 49 H 4.972771 7.889451 -12.122827 0
M  V30 50 H 5.598894 4.604125 -18.164748 0
M  V30 51 H 8.498083 7.769328 -9.287320 0
M  V30 52 H 10.572486 8.792645 -10.193411 0
M  V30 53 H 11.461815 7.543873 -9.407630 0
M  V30 54 H 9.046999 4.259332 -16.636583 0
M  V30 55 H 10.361218 4.560138 -17.764411 0
M  V30 56 H 9.865117 5.815367 -16.648291 0
M  V30 57 H 7.031363 1.311698 -16.505787 0
M  V30 58 H 6.055211 2.019821 -17.762649 0
M  V30 59 H 10.386288 1.345813 -20.001916 0
M  V30 60 H 10.364691 3.061757 -19.837707 0
M  V30 61 H 10.578013 2.077600 -18.392767 0
M  V30 62 H 7.827331 6.515757 -15.930518 0
M  V30 63 H 6.780028 5.113473 -16.026174 0
M  V30 64 H 5.888550 1.851655 -19.689953 0
M  V30 65 H 6.484497 5.523617 -11.353862 0
M  V30 66 H 5.514898 6.313425 -10.353085 0
M  V30 67 H 9.325561 5.451623 -8.829720 0
M  V30 68 H 8.427598 6.280793 -7.558945 0
M  V30 69 H 9.009079 6.282206 -18.959353 0
M  V30 70 H 5.078521 7.338220 -16.663488 0
M  V30 71 H 8.107846 4.057415 -12.896395 0
M  V30 72 H 9.560878 8.324434 -8.171801 0
M  V30 END ATOM
M  V30 BEGIN BOND
M  V30 1 1 5 1
M  V30 2 1 8 7
M  V30 3 1 9 1
M  V30 4 1 10 2
M  V30 5 1 11 9
M  V30 6 2 14 9
M  V30 7 1 15 1
M  V30 8 1 15 5
M  V30 9 1 17 4
M  V30 10 1 17 7
M  V30 11 1 20 10
M  V30 12 1 20 18
M  V30 13 1 1 22 CFG=1
M  V30 14 1 22 12
M  V30 15 1 23 5
M  V30 16 1 24 4
M  V30 17 1 25 3
M  V30 18 1 25 16
M  V30 19 2 25 19
M  V30 20 1 26 15
M  V30 21 2 27 2
M  V30 22 1 27 6
M  V30 23 1 27 19
M  V30 24 2 28 9
M  V30 25 1 29 17
M  V30 26 1 30 16
M  V30 27 1 31 13
M  V30 28 1 31 18
M  V30 29 1 32 4
M  V30 30 1 32 8
M  V30 31 1 32 21
M  V30 32 1 5 33 CFG=1
M  V30 33 1 33 8
M  V30 34 2 34 3
M  V30 35 1 34 24
M  V30 36 1 35 2
M  V30 37 1 36 3
M  V30 38 1 4 37 CFG=3
M  V30 39 1 38 6
M  V30 40 1 39 7
M  V30 41 1 8 40 CFG=3
M  V30 42 1 41 10
M  V30 43 1 42 10
M  V30 44 1 43 12
M  V30 45 1 44 12
M  V30 46 1 45 12
M  V30 47 1 46 13
M  V30 48 1 15 47 CFG=3
M  V30 49 1 48 16
M  V30 50 1 49 16
M  V30 51 1 17 50 CFG=1
M  V30 52 1 51 18
M  V30 53 1 52 20
M  V30 54 1 53 20
M  V30 55 1 54 21
M  V30 56 1 55 21
M  V30 57 1 56 21
M  V30 58 1 57 22
M  V30 59 1 58 22
M  V30 60 1 59 23
M  V30 61 1 60 23
M  V30 62 1 61 23
M  V30 63 1 62 24
M  V30 64 1 63 24
M  V30 65 1 64 26
M  V30 66 1 65 30
M  V30 67 1 66 30
M  V30 68 1 67 31
M  V30 69 1 68 31
M  V30 70 1 32 69 CFG=3
M  V30 71 1 70 34
M  V30 72 1 71 6
M  V30 73 1 72 18
M  V30 END BOND
M  V30 END CTAB
M  END
>  <i_epik_Tot_Q>  (1) 
0

>  <i_epik_Tot_abs_Q>  (1) 
2

>  <i_i_glide_confnum>  (1) 
400

>  <i_i_glide_lignum>  (1) 
27

>  <i_i_glide_posenum>  (1) 
78

>  <i_i_glide_rotatable_bonds>  (1) 
15

>  <i_lp_mmshare_version>  (1) 
72125

>  <i_m_source_file_index>  (1) 
11

>  <i_f3d_flags>  (1) 
0

>  <num_sample>  (1) 
50

>  <b_lp_Chiralities_Consistent>  (1) 
1

>  <r_epik_Charging_Adjusted_Penalty>  (1) 
0.33639934582642134

>  <r_epik_Ionization_Penalty>  (1) 
0.23315943830934333

>  <r_epik_Ionization_Penalty_Charging>  (1) 
0.10316865490585193

>  <r_epik_Ionization_Penalty_Neutral>  (1) 
0.12999078340349141

>  <r_epik_State_Penalty>  (1) 
0.23323069092056939

>  <r_glide_ring_energy>  (1) 
0

>  <r_i_docking_score>  (1) 
-3.8826542533976669

>  <r_i_glide_ecoul>  (1) 
-7.4631001841929709

>  <r_i_glide_eff_state_penalty>  (1) 
0.23323069092056939

>  <r_i_glide_einternal>  (1) 
20.351361741615229

>  <r_i_glide_emodel>  (1) 
-35.315514647846001

>  <r_i_glide_emodel_strain>  (1) 
1.5445018027946418

>  <r_i_glide_energy>  (1) 
-35.234704434314736

>  <r_i_glide_erotb>  (1) 
0.82510599487301828

>  <r_i_glide_esite>  (1) 
-0.21717626863205544

>  <r_i_glide_evdw>  (1) 
-27.771604250121761

>  <r_i_glide_gscore>  (1) 
-4.1158849443182364

>  <r_i_glide_gscore_strain>  (1) 
0

>  <r_i_glide_hbond>  (1) 
-0.23367517507258875

>  <r_i_glide_ligand_efficiency>  (1) 
-0.11419571333522549

>  <r_i_glide_ligand_efficiency_ln>  (1) 
-0.85778722933850227

>  <r_i_glide_ligand_efficiency_sa>  (1) 
-0.36994978057609706

>  <r_i_glide_lipo>  (1) 
-1.0859187691196692

>  <r_i_glide_metal>  (1) 
-0

>  <r_i_glide_rewards>  (1) 
-0.89617548623190701

>  <r_lp_Energy>  (1) 
31.214245999999999

>  <s_epik_Chemistry_Notes>  (1) 
This compound has an imine and may undergo hydrolysis. This compound contains an acetal/aminal-like group ( X-CH(R)-Y where X, Y are N, S, or O) that may be acid/base labile, releasing an aldehyde.

>  <s_epik_cmdline>  (1) 
J2VwaWtfcHl0aG9uJywgJy1waHQnLCAnMS4wJywgJy1waCcsICc3LjQnLCAnLXRuJywgJzgnLCAnLW1hJywgJzUwMCcsICctaW1hZScsICc8aW5maWxlLm1hZT4nLCAnLW9tYWUnLCAnPG91dGZpbGUubWFlPic=

>  <s_epik_input>  (1) 
W1NIXVMoPU8pKD1PKVtDQEBdMShbQ0gyXVtDSDNdKVtDQEBdKFtDSDNdKShbQ0BASF0xW09IXSlPW0NASF0oW0NAQEhdMltDSDNdKVtOSF1bQ0BASF0oRilbQ0BIXTJbQ0gyXS9bQ0hdPVtDSF1cQyhbQ0gyXVtOSDJdKT1OXEMoPU5cW0hdKVxbQ0gyXVtDSDJdW0NIMl1bTkhdW0NIMl1bT0hd

>  <s_glide_docking_method>  (1) 
confgen

>  <s_i_glide_gridfile>  (1) 
gpcr_drd2_6luq_protein_autoprepared_prepared

>  <s_lp_Force_Field>  (1) 
S-OPLS

>  <s_lp_Variant>  (1) 
DiffSBDD_10_num_sample_50-7

>  <s_m_source_file>  (1) 
generated__ligand_DiffSBDD_2026-05-06_prepared.sdf

>  <GenAI_Model>  (1) 
DiffSBDD

>  <Protein>  (1) 
generic_title2

$$$$
DiffSBDD_2_num_sample_50
     RDKit          3D

  0  0  0  0  0  0  0  0  0  0999 V3000
M  V30 BEGIN CTAB
M  V30 COUNTS 55 58 0 0 1
M  V30 BEGIN ATOM
M  V30 1 C 10.047371 7.875288 -8.962523 0 CFG=1
M  V30 2 C 8.421858 5.528684 -10.385040 0
M  V30 3 O 8.550837 4.748315 -8.229702 0 CHG=-1
M  V30 4 C 7.549683 4.144740 -17.231739 0
M  V30 5 O 7.923733 0.002305 -15.889955 0
M  V30 6 C 7.375925 0.372395 -17.051490 0
M  V30 7 C 11.758325 6.738865 -4.096553 0
M  V30 8 C 7.423502 0.337501 -14.714776 0
M  V30 9 C 11.118697 6.387983 -5.448703 0
M  V30 10 O 6.778064 1.773839 -13.073562 0
M  V30 11 C 7.212429 1.648090 -17.432091 0
M  V30 12 C 6.867896 3.138181 -19.338024 0
M  V30 13 C 7.278419 1.593994 -14.302592 0
M  V30 14 C 9.497239 7.407341 -11.438306 0
M  V30 15 N 9.375229 6.728254 -8.362028 0 CFG=1 CHG=1
M  V30 16 C 9.256351 5.439273 -9.079549 0 CFG=2
M  V30 17 C 10.691293 7.552515 -6.364542 0
M  V30 18 C 7.266007 4.274904 -18.539783 0
M  V30 19 C 8.490755 5.705660 -12.819416 0
M  V30 20 N 9.211372 5.970781 -11.543660 0
M  V30 21 C 7.557246 2.806525 -15.155801 0
M  V30 22 C 8.356326 4.244677 -13.287639 0
M  V30 23 N 7.794823 4.070986 -14.516428 0
M  V30 24 C 6.845476 1.900115 -18.820499 0
M  V30 25 C 7.470469 2.834129 -16.550266 0
M  V30 26 C 10.676452 7.104181 -7.822850 0 CFG=2
M  V30 27 O 8.782907 3.329386 -12.587694 0
M  V30 28 C 10.572487 7.704889 -10.379783 0
M  V30 29 H 9.449007 8.760276 -8.754754 0
M  V30 30 H 7.538137 6.154325 -10.291681 0
M  V30 31 H 8.031831 4.530449 -10.579400 0
M  V30 32 H 7.824738 5.027852 -16.677650 0
M  V30 33 H 7.220352 -0.472706 -17.706913 0
M  V30 34 H 12.234904 5.854930 -3.676802 0
M  V30 35 H 11.034972 7.024190 -3.348415 0
M  V30 36 H 12.503255 7.529801 -4.172971 0
M  V30 37 H 7.194778 -0.529347 -14.110894 0
M  V30 38 H 11.838093 5.762864 -5.977389 0
M  V30 39 H 10.243416 5.769307 -5.272191 0
M  V30 40 H 6.721433 0.926391 -12.660728 0
M  V30 41 H 6.602041 3.285211 -20.374557 0
M  V30 42 H 9.904308 7.750748 -12.389537 0
M  V30 43 H 8.592773 7.994372 -11.269579 0
M  V30 44 H 10.234827 5.083058 -9.375883 0
M  V30 45 H 9.722971 7.958981 -6.067912 0
M  V30 46 H 11.415230 8.363699 -6.279372 0
M  V30 47 H 7.323017 5.250753 -19.000223 0
M  V30 48 H 9.035298 6.169435 -13.636576 0
M  V30 49 H 7.502648 6.169528 -12.792336 0
M  V30 50 H 7.583705 4.892247 -15.059369 0
M  V30 51 H 6.566041 1.069867 -19.453835 0
M  V30 52 H 11.437467 6.381902 -8.091975 0
M  V30 53 H 11.061127 8.641484 -10.638326 0
M  V30 54 H 11.372262 6.969307 -10.412132 0
M  V30 55 H 8.549820 6.992386 -7.838578 0
M  V30 END ATOM
M  V30 BEGIN BOND
M  V30 1 1 6 5
M  V30 2 1 8 5
M  V30 3 1 9 7
M  V30 4 2 11 6
M  V30 5 2 13 8
M  V30 6 1 13 10
M  V30 7 1 15 1
M  V30 8 1 16 2
M  V30 9 1 16 3
M  V30 10 1 16 15
M  V30 11 1 17 9
M  V30 12 2 18 4
M  V30 13 1 18 12
M  V30 14 1 20 2
M  V30 15 1 20 14
M  V30 16 1 20 19
M  V30 17 1 21 13
M  V30 18 1 22 19
M  V30 19 1 23 21
M  V30 20 1 23 22
M  V30 21 1 24 11
M  V30 22 2 24 12
M  V30 23 1 25 4
M  V30 24 1 25 11
M  V30 25 2 25 21
M  V30 26 1 26 1
M  V30 27 1 26 15
M  V30 28 1 26 17
M  V30 29 2 27 22
M  V30 30 1 28 1
M  V30 31 1 28 14
M  V30 32 1 1 29 CFG=1
M  V30 33 1 30 2
M  V30 34 1 31 2
M  V30 35 1 32 4
M  V30 36 1 33 6
M  V30 37 1 34 7
M  V30 38 1 35 7
M  V30 39 1 36 7
M  V30 40 1 37 8
M  V30 41 1 38 9
M  V30 42 1 39 9
M  V30 43 1 40 10
M  V30 44 1 41 12
M  V30 45 1 42 14
M  V30 46 1 43 14
M  V30 47 1 16 44 CFG=3
M  V30 48 1 45 17
M  V30 49 1 46 17
M  V30 50 1 47 18
M  V30 51 1 48 19
M  V30 52 1 49 19
M  V30 53 1 50 23
M  V30 54 1 51 24
M  V30 55 1 26 52 CFG=3
M  V30 56 1 53 28
M  V30 57 1 54 28
M  V30 58 1 15 55 CFG=1
M  V30 END BOND
M  V30 END CTAB
M  END
>  <i_epik_Tot_Q>  (1) 
0

>  <i_epik_Tot_abs_Q>  (1) 
2

>  <i_i_glide_confnum>  (1) 
34

>  <i_i_glide_lignum>  (1) 
8

>  <i_i_glide_posenum>  (1) 
196

>  <i_i_glide_rotatable_bonds>  (1) 
7

>  <i_lp_mmshare_version>  (1) 
72125

>  <i_m_source_file_index>  (1) 
3

>  <i_f3d_flags>  (1) 
0

>  <num_sample>  (1) 
50

>  <b_lp_Chiralities_Consistent>  (1) 
1

>  <r_epik_Charging_Adjusted_Penalty>  (1) 
1.1352312410036836

>  <r_epik_Ionization_Penalty>  (1) 
1.1482633258778028

>  <r_epik_Ionization_Penalty_Charging>  (1) 
0.01211088635150746

>  <r_epik_Ionization_Penalty_Neutral>  (1) 
1.1361524395262954

>  <r_epik_State_Penalty>  (1) 
1.1231203546521762

>  <r_glide_ring_energy>  (1) 
0

>  <r_i_docking_score>  (1) 
-3.8742634229185855

>  <r_i_glide_ecoul>  (1) 
-0.57902894489280277

>  <r_i_glide_eff_state_penalty>  (1) 
1.1231203546521762

>  <r_i_glide_einternal>  (1) 
6.8537183138910933

>  <r_i_glide_emodel>  (1) 
-39.442727485210519

>  <r_i_glide_emodel_strain>  (1) 
0.44897040011417744

>  <r_i_glide_energy>  (1) 
-32.379308854259065

>  <r_i_glide_erotb>  (1) 
0.45823381060745938

>  <r_i_glide_esite>  (1) 
-0.12678859275376439

>  <r_i_glide_evdw>  (1) 
-31.800279909366264

>  <r_i_glide_gscore>  (1) 
-4.9973837775707617

>  <r_i_glide_gscore_strain>  (1) 
0

>  <r_i_glide_hbond>  (1) 
-0.034306996305358238

>  <r_i_glide_ligand_efficiency>  (1) 
-0.13836655081852092

>  <r_i_glide_ligand_efficiency_ln>  (1) 
-0.89429375132659683

>  <r_i_glide_ligand_efficiency_sa>  (1) 
-0.42016234229199406

>  <r_i_glide_lipo>  (1) 
-1.5077713986305505

>  <r_i_glide_metal>  (1) 
-0

>  <r_i_glide_rewards>  (1) 
-2.1098822632863139

>  <r_lp_Energy>  (1) 
71.160493000000002

>  <s_epik_Chemistry_Notes>  (1) 
This compound contains an acetal/aminal-like group ( X-CH(R)-Y where X, Y are N, S, or O) that may be acid/base labile, releasing an aldehyde.

>  <s_epik_cmdline>  (1) 
J2VwaWtfcHl0aG9uJywgJy1waHQnLCAnMS4wJywgJy1waCcsICc3LjQnLCAnLXRuJywgJzgnLCAnLW1hJywgJzUwMCcsICctaW1hZScsICc8aW5maWxlLm1hZT4nLCAnLW9tYWUnLCAnPG91dGZpbGUubWFlPic=

>  <s_epik_input>  (1) 
W0NIM11bQ0gyXVtDSDJdW0NIXTFOKFtDQEBIXTEyKVtDQEBIXShbT0hdKVtDSDJdTihbQ0gyXVtDSDJdMilbQ0gyXUMoPU8pW05IXUMoQyhbT0hdKT1bQ0hdT1tDSF09Myk9YyhjMzQpW2NIXVtjSF1bY0hdW2NIXTQ=

>  <s_glide_docking_method>  (1) 
confgen

>  <s_i_glide_gridfile>  (1) 
gpcr_drd2_6luq_protein_autoprepared_prepared

>  <s_lp_Force_Field>  (1) 
S-OPLS

>  <s_lp_Variant>  (1) 
DiffSBDD_2_num_sample_50-3

>  <s_m_source_file>  (1) 
generated__ligand_DiffSBDD_2026-05-06_prepared.sdf

>  <GenAI_Model>  (1) 
DiffSBDD

>  <Protein>  (1) 
generic_title2

$$$$
DiffSBDD_2_num_sample_50
     RDKit          3D

  0  0  0  0  0  0  0  0  0  0999 V3000
M  V30 BEGIN CTAB
M  V30 COUNTS 55 58 0 0 1
M  V30 BEGIN ATOM
M  V30 1 C 9.701870 5.840219 -8.605932 0 CFG=1
M  V30 2 C 9.560684 6.558910 -11.384890 0
M  V30 3 O 11.284347 7.693791 -10.261084 0 CHG=-1
M  V30 4 C 7.934032 4.314216 -16.370193 0
M  V30 5 O 8.179342 0.015611 -15.388424 0
M  V30 6 C 8.216618 0.534845 -16.612018 0
M  V30 7 C 10.927301 9.379176 -5.859601 0
M  V30 8 C 7.210018 0.180814 -14.506431 0
M  V30 9 C 11.688043 8.827623 -7.070561 0
M  V30 10 O 5.875975 1.365189 -13.091416 0
M  V30 11 C 8.108743 1.840979 -16.888893 0
M  V30 12 C 8.464528 3.542684 -18.608332 0
M  V30 13 C 6.791963 1.364103 -14.069086 0
M  V30 14 C 8.201762 4.787936 -10.327477 0
M  V30 15 N 9.434854 7.227587 -8.961952 0 CFG=2 CHG=1
M  V30 16 C 9.977016 7.606678 -10.300666 0 CFG=2
M  V30 17 C 11.457212 7.329503 -7.306706 0
M  V30 18 C 8.253593 4.588319 -17.645401 0
M  V30 19 C 7.421127 5.830087 -12.412760 0
M  V30 20 N 8.208274 6.001188 -11.167791 0
M  V30 21 C 7.257167 2.679383 -14.578365 0
M  V30 22 C 7.894237 4.741424 -13.387086 0
M  V30 23 N 6.991776 3.774555 -13.696747 0
M  V30 24 C 8.394762 2.253245 -18.258505 0
M  V30 25 C 7.790794 2.914589 -15.875870 0
M  V30 26 C 10.017192 6.946231 -7.637987 0 CFG=2
M  V30 27 O 9.040468 4.767835 -13.830027 0
M  V30 28 C 8.413162 5.092786 -8.824386 0
M  V30 29 H 10.570942 5.417982 -9.091015 0
M  V30 30 H 10.273540 5.743068 -11.485480 0
M  V30 31 H 9.603937 7.074348 -12.344800 0
M  V30 32 H 7.746371 5.143178 -15.726952 0
M  V30 33 H 8.471390 -0.210922 -17.351581 0
M  V30 34 H 11.117040 10.445416 -5.733974 0
M  V30 35 H 11.229788 8.872679 -4.942533 0
M  V30 36 H 9.853400 9.244662 -5.973659 0
M  V30 37 H 6.854486 -0.763186 -14.118267 0
M  V30 38 H 11.428663 9.371498 -7.977279 0
M  V30 39 H 12.754283 9.001312 -6.924326 0
M  V30 40 H 5.682279 0.462132 -12.884101 0
M  V30 41 H 8.687895 3.802474 -19.632268 0
M  V30 42 H 7.233331 4.293852 -10.417724 0
M  V30 43 H 8.941721 4.072672 -10.691639 0
M  V30 44 H 9.377766 8.489831 -10.526542 0
M  V30 45 H 12.132778 6.969301 -8.073605 0
M  V30 46 H 11.741903 6.782906 -6.407150 0
M  V30 47 H 8.328349 5.618704 -17.960723 0
M  V30 48 H 7.406114 6.775365 -12.957140 0
M  V30 49 H 6.380357 5.646087 -12.141949 0
M  V30 50 H 6.129035 3.737597 -13.174401 0
M  V30 51 H 8.572060 1.497324 -19.010205 0
M  V30 52 H 9.277773 7.145920 -6.865713 0
M  V30 53 H 8.451323 4.169304 -8.248168 0
M  V30 54 H 7.573122 5.662119 -8.427386 0
M  V30 55 H 8.421075 7.369997 -8.959736 0
M  V30 END ATOM
M  V30 BEGIN BOND
M  V30 1 1 6 5
M  V30 2 1 8 5
M  V30 3 1 9 7
M  V30 4 2 11 6
M  V30 5 2 13 8
M  V30 6 1 13 10
M  V30 7 1 15 1
M  V30 8 1 16 2
M  V30 9 1 16 3
M  V30 10 1 16 15
M  V30 11 1 17 9
M  V30 12 2 18 4
M  V30 13 1 18 12
M  V30 14 1 20 2
M  V30 15 1 20 14
M  V30 16 1 20 19
M  V30 17 1 21 13
M  V30 18 1 22 19
M  V30 19 1 23 21
M  V30 20 1 23 22
M  V30 21 1 24 11
M  V30 22 2 24 12
M  V30 23 1 25 4
M  V30 24 1 25 11
M  V30 25 2 25 21
M  V30 26 1 26 1
M  V30 27 1 26 15
M  V30 28 1 26 17
M  V30 29 2 27 22
M  V30 30 1 28 1
M  V30 31 1 28 14
M  V30 32 1 1 29 CFG=3
M  V30 33 1 30 2
M  V30 34 1 31 2
M  V30 35 1 32 4
M  V30 36 1 33 6
M  V30 37 1 34 7
M  V30 38 1 35 7
M  V30 39 1 36 7
M  V30 40 1 37 8
M  V30 41 1 38 9
M  V30 42 1 39 9
M  V30 43 1 40 10
M  V30 44 1 41 12
M  V30 45 1 42 14
M  V30 46 1 43 14
M  V30 47 1 16 44 CFG=3
M  V30 48 1 45 17
M  V30 49 1 46 17
M  V30 50 1 47 18
M  V30 51 1 48 19
M  V30 52 1 49 19
M  V30 53 1 50 23
M  V30 54 1 51 24
M  V30 55 1 26 52 CFG=1
M  V30 56 1 53 28
M  V30 57 1 54 28
M  V30 58 1 15 55 CFG=1
M  V30 END BOND
M  V30 END CTAB
M  END
>  <i_epik_Tot_Q>  (1) 
0

>  <i_epik_Tot_abs_Q>  (1) 
2

>  <i_i_glide_confnum>  (1) 
21

>  <i_i_glide_lignum>  (1) 
9

>  <i_i_glide_posenum>  (1) 
305

>  <i_i_glide_rotatable_bonds>  (1) 
7

>  <i_lp_mmshare_version>  (1) 
72125

>  <i_m_source_file_index>  (1) 
3

>  <i_f3d_flags>  (1) 
0

>  <num_sample>  (1) 
50

>  <b_lp_Chiralities_Consistent>  (1) 
1

>  <r_epik_Charging_Adjusted_Penalty>  (1) 
1.1352312410036836

>  <r_epik_Ionization_Penalty>  (1) 
1.1482633258778028

>  <r_epik_Ionization_Penalty_Charging>  (1) 
0.01211088635150746

>  <r_epik_Ionization_Penalty_Neutral>  (1) 
1.1361524395262954

>  <r_epik_State_Penalty>  (1) 
1.1231203546521762

>  <r_glide_ring_energy>  (1) 
0

>  <r_i_docking_score>  (1) 
-3.8679535319443072

>  <r_i_glide_ecoul>  (1) 
-4.5437068148492301

>  <r_i_glide_eff_state_penalty>  (1) 
1.1231203546521762

>  <r_i_glide_einternal>  (1) 
2.7563845518370229

>  <r_i_glide_emodel>  (1) 
-49.922906800713179

>  <r_i_glide_emodel_strain>  (1) 
0

>  <r_i_glide_energy>  (1) 
-36.910260770061079

>  <r_i_glide_erotb>  (1) 
0.65461972943922775

>  <r_i_glide_esite>  (1) 
-0.18488591498028306

>  <r_i_glide_evdw>  (1) 
-32.366553955211849

>  <r_i_glide_gscore>  (1) 
-4.9910738865964834

>  <r_i_glide_gscore_strain>  (1) 
0

>  <r_i_glide_hbond>  (1) 
-0.20000000000000001

>  <r_i_glide_ligand_efficiency>  (1) 
-0.13814119756943954

>  <r_i_glide_ligand_efficiency_ln>  (1) 
-0.89283724322328406

>  <r_i_glide_ligand_efficiency_sa>  (1) 
-0.41947803710105724

>  <r_i_glide_lipo>  (1) 
-1.5875425988675675

>  <r_i_glide_metal>  (1) 
-0

>  <r_i_glide_rewards>  (1) 
-1.3733813821998844

>  <r_lp_Energy>  (1) 
91.512348000000003

>  <s_epik_Chemistry_Notes>  (1) 
This compound contains an acetal/aminal-like group ( X-CH(R)-Y where X, Y are N, S, or O) that may be acid/base labile, releasing an aldehyde.

>  <s_epik_cmdline>  (1) 
J2VwaWtfcHl0aG9uJywgJy1waHQnLCAnMS4wJywgJy1waCcsICc3LjQnLCAnLXRuJywgJzgnLCAnLW1hJywgJzUwMCcsICctaW1hZScsICc8aW5maWxlLm1hZT4nLCAnLW9tYWUnLCAnPG91dGZpbGUubWFlPic=

>  <s_epik_input>  (1) 
W0NIM11bQ0gyXVtDSDJdW0NIXTFOKFtDQEBIXTEyKVtDQEBIXShbT0hdKVtDSDJdTihbQ0gyXVtDSDJdMilbQ0gyXUMoPU8pW05IXUMoQyhbT0hdKT1bQ0hdT1tDSF09Myk9YyhjMzQpW2NIXVtjSF1bY0hdW2NIXTQ=

>  <s_glide_docking_method>  (1) 
confgen

>  <s_i_glide_gridfile>  (1) 
gpcr_drd2_6luq_protein_autoprepared_prepared

>  <s_lp_Force_Field>  (1) 
S-OPLS

>  <s_lp_Variant>  (1) 
DiffSBDD_2_num_sample_50-4

>  <s_m_source_file>  (1) 
generated__ligand_DiffSBDD_2026-05-06_prepared.sdf

>  <GenAI_Model>  (1) 
DiffSBDD

>  <Protein>  (1) 
generic_title2

$$$$
DiffSBDD_12_num_sample_50
     RDKit          3D

  0  0  0  0  0  0  0  0  0  0999 V3000
M  V30 BEGIN CTAB
M  V30 COUNTS 66 67 0 0 1
M  V30 BEGIN ATOM
M  V30 1 C 6.762229 5.106375 -18.893331 0 CFG=2
M  V30 2 C 9.495411 8.517237 -10.382643 0
M  V30 3 O 10.236769 7.814452 -5.947296 0
M  V30 4 C 7.334779 3.512886 -13.970317 0
M  V30 5 C 7.353432 7.557228 -12.169677 0
M  V30 6 C 7.462184 5.508714 -20.205725 0
M  V30 7 O 6.754589 6.252380 -18.045802 0
M  V30 8 F 6.802918 6.522229 -20.766347 0
M  V30 9 C 7.146168 4.746479 -13.060945 0 CFG=1
M  V30 10 C 10.888498 6.722188 -8.553079 0
M  V30 11 C 7.469068 3.950365 -18.159458 0
M  V30 12 C 10.015641 8.637607 -7.073780 0
M  V30 13 F 8.722081 5.882109 -19.978013 0
M  V30 14 C 8.466932 5.292651 -12.432221 0 CFG=2
M  V30 15 C 4.520775 7.155808 -18.038843 0
M  V30 16 F 7.460896 4.489793 -21.064520 0
M  V30 17 C 10.766995 8.943700 -9.601262 0
M  V30 18 C 9.262754 4.156526 -11.770289 0
M  V30 19 C 9.423310 6.989060 -10.630697 0 CFG=1
M  V30 20 C 6.052206 6.982634 -12.761248 0
M  V30 21 C 6.972937 6.384357 -15.075290 0
M  V30 22 C 6.327615 5.855189 -13.769879 0 CFG=1
M  V30 23 C 6.016091 7.188432 -15.981000 0
M  V30 24 C 9.590055 6.289879 -9.259146 0
M  V30 25 C 10.945812 8.217889 -8.243696 0 CFG=2
M  V30 26 C 8.169102 6.462586 -11.432856 0 CFG=1
M  V30 27 C 5.596902 6.410031 -17.237165 0 CFG=2
M  V30 28 F 7.353973 2.810206 -18.839205 0
M  V30 29 H 5.741162 4.804257 -19.133079 0
M  V30 30 H 9.464578 8.969239 -11.369055 0
M  V30 31 H 8.635143 8.922415 -9.854981 0
M  V30 32 H 11.159711 7.806019 -5.751921 0
M  V30 33 H 8.148317 3.653838 -14.681213 0
M  V30 34 H 7.558687 2.621314 -13.385076 0
M  V30 35 H 6.428862 3.292060 -14.534855 0
M  V30 36 H 7.074187 8.361862 -11.491648 0
M  V30 37 H 7.959985 8.031290 -12.939590 0
M  V30 38 H 6.523836 4.398741 -12.233173 0
M  V30 39 H 11.729226 6.569297 -9.221002 0
M  V30 40 H 11.063427 6.111869 -7.667487 0
M  V30 41 H 8.531640 4.149812 -18.016814 0
M  V30 42 H 7.034885 3.767432 -17.178447 0
M  V30 43 H 8.961703 8.597412 -7.353615 0
M  V30 44 H 10.234749 9.640406 -6.700298 0
M  V30 45 H 9.090674 5.683109 -13.237601 0
M  V30 46 H 3.618229 7.302942 -17.445045 0
M  V30 47 H 4.880050 8.136663 -18.351896 0
M  V30 48 H 4.236885 6.605945 -18.935444 0
M  V30 49 H 10.821802 10.020096 -9.491662 0
M  V30 50 H 11.628429 8.705135 -10.226377 0
M  V30 51 H 8.733733 3.769762 -10.901947 0
M  V30 52 H 9.468775 3.327616 -12.444745 0
M  V30 53 H 10.234829 4.508620 -11.448667 0
M  V30 54 H 10.298136 6.758935 -11.238632 0
M  V30 55 H 5.434812 6.596650 -11.948085 0
M  V30 56 H 5.457425 7.769216 -13.218030 0
M  V30 57 H 7.834864 7.000205 -14.838060 0
M  V30 58 H 7.390822 5.562643 -15.652540 0
M  V30 59 H 5.364615 5.419224 -14.043716 0
M  V30 60 H 5.123938 7.484356 -15.429776 0
M  V30 61 H 6.499900 8.119152 -16.282227 0
M  V30 62 H 9.600641 5.208049 -9.362699 0
M  V30 63 H 8.731057 6.513265 -8.624091 0
M  V30 64 H 11.961727 8.431295 -7.907440 0
M  V30 65 H 7.483104 6.056886 -10.689439 0
M  V30 66 H 5.211209 5.441621 -16.925969 0
M  V30 END ATOM
M  V30 BEGIN BOND
M  V30 1 1 6 1
M  V30 2 1 7 1
M  V30 3 1 8 6
M  V30 4 1 9 4
M  V30 5 1 11 1
M  V30 6 1 12 3
M  V30 7 1 13 6
M  V30 8 1 14 9
M  V30 9 1 16 6
M  V30 10 1 17 2
M  V30 11 1 18 14
M  V30 12 1 19 2
M  V30 13 1 20 5
M  V30 14 1 22 9
M  V30 15 1 22 20
M  V30 16 1 22 21
M  V30 17 1 23 21
M  V30 18 1 24 10
M  V30 19 1 24 19
M  V30 20 1 25 10
M  V30 21 1 25 12
M  V30 22 1 25 17
M  V30 23 1 26 5
M  V30 24 1 26 14
M  V30 25 1 26 19
M  V30 26 1 27 7
M  V30 27 1 27 15
M  V30 28 1 27 23
M  V30 29 1 28 11
M  V30 30 1 1 29 CFG=3
M  V30 31 1 30 2
M  V30 32 1 31 2
M  V30 33 1 32 3
M  V30 34 1 33 4
M  V30 35 1 34 4
M  V30 36 1 35 4
M  V30 37 1 36 5
M  V30 38 1 37 5
M  V30 39 1 9 38 CFG=1
M  V30 40 1 39 10
M  V30 41 1 40 10
M  V30 42 1 41 11
M  V30 43 1 42 11
M  V30 44 1 43 12
M  V30 45 1 44 12
M  V30 46 1 14 45 CFG=3
M  V30 47 1 46 15
M  V30 48 1 47 15
M  V30 49 1 48 15
M  V30 50 1 49 17
M  V30 51 1 50 17
M  V30 52 1 51 18
M  V30 53 1 52 18
M  V30 54 1 53 18
M  V30 55 1 19 54 CFG=3
M  V30 56 1 55 20
M  V30 57 1 56 20
M  V30 58 1 57 21
M  V30 59 1 58 21
M  V30 60 1 22 59 CFG=3
M  V30 61 1 60 23
M  V30 62 1 61 23
M  V30 63 1 62 24
M  V30 64 1 63 24
M  V30 65 1 25 64 CFG=1
M  V30 66 1 26 65 CFG=1
M  V30 67 1 27 66 CFG=1
M  V30 END BOND
M  V30 END CTAB
M  END
>  <i_epik_Tot_Q>  (1) 
0

>  <i_epik_Tot_abs_Q>  (1) 
0

>  <i_i_glide_confnum>  (1) 
325

>  <i_i_glide_lignum>  (1) 
47

>  <i_i_glide_posenum>  (1) 
260

>  <i_i_glide_rotatable_bonds>  (1) 
10

>  <i_lp_mmshare_version>  (1) 
72125

>  <i_m_source_file_index>  (1) 
13

>  <i_f3d_flags>  (1) 
0

>  <num_sample>  (1) 
50

>  <b_lp_Chiralities_Consistent>  (1) 
1

>  <r_epik_Charging_Adjusted_Penalty>  (1) 
0

>  <r_epik_Ionization_Penalty>  (1) 
3.7258490457677376e-07

>  <r_epik_Ionization_Penalty_Charging>  (1) 
0

>  <r_epik_Ionization_Penalty_Neutral>  (1) 
3.7258490457677376e-07

>  <r_epik_State_Penalty>  (1) 
-0

>  <r_glide_ring_energy>  (1) 
0

>  <r_i_docking_score>  (1) 
-3.8594436824901233

>  <r_i_glide_ecoul>  (1) 
0.91564809345105258

>  <r_i_glide_eff_state_penalty>  (1) 
-0

>  <r_i_glide_einternal>  (1) 
24.046311055594092

>  <r_i_glide_emodel>  (1) 
-16.225602886037819

>  <r_i_glide_emodel_strain>  (1) 
0.24661779317035837

>  <r_i_glide_energy>  (1) 
-24.361479695718085

>  <r_i_glide_erotb>  (1) 
0.81823453102936505

>  <r_i_glide_esite>  (1) 
0

>  <r_i_glide_evdw>  (1) 
-25.277127789169139

>  <r_i_glide_gscore>  (1) 
-3.8594436824901233

>  <r_i_glide_gscore_strain>  (1) 
0

>  <r_i_glide_hbond>  (1) 
0

>  <r_i_glide_ligand_efficiency>  (1) 
-0.13783727437464727

>  <r_i_glide_ligand_efficiency_ln>  (1) 
-0.89087292010922137

>  <r_i_glide_ligand_efficiency_sa>  (1) 
-0.41855514727945381

>  <r_i_glide_lipo>  (1) 
-1.8904807320475459

>  <r_i_glide_metal>  (1) 
-0

>  <r_i_glide_rewards>  (1) 
-1.6606883060311433

>  <r_lp_Energy>  (1) 
30.869408

>  <r_lp_tautomer_probability>  (1) 
1

>  <s_epik_cmdline>  (1) 
J2VwaWtfcHl0aG9uJywgJy1waHQnLCAnMS4wJywgJy1waCcsICc3LjQnLCAnLXRuJywgJzgnLCAnLW1hJywgJzUwMCcsICctaW1hZScsICc8aW5maWxlLm1hZT4nLCAnLW9tYWUnLCAnPG91dGZpbGUubWFlPic=

>  <s_epik_input>  (1) 
RkMoRikoRilbQ0BASF0oW0NIMl1GKU9bQ0BIXShbQ0gzXSlbQ0gyXVtDSDJdW0NAQEhdMVtDSDJdW0NIMl1bQ0BASF0oW0NAQEhdKFtDSDNdKVtDQEBIXTFbQ0gzXSlbQ0BIXTJbQ0gyXVtDSDJdW0NASF0oW0NIMl1bQ0gyXTIpW0NIMl1bT0hd

>  <s_glide_docking_method>  (1) 
confgen

>  <s_i_glide_gridfile>  (1) 
gpcr_drd2_6luq_protein_autoprepared_prepared

>  <s_lp_Force_Field>  (1) 
S-OPLS

>  <s_lp_Variant>  (1) 
DiffSBDD_12_num_sample_50-1

>  <s_m_source_file>  (1) 
generated__ligand_DiffSBDD_2026-05-06_prepared.sdf

>  <GenAI_Model>  (1) 
DiffSBDD

>  <Protein>  (1) 
generic_title2

$$$$
DiffSBDD_40_num_sample_50
     RDKit          3D

  0  0  0  0  0  0  0  0  0  0999 V3000
M  V30 BEGIN CTAB
M  V30 COUNTS 80 83 0 0 1
M  V30 BEGIN ATOM
M  V30 1 C 8.641688 3.848325 -19.085924 0 CFG=1
M  V30 2 S 8.111591 7.563867 -12.291940 0
M  V30 3 C 5.363376 3.853017 -13.230201 0
M  V30 4 C 6.202922 4.183733 -21.273991 0 CFG=2
M  V30 5 C 6.639557 3.828791 -13.657298 0
M  V30 6 C 8.829115 8.218838 -21.313462 0
M  V30 7 C 7.779776 5.109762 -19.405889 0 CFG=2
M  V30 8 C 9.931015 7.643950 -20.790205 0
M  V30 9 C 7.273254 5.205676 -20.871603 0
M  V30 10 C 8.935795 3.610107 -17.583634 0
M  V30 11 C 10.002808 5.582644 -12.512915 0
M  V30 12 C 11.288069 7.900881 -21.431265 0 CFG=1
M  V30 13 C 7.632189 4.983192 -13.364660 0 CFG=1
M  V30 14 C 10.969208 6.267323 -19.063859 0
M  V30 15 C 12.400060 7.863013 -20.377007 0 CFG=2
M  V30 16 C 9.832818 6.768402 -19.601392 0
M  V30 17 C 7.180301 2.644754 -14.476605 0 CFG=1
M  V30 18 C 9.592984 6.767520 -11.628546 0 CFG=2
M  V30 19 S 6.423417 0.569302 -12.782563 0
M  V30 20 C 4.773982 4.712908 -21.705613 0
M  V30 21 F 13.594173 8.060840 -20.935404 0
M  V30 22 C 8.474586 6.430422 -18.959450 0
M  V30 23 C 12.363113 6.547168 -19.596092 0
M  V30 24 C 7.012163 6.133643 -12.518730 0
M  V30 25 F 11.523457 6.973951 -22.361122 0
M  V30 26 O 4.597183 5.915446 -21.891451 0
M  V30 27 O 8.184266 3.028739 -15.405994 0
M  V30 28 O 8.050375 2.655902 -19.558561 0
M  V30 29 C 7.747846 1.489475 -13.617989 0
M  V30 30 C 12.230335 7.971970 -8.656916 0
M  V30 31 N 9.435679 6.375046 -7.964269 0
M  V30 32 C 7.705931 3.426702 -16.681128 0
M  V30 33 N 8.701242 5.385192 -9.706210 0 CHG=1
M  V30 34 O 5.142850 4.228479 -20.466817 0
M  V30 35 C 9.910827 7.096665 -9.033371 0
M  V30 36 C 8.948008 4.485713 -12.726004 0
M  V30 37 C 9.434835 6.454855 -10.165295 0
M  V30 38 C 8.705193 5.347759 -8.380346 0
M  V30 39 C 10.753172 8.319149 -8.864896 0
M  V30 40 H 9.592662 3.930529 -19.612094 0
M  V30 41 H 4.975299 4.676273 -12.655722 0
M  V30 42 H 4.692121 3.039360 -13.456548 0
M  V30 43 H 6.474718 3.147813 -21.459136 0
M  V30 44 H 8.900904 8.857787 -22.182281 0
M  V30 45 H 7.854595 8.068230 -20.890263 0
M  V30 46 H 6.882688 5.043225 -18.790770 0
M  V30 47 H 6.864557 6.200209 -21.026191 0
M  V30 48 H 8.113123 5.118871 -21.561312 0
M  V30 49 H 9.561962 2.720733 -17.499003 0
M  V30 50 H 9.536089 4.412573 -17.164296 0
M  V30 51 H 10.288049 5.966160 -13.491620 0
M  V30 52 H 10.902355 5.132903 -12.115250 0
M  V30 53 H 11.292200 8.864560 -21.943070 0
M  V30 54 H 7.883171 5.410029 -14.337025 0
M  V30 55 H 10.913087 5.631097 -18.197878 0
M  V30 56 H 12.265185 8.683401 -19.671944 0
M  V30 57 H 6.347629 2.211377 -15.031402 0
M  V30 58 H 10.385264 7.512476 -11.701333 0
M  V30 59 H 5.889026 0.029264 -13.883201 0
M  V30 60 H 7.779367 7.264343 -19.015722 0
M  V30 61 H 8.655201 6.349439 -17.891696 0
M  V30 62 H 13.057375 6.600042 -18.757280 0
M  V30 63 H 12.676774 5.709897 -20.220299 0
M  V30 64 H 6.118739 6.522257 -13.008217 0
M  V30 65 H 6.704897 5.776786 -11.535512 0
M  V30 66 H 8.131949 2.631410 -20.499316 0
M  V30 67 H 8.279303 0.783160 -14.256780 0
M  V30 68 H 8.462481 1.828555 -12.871910 0
M  V30 69 H 12.830902 8.875406 -8.548290 0
M  V30 70 H 12.370615 7.369669 -7.759190 0
M  V30 71 H 12.624404 7.413563 -9.506442 0
M  V30 72 H 7.131715 4.349422 -16.593773 0
M  V30 73 H 7.051623 2.658655 -17.095623 0
M  V30 74 H 9.605646 6.600641 -6.992327 0
M  V30 75 H 8.746068 3.940121 -11.807392 0
M  V30 76 H 9.425990 3.769366 -13.387239 0
M  V30 77 H 8.204267 4.626360 -7.761253 0
M  V30 78 H 10.637944 8.955964 -9.741796 0
M  V30 79 H 10.381027 8.893156 -8.015477 0
M  V30 80 H 8.211999 4.725231 -10.296558 0
M  V30 END ATOM
M  V30 BEGIN BOND
M  V30 1 2 5 3
M  V30 2 1 7 1
M  V30 3 2 8 6
M  V30 4 1 9 4
M  V30 5 1 9 7
M  V30 6 1 10 1
M  V30 7 1 12 8
M  V30 8 1 13 5
M  V30 9 1 15 12
M  V30 10 1 16 8
M  V30 11 2 16 14
M  V30 12 1 17 5
M  V30 13 1 18 2
M  V30 14 1 18 11
M  V30 15 1 20 4
M  V30 16 1 21 15
M  V30 17 1 22 7
M  V30 18 1 22 16
M  V30 19 1 23 14
M  V30 20 1 23 15
M  V30 21 1 24 2
M  V30 22 1 24 13
M  V30 23 1 25 12
M  V30 24 2 26 20
M  V30 25 1 27 17
M  V30 26 1 28 1
M  V30 27 1 29 17
M  V30 28 1 29 19
M  V30 29 1 32 10
M  V30 30 1 32 27
M  V30 31 1 34 4
M  V30 32 1 34 20
M  V30 33 1 35 31
M  V30 34 1 36 11
M  V30 35 1 36 13
M  V30 36 1 37 18
M  V30 37 1 37 33
M  V30 38 2 37 35
M  V30 39 1 38 31
M  V30 40 2 38 33
M  V30 41 1 39 30
M  V30 42 1 39 35
M  V30 43 1 1 40 CFG=3
M  V30 44 1 41 3
M  V30 45 1 42 3
M  V30 46 1 4 43 CFG=3
M  V30 47 1 44 6
M  V30 48 1 45 6
M  V30 49 1 7 46 CFG=1
M  V30 50 1 47 9
M  V30 51 1 48 9
M  V30 52 1 49 10
M  V30 53 1 50 10
M  V30 54 1 51 11
M  V30 55 1 52 11
M  V30 56 1 12 53 CFG=3
M  V30 57 1 13 54 CFG=3
M  V30 58 1 55 14
M  V30 59 1 15 56 CFG=1
M  V30 60 1 17 57 CFG=3
M  V30 61 1 18 58 CFG=1
M  V30 62 1 59 19
M  V30 63 1 60 22
M  V30 64 1 61 22
M  V30 65 1 62 23
M  V30 66 1 63 23
M  V30 67 1 64 24
M  V30 68 1 65 24
M  V30 69 1 66 28
M  V30 70 1 67 29
M  V30 71 1 68 29
M  V30 72 1 69 30
M  V30 73 1 70 30
M  V30 74 1 71 30
M  V30 75 1 72 32
M  V30 76 1 73 32
M  V30 77 1 74 31
M  V30 78 1 75 36
M  V30 79 1 76 36
M  V30 80 1 77 38
M  V30 81 1 78 39
M  V30 82 1 79 39
M  V30 83 1 80 33
M  V30 END BOND
M  V30 END CTAB
M  END
>  <i_epik_Tot_Q>  (1) 
1

>  <i_epik_Tot_abs_Q>  (1) 
1

>  <i_i_glide_confnum>  (1) 
7642

>  <i_i_glide_lignum>  (1) 
100

>  <i_i_glide_posenum>  (1) 
100

>  <i_i_glide_rotatable_bonds>  (1) 
16

>  <i_lp_mmshare_version>  (1) 
72125

>  <i_m_source_file_index>  (1) 
41

>  <i_f3d_flags>  (1) 
0

>  <num_sample>  (1) 
50

>  <b_lp_Chiralities_Consistent>  (1) 
1

>  <r_epik_Charging_Adjusted_Penalty>  (1) 
0.74174678475340827

>  <r_epik_Ionization_Penalty>  (1) 
0.9544201178542232

>  <r_epik_Ionization_Penalty_Charging>  (1) 
0

>  <r_epik_Ionization_Penalty_Neutral>  (1) 
0.9544201178542232

>  <r_epik_State_Penalty>  (1) 
0.74174678475340827

>  <r_glide_ring_energy>  (1) 
0

>  <r_i_docking_score>  (1) 
-3.8554895225308812

>  <r_i_glide_ecoul>  (1) 
-0.98246661752998632

>  <r_i_glide_eff_state_penalty>  (1) 
0.74174678475340827

>  <r_i_glide_einternal>  (1) 
18.301935160169613

>  <r_i_glide_emodel>  (1) 
-40.666980036152424

>  <r_i_glide_emodel_strain>  (1) 
0.24898447868875451

>  <r_i_glide_energy>  (1) 
-39.119241641922699

>  <r_i_glide_erotb>  (1) 
0.63365396365979698

>  <r_i_glide_esite>  (1) 
-0.16540961184687417

>  <r_i_glide_evdw>  (1) 
-38.136775024392712

>  <r_i_glide_gscore>  (1) 
-4.5972363072842892

>  <r_i_glide_gscore_strain>  (1) 
0

>  <r_i_glide_hbond>  (1) 
0

>  <r_i_glide_ligand_efficiency>  (1) 
-0.098858705705920036

>  <r_i_glide_ligand_efficiency_ln>  (1) 
-0.82672639820910376

>  <r_i_glide_ligand_efficiency_sa>  (1) 
-0.33525077403148595

>  <r_i_glide_lipo>  (1) 
-2.1988567749087009

>  <r_i_glide_metal>  (1) 
-0

>  <r_i_glide_rewards>  (1) 
-0.81241514033937867

>  <r_lp_Energy>  (1) 
23.350483999999998

>  <r_lp_tautomer_probability>  (1) 
1

>  <s_epik_Chemistry_Notes>  (1) 
This compound has an ester and may undergo hydrolysis at high or low pH.

>  <s_epik_cmdline>  (1) 
J2VwaWtfcHl0aG9uJywgJy1waHQnLCAnMS4wJywgJy1waCcsICc3LjQnLCAnLXRuJywgJzgnLCAnLW1hJywgJzUwMCcsICctaW1hZScsICc8aW5maWxlLm1hZT4nLCAnLW9tYWUnLCAnPG91dGZpbGUubWFlPic=

>  <s_epik_input>  (1) 
W0NIMl09QzFbQ0BIXShGKVtDQEhdKEYpW0NIMl1bQ0hdPUMxW0NIMl1bQ0BASF0oW0NIMl1bQ0BASF0yQyg9TylPMilbQ0BIXShbT0hdKVtDSDJdW0NIMl1PW0NAQEhdKFtDSDJdW1NIXSlDKD1bQ0gyXSlbQ0BIXTNbQ0gyXVNbQ0BIXShbQ0gyXVtDSDJdMylDND1OW0NIXT1OW0NAQEhdNFtDSDJdW0NIM10=

>  <s_glide_docking_method>  (1) 
confgen

>  <s_i_glide_gridfile>  (1) 
gpcr_drd2_6luq_protein_autoprepared_prepared

>  <s_lp_Force_Field>  (1) 
S-OPLS

>  <s_lp_Variant>  (1) 
DiffSBDD_40_num_sample_50-3

>  <s_m_source_file>  (1) 
generated__ligand_DiffSBDD_2026-05-06_prepared.sdf

>  <GenAI_Model>  (1) 
DiffSBDD

>  <Protein>  (1) 
generic_title2

$$$$
DiffSBDD_12_num_sample_50
     RDKit          3D

  0  0  0  0  0  0  0  0  0  0999 V3000
M  V30 BEGIN CTAB
M  V30 COUNTS 66 67 0 0 1
M  V30 BEGIN ATOM
M  V30 1 C 5.989057 6.885339 -18.652535 0 CFG=2
M  V30 2 C 5.861838 2.018188 -13.891661 0
M  V30 3 O 7.823445 -0.630828 -16.886858 0
M  V30 4 C 5.441688 6.569148 -11.091665 0
M  V30 5 C 8.154537 4.243984 -13.624322 0
M  V30 6 C 7.202554 5.920307 -18.639043 0
M  V30 7 O 5.834839 7.769297 -17.535203 0
M  V30 8 F 7.183049 5.113441 -17.578743 0
M  V30 9 C 6.676469 5.797224 -11.575692 0 CFG=1
M  V30 10 C 7.706205 -0.183605 -13.906799 0
M  V30 11 C 4.677106 6.165230 -18.881041 0
M  V30 12 C 6.876669 0.250328 -16.322449 0
M  V30 13 F 7.182002 5.155731 -19.730466 0
M  V30 14 C 6.329209 4.297862 -11.793836 0 CFG=2
M  V30 15 C 4.523997 8.506503 -15.789929 0
M  V30 16 F 8.344119 6.600226 -18.683336 0
M  V30 17 C 5.390586 0.592116 -14.255934 0
M  V30 18 C 5.866506 3.667761 -10.471360 0
M  V30 19 C 7.026111 2.035708 -12.904104 0 CFG=1
M  V30 20 C 8.495467 5.687588 -13.271137 0
M  V30 21 C 6.178497 6.555509 -13.974466 0
M  V30 22 C 7.242018 6.454974 -12.854015 0 CFG=1
M  V30 23 C 6.626034 7.196256 -15.289877 0
M  V30 24 C 8.179949 1.216818 -13.516117 0
M  V30 25 C 6.528745 -0.202640 -14.890358 0 CFG=2
M  V30 26 C 7.475180 3.474428 -12.465560 0 CFG=1
M  V30 27 C 5.425912 7.348690 -16.241327 0 CFG=2
M  V30 28 F 4.606226 5.669956 -20.117088 0
M  V30 29 H 6.131987 7.552197 -19.503869 0
M  V30 30 H 5.007853 2.556681 -13.491666 0
M  V30 31 H 6.234840 2.529707 -14.782243 0
M  V30 32 H 7.610005 -1.513936 -16.611882 0
M  V30 33 H 4.634829 6.313170 -11.740839 0
M  V30 34 H 5.141907 6.305594 -10.079463 0
M  V30 35 H 5.557084 7.651675 -11.135775 0
M  V30 36 H 9.088926 3.769319 -13.891808 0
M  V30 37 H 7.548863 4.229051 -14.527262 0
M  V30 38 H 7.440397 5.868505 -10.799597 0
M  V30 39 H 7.325643 -0.630687 -12.992243 0
M  V30 40 H 8.542576 -0.767799 -14.291666 0
M  V30 41 H 4.634838 5.355094 -18.167571 0
M  V30 42 H 3.833542 6.833798 -18.728506 0
M  V30 43 H 7.272943 1.264726 -16.352222 0
M  V30 44 H 5.980303 0.237318 -16.944536 0
M  V30 45 H 5.465712 4.288186 -12.451222 0
M  V30 46 H 4.235225 8.512233 -14.747248 0
M  V30 47 H 5.052290 9.442267 -15.891718 0
M  V30 48 H 3.602139 8.546096 -16.366319 0
M  V30 49 H 4.526821 0.569303 -14.921701 0
M  V30 50 H 5.054760 0.086891 -13.348726 0
M  V30 51 H 6.633474 3.769298 -9.701800 0
M  V30 52 H 4.969549 4.140045 -10.099805 0
M  V30 53 H 5.613150 2.617896 -10.564175 0
M  V30 54 H 6.639404 1.479066 -12.050332 0
M  V30 55 H 9.231422 5.707253 -12.465969 0
M  V30 56 H 8.970445 6.167894 -14.119129 0
M  V30 57 H 5.753320 5.579727 -14.201691 0
M  V30 58 H 5.358446 7.149766 -13.591003 0
M  V30 59 H 7.550108 7.471167 -12.601553 0
M  V30 60 H 7.080920 8.167954 -15.094552 0
M  V30 61 H 7.391242 6.569378 -15.739810 0
M  V30 62 H 9.004872 1.148246 -12.809411 0
M  V30 63 H 8.577931 1.695469 -14.407791 0
M  V30 64 H 6.166065 -1.223413 -14.975861 0
M  V30 65 H 8.257580 3.369317 -11.713979 0
M  V30 66 H 4.845375 6.427851 -16.266532 0
M  V30 END ATOM
M  V30 BEGIN BOND
M  V30 1 1 6 1
M  V30 2 1 7 1
M  V30 3 1 8 6
M  V30 4 1 9 4
M  V30 5 1 11 1
M  V30 6 1 12 3
M  V30 7 1 13 6
M  V30 8 1 14 9
M  V30 9 1 16 6
M  V30 10 1 17 2
M  V30 11 1 18 14
M  V30 12 1 19 2
M  V30 13 1 20 5
M  V30 14 1 22 9
M  V30 15 1 22 20
M  V30 16 1 22 21
M  V30 17 1 23 21
M  V30 18 1 24 10
M  V30 19 1 24 19
M  V30 20 1 25 10
M  V30 21 1 25 12
M  V30 22 1 25 17
M  V30 23 1 26 5
M  V30 24 1 26 14
M  V30 25 1 26 19
M  V30 26 1 27 7
M  V30 27 1 27 15
M  V30 28 1 27 23
M  V30 29 1 28 11
M  V30 30 1 1 29 CFG=3
M  V30 31 1 30 2
M  V30 32 1 31 2
M  V30 33 1 32 3
M  V30 34 1 33 4
M  V30 35 1 34 4
M  V30 36 1 35 4
M  V30 37 1 36 5
M  V30 38 1 37 5
M  V30 39 1 9 38 CFG=1
M  V30 40 1 39 10
M  V30 41 1 40 10
M  V30 42 1 41 11
M  V30 43 1 42 11
M  V30 44 1 43 12
M  V30 45 1 44 12
M  V30 46 1 14 45 CFG=3
M  V30 47 1 46 15
M  V30 48 1 47 15
M  V30 49 1 48 15
M  V30 50 1 49 17
M  V30 51 1 50 17
M  V30 52 1 51 18
M  V30 53 1 52 18
M  V30 54 1 53 18
M  V30 55 1 19 54 CFG=1
M  V30 56 1 55 20
M  V30 57 1 56 20
M  V30 58 1 57 21
M  V30 59 1 58 21
M  V30 60 1 22 59 CFG=1
M  V30 61 1 60 23
M  V30 62 1 61 23
M  V30 63 1 62 24
M  V30 64 1 63 24
M  V30 65 1 25 64 CFG=3
M  V30 66 1 26 65 CFG=1
M  V30 67 1 27 66 CFG=3
M  V30 END BOND
M  V30 END CTAB
M  END
>  <i_epik_Tot_Q>  (1) 
0

>  <i_epik_Tot_abs_Q>  (1) 
0

>  <i_i_glide_confnum>  (1) 
587

>  <i_i_glide_lignum>  (1) 
47

>  <i_i_glide_posenum>  (1) 
302

>  <i_i_glide_rotatable_bonds>  (1) 
10

>  <i_lp_mmshare_version>  (1) 
72125

>  <i_m_source_file_index>  (1) 
13

>  <i_f3d_flags>  (1) 
0

>  <num_sample>  (1) 
50

>  <b_lp_Chiralities_Consistent>  (1) 
1

>  <r_epik_Charging_Adjusted_Penalty>  (1) 
0

>  <r_epik_Ionization_Penalty>  (1) 
3.7258490457677376e-07

>  <r_epik_Ionization_Penalty_Charging>  (1) 
0

>  <r_epik_Ionization_Penalty_Neutral>  (1) 
3.7258490457677376e-07

>  <r_epik_State_Penalty>  (1) 
-0

>  <r_glide_ring_energy>  (1) 
0

>  <r_i_docking_score>  (1) 
-3.8518698345901714

>  <r_i_glide_ecoul>  (1) 
-1.660718871333813

>  <r_i_glide_eff_state_penalty>  (1) 
-0

>  <r_i_glide_einternal>  (1) 
3.725482789754345

>  <r_i_glide_emodel>  (1) 
-13.575686323061941

>  <r_i_glide_emodel_strain>  (1) 
0.32466265959587304

>  <r_i_glide_energy>  (1) 
-11.637306305756336

>  <r_i_glide_erotb>  (1) 
0.81823453102936505

>  <r_i_glide_esite>  (1) 
0

>  <r_i_glide_evdw>  (1) 
-9.9765874344225232

>  <r_i_glide_gscore>  (1) 
-3.8518698345901714

>  <r_i_glide_gscore_strain>  (1) 
0

>  <r_i_glide_hbond>  (1) 
-0.12458132104395932

>  <r_i_glide_ligand_efficiency>  (1) 
-0.13756677980679183

>  <r_i_glide_ligand_efficiency_ln>  (1) 
-0.88912465363607518

>  <r_i_glide_ligand_efficiency_sa>  (1) 
-0.41773376645775173

>  <r_i_glide_lipo>  (1) 
-2.2009623763007902

>  <r_i_glide_metal>  (1) 
-0

>  <r_i_glide_rewards>  (1) 
-1.5966234658535885

>  <r_lp_Energy>  (1) 
30.869408

>  <r_lp_tautomer_probability>  (1) 
1

>  <s_epik_cmdline>  (1) 
J2VwaWtfcHl0aG9uJywgJy1waHQnLCAnMS4wJywgJy1waCcsICc3LjQnLCAnLXRuJywgJzgnLCAnLW1hJywgJzUwMCcsICctaW1hZScsICc8aW5maWxlLm1hZT4nLCAnLW9tYWUnLCAnPG91dGZpbGUubWFlPic=

>  <s_epik_input>  (1) 
RkMoRikoRilbQ0BASF0oW0NIMl1GKU9bQ0BIXShbQ0gzXSlbQ0gyXVtDSDJdW0NAQEhdMVtDSDJdW0NIMl1bQ0BASF0oW0NAQEhdKFtDSDNdKVtDQEBIXTFbQ0gzXSlbQ0BIXTJbQ0gyXVtDSDJdW0NASF0oW0NIMl1bQ0gyXTIpW0NIMl1bT0hd

>  <s_glide_docking_method>  (1) 
confgen

>  <s_i_glide_gridfile>  (1) 
gpcr_drd2_6luq_protein_autoprepared_prepared

>  <s_lp_Force_Field>  (1) 
S-OPLS

>  <s_lp_Variant>  (1) 
DiffSBDD_12_num_sample_50-1

>  <s_m_source_file>  (1) 
generated__ligand_DiffSBDD_2026-05-06_prepared.sdf

>  <GenAI_Model>  (1) 
DiffSBDD

>  <Protein>  (1) 
generic_title2

$$$$
DiffSBDD_40_num_sample_50
     RDKit          3D

  0  0  0  0  0  0  0  0  0  0999 V3000
M  V30 BEGIN CTAB
M  V30 COUNTS 80 83 0 0 1
M  V30 BEGIN ATOM
M  V30 1 C 8.641851 3.861782 -19.103865 0 CFG=1
M  V30 2 S 8.169017 7.563488 -12.291660 0
M  V30 3 C 5.377745 3.892202 -13.266162 0
M  V30 4 C 6.321297 4.141477 -21.388887 0 CFG=2
M  V30 5 C 6.655533 3.850899 -13.686997 0
M  V30 6 C 8.762805 8.252320 -21.303297 0
M  V30 7 C 7.764863 5.110151 -19.435602 0 CFG=2
M  V30 8 C 9.871520 7.699674 -20.770549 0
M  V30 9 C 7.309354 5.213613 -20.917665 0
M  V30 10 C 8.940369 3.633964 -17.599340 0
M  V30 11 C 10.027504 5.576108 -12.520163 0
M  V30 12 C 11.228994 7.989256 -21.396742 0 CFG=1
M  V30 13 C 7.659954 4.996155 -13.396845 0 CFG=1
M  V30 14 C 10.923219 6.341871 -19.037330 0
M  V30 15 C 12.328998 7.976632 -20.329498 0 CFG=2
M  V30 16 C 9.780772 6.816597 -19.585947 0
M  V30 17 C 7.186635 2.656354 -14.496456 0 CFG=1
M  V30 18 C 9.624167 6.734244 -11.598242 0 CFG=2
M  V30 19 S 6.419264 0.569308 -12.812926 0
M  V30 20 C 4.917754 4.603349 -21.953333 0
M  V30 21 F 13.524777 8.203857 -20.873461 0
M  V30 22 C 8.422494 6.440861 -18.961903 0
M  V30 23 C 12.315619 6.659145 -19.552081 0
M  V30 24 C 7.043216 6.162672 -12.570849 0
M  V30 25 F 11.496870 7.068910 -22.324629 0
M  V30 26 O 4.710199 5.794481 -22.178149 0
M  V30 27 O 8.191966 3.026200 -15.430682 0
M  V30 28 O 8.049683 2.664074 -19.562385 0
M  V30 29 C 7.747141 1.502254 -13.629417 0
M  V30 30 C 11.919258 8.341418 -9.816638 0
M  V30 31 N 9.434815 6.051962 -7.956995 0
M  V30 32 C 7.712552 3.466221 -16.691276 0
M  V30 33 N 8.537083 5.369300 -9.766114 0 CHG=1
M  V30 34 O 5.194663 4.154963 -20.675237 0
M  V30 35 C 10.024576 6.783909 -8.958981 0
M  V30 36 C 8.966631 4.486396 -12.750140 0
M  V30 37 C 9.434838 6.338685 -10.145880 0
M  V30 38 C 8.544234 5.204918 -8.451812 0
M  V30 39 C 11.073187 7.821966 -8.654718 0
M  V30 40 H 9.587912 3.950769 -19.637738 0
M  V30 41 H 4.996609 4.724314 -12.699985 0
M  V30 42 H 4.697996 3.084366 -13.489323 0
M  V30 43 H 6.651580 3.116654 -21.539807 0
M  V30 44 H 8.830448 8.896379 -22.168545 0
M  V30 45 H 7.786753 8.078626 -20.891724 0
M  V30 46 H 6.849181 5.016076 -18.851780 0
M  V30 47 H 6.850415 6.187047 -21.065236 0
M  V30 48 H 8.179631 5.187830 -21.573510 0
M  V30 49 H 9.564452 2.743788 -17.505243 0
M  V30 50 H 9.543881 4.435772 -17.185138 0
M  V30 51 H 10.303859 5.985680 -13.491276 0
M  V30 52 H 10.932055 5.117910 -12.143868 0
M  V30 53 H 11.215742 8.952551 -21.909393 0
M  V30 54 H 7.924336 5.412682 -14.370048 0
M  V30 55 H 10.873759 5.700967 -18.175289 0
M  V30 56 H 12.165845 8.790528 -19.623073 0
M  V30 57 H 6.350939 2.226300 -15.049230 0
M  V30 58 H 10.417133 7.465885 -11.667474 0
M  V30 59 H 5.900900 0.031837 -13.922143 0
M  V30 60 H 7.709460 7.259219 -19.023176 0
M  V30 61 H 8.585056 6.354692 -17.891660 0
M  V30 62 H 12.999715 6.727726 -18.705975 0
M  V30 63 H 12.656839 5.832332 -20.175457 0
M  V30 64 H 6.178186 6.573494 -13.092964 0
M  V30 65 H 6.684396 5.814809 -11.602874 0
M  V30 66 H 8.644580 1.948134 -19.397940 0
M  V30 67 H 8.287014 0.797015 -14.261699 0
M  V30 68 H 8.452121 1.841598 -12.873610 0
M  V30 69 H 12.733067 8.966094 -9.446200 0
M  V30 70 H 12.361333 7.526995 -10.388229 0
M  V30 71 H 11.325126 8.969276 -10.473798 0
M  V30 72 H 7.164873 4.403175 -16.583273 0
M  V30 73 H 7.034207 2.724700 -17.113799 0
M  V30 74 H 9.644534 6.149468 -6.971653 0
M  V30 75 H 8.758629 3.931560 -11.838315 0
M  V30 76 H 9.434856 3.769362 -13.416444 0
M  V30 77 H 7.934381 4.517938 -7.891609 0
M  V30 78 H 10.580540 8.664952 -8.168955 0
M  V30 79 H 11.746923 7.399875 -7.908185 0
M  V30 80 H 7.940950 4.856609 -10.402429 0
M  V30 END ATOM
M  V30 BEGIN BOND
M  V30 1 2 5 3
M  V30 2 1 7 1
M  V30 3 2 8 6
M  V30 4 1 9 4
M  V30 5 1 9 7
M  V30 6 1 10 1
M  V30 7 1 12 8
M  V30 8 1 13 5
M  V30 9 1 15 12
M  V30 10 1 16 8
M  V30 11 2 16 14
M  V30 12 1 17 5
M  V30 13 1 18 2
M  V30 14 1 18 11
M  V30 15 1 20 4
M  V30 16 1 21 15
M  V30 17 1 22 7
M  V30 18 1 22 16
M  V30 19 1 23 14
M  V30 20 1 23 15
M  V30 21 1 24 2
M  V30 22 1 24 13
M  V30 23 1 25 12
M  V30 24 2 26 20
M  V30 25 1 27 17
M  V30 26 1 28 1
M  V30 27 1 29 17
M  V30 28 1 29 19
M  V30 29 1 32 10
M  V30 30 1 32 27
M  V30 31 1 34 4
M  V30 32 1 34 20
M  V30 33 1 35 31
M  V30 34 1 36 11
M  V30 35 1 36 13
M  V30 36 1 37 18
M  V30 37 1 37 33
M  V30 38 2 37 35
M  V30 39 1 38 31
M  V30 40 2 38 33
M  V30 41 1 39 30
M  V30 42 1 39 35
M  V30 43 1 1 40 CFG=3
M  V30 44 1 41 3
M  V30 45 1 42 3
M  V30 46 1 4 43 CFG=3
M  V30 47 1 44 6
M  V30 48 1 45 6
M  V30 49 1 7 46 CFG=1
M  V30 50 1 47 9
M  V30 51 1 48 9
M  V30 52 1 49 10
M  V30 53 1 50 10
M  V30 54 1 51 11
M  V30 55 1 52 11
M  V30 56 1 12 53 CFG=3
M  V30 57 1 13 54 CFG=3
M  V30 58 1 55 14
M  V30 59 1 15 56 CFG=1
M  V30 60 1 17 57 CFG=3
M  V30 61 1 18 58 CFG=1
M  V30 62 1 59 19
M  V30 63 1 60 22
M  V30 64 1 61 22
M  V30 65 1 62 23
M  V30 66 1 63 23
M  V30 67 1 64 24
M  V30 68 1 65 24
M  V30 69 1 66 28
M  V30 70 1 67 29
M  V30 71 1 68 29
M  V30 72 1 69 30
M  V30 73 1 70 30
M  V30 74 1 71 30
M  V30 75 1 72 32
M  V30 76 1 73 32
M  V30 77 1 74 31
M  V30 78 1 75 36
M  V30 79 1 76 36
M  V30 80 1 77 38
M  V30 81 1 78 39
M  V30 82 1 79 39
M  V30 83 1 80 33
M  V30 END BOND
M  V30 END CTAB
M  END
>  <i_epik_Tot_Q>  (1) 
1

>  <i_epik_Tot_abs_Q>  (1) 
1

>  <i_i_glide_confnum>  (1) 
7642

>  <i_i_glide_lignum>  (1) 
100

>  <i_i_glide_posenum>  (1) 
100

>  <i_i_glide_rotatable_bonds>  (1) 
16

>  <i_lp_mmshare_version>  (1) 
72125

>  <i_m_source_file_index>  (1) 
41

>  <i_f3d_flags>  (1) 
0

>  <num_sample>  (1) 
50

>  <b_lp_Chiralities_Consistent>  (1) 
1

>  <r_epik_Charging_Adjusted_Penalty>  (1) 
0.74174678475340827

>  <r_epik_Ionization_Penalty>  (1) 
0.9544201178542232

>  <r_epik_Ionization_Penalty_Charging>  (1) 
0

>  <r_epik_Ionization_Penalty_Neutral>  (1) 
0.9544201178542232

>  <r_epik_State_Penalty>  (1) 
0.74174678475340827

>  <r_glide_ring_energy>  (1) 
0

>  <r_i_docking_score>  (1) 
-3.850535876078987

>  <r_i_glide_ecoul>  (1) 
-1.3651391347431423

>  <r_i_glide_eff_state_penalty>  (1) 
0.74174678475340827

>  <r_i_glide_einternal>  (1) 
17.168196098002461

>  <r_i_glide_emodel>  (1) 
-41.010447476248856

>  <r_i_glide_emodel_strain>  (1) 
0.064901325658695441

>  <r_i_glide_energy>  (1) 
-38.723552830445406

>  <r_i_glide_erotb>  (1) 
0.63365396365979698

>  <r_i_glide_esite>  (1) 
-0.1477206948550219

>  <r_i_glide_evdw>  (1) 
-37.358413695702261

>  <r_i_glide_gscore>  (1) 
-4.592282660832395

>  <r_i_glide_gscore_strain>  (1) 
0

>  <r_i_glide_hbond>  (1) 
0

>  <r_i_glide_ligand_efficiency>  (1) 
-0.098731689130230435

>  <r_i_glide_ligand_efficiency_ln>  (1) 
-0.82566419579220085

>  <r_i_glide_ligand_efficiency_sa>  (1) 
-0.33482003396655491

>  <r_i_glide_lipo>  (1) 
-2.2325838816808901

>  <r_i_glide_metal>  (1) 
-0

>  <r_i_glide_rewards>  (1) 
-0.77294049295969569

>  <r_lp_Energy>  (1) 
23.350483999999998

>  <r_lp_tautomer_probability>  (1) 
1

>  <s_epik_Chemistry_Notes>  (1) 
This compound has an ester and may undergo hydrolysis at high or low pH.

>  <s_epik_cmdline>  (1) 
J2VwaWtfcHl0aG9uJywgJy1waHQnLCAnMS4wJywgJy1waCcsICc3LjQnLCAnLXRuJywgJzgnLCAnLW1hJywgJzUwMCcsICctaW1hZScsICc8aW5maWxlLm1hZT4nLCAnLW9tYWUnLCAnPG91dGZpbGUubWFlPic=

>  <s_epik_input>  (1) 
W0NIMl09QzFbQ0BIXShGKVtDQEhdKEYpW0NIMl1bQ0hdPUMxW0NIMl1bQ0BASF0oW0NIMl1bQ0BASF0yQyg9TylPMilbQ0BIXShbT0hdKVtDSDJdW0NIMl1PW0NAQEhdKFtDSDJdW1NIXSlDKD1bQ0gyXSlbQ0BIXTNbQ0gyXVNbQ0BIXShbQ0gyXVtDSDJdMylDND1OW0NIXT1OW0NAQEhdNFtDSDJdW0NIM10=

>  <s_glide_docking_method>  (1) 
confgen

>  <s_i_glide_gridfile>  (1) 
gpcr_drd2_6luq_protein_autoprepared_prepared

>  <s_lp_Force_Field>  (1) 
S-OPLS

>  <s_lp_Variant>  (1) 
DiffSBDD_40_num_sample_50-3

>  <s_m_source_file>  (1) 
generated__ligand_DiffSBDD_2026-05-06_prepared.sdf

>  <GenAI_Model>  (1) 
DiffSBDD

>  <Protein>  (1) 
generic_title2

$$$$
DiffSBDD_29_num_sample_50
     RDKit          3D

  0  0  0  0  0  0  0  0  0  0999 V3000
M  V30 BEGIN CTAB
M  V30 COUNTS 64 67 0 0 1
M  V30 BEGIN ATOM
M  V30 1 C 7.206033 4.880681 -15.252917 0
M  V30 2 O 10.979483 8.319727 -9.870386 0
M  V30 3 C 10.258090 8.848381 -5.784273 0
M  V30 4 C 7.943950 4.039566 -14.252067 0
M  V30 5 O 9.171303 6.802981 -8.625970 0
M  V30 6 N 8.244532 7.080254 -11.843024 0 CFG=2 CHG=1
M  V30 7 C 9.583736 8.523103 -7.110452 0
M  V30 8 C 12.411462 9.360230 -7.098526 0
M  V30 9 C 13.728474 8.417302 -9.110901 0
M  V30 10 C 6.640534 5.723525 -17.422254 0
M  V30 11 C 8.642577 5.843228 -12.582588 0
M  V30 12 C 7.095609 7.769992 -12.469857 0
M  V30 13 C 8.496561 5.690316 -8.117704 0
M  V30 14 C 11.385831 7.571060 -8.727572 0 CFG=1
M  V30 15 C 6.318206 5.729693 -14.717115 0
M  V30 16 C 5.886896 6.851549 -12.629681 0
M  V30 17 C 7.474478 4.878889 -12.937829 0 CFG=1
M  V30 18 C 12.634104 8.168289 -8.065193 0 CFG=2
M  V30 19 C 7.405646 4.842684 -16.636813 0
M  V30 20 C 10.588759 7.483386 -10.959726 0
M  V30 21 N 5.554796 6.612929 -15.408372 0
M  V30 22 C 10.191675 7.304343 -7.794351 0 CFG=2
M  V30 23 C 11.769471 9.027958 -5.754183 0
M  V30 24 N 6.265497 5.645949 -13.350138 0
M  V30 25 C 5.727682 6.589345 -16.763699 0
M  V30 26 N 9.138157 3.213447 -17.718511 0
M  V30 27 C 9.347157 8.061014 -11.643003 0
M  V30 28 C 8.368807 3.934084 -17.242223 0
M  V30 29 C 9.368446 4.515647 -8.493998 0
M  V30 30 H 10.002329 8.050705 -5.091684 0
M  V30 31 H 9.837018 9.769304 -5.409579 0
M  V30 32 H 7.548439 3.022528 -14.250272 0
M  V30 33 H 9.020450 4.027819 -14.404697 0
M  V30 34 H 8.538485 8.316067 -6.879479 0
M  V30 35 H 9.546400 9.368330 -7.787892 0
M  V30 36 H 13.385213 9.768808 -6.825150 0
M  V30 37 H 11.834672 10.148644 -7.582173 0
M  V30 38 H 13.356126 8.969302 -9.972527 0
M  V30 39 H 14.567886 8.969325 -8.691750 0
M  V30 40 H 14.123049 7.476024 -9.488564 0
M  V30 41 H 6.745088 5.743733 -18.497734 0
M  V30 42 H 9.396041 5.267516 -12.047649 0
M  V30 43 H 9.128208 6.169799 -13.500498 0
M  V30 44 H 7.413026 8.160311 -13.439816 0
M  V30 45 H 6.810847 8.623017 -11.855359 0
M  V30 46 H 8.328997 5.771192 -7.041360 0
M  V30 47 H 7.523377 5.595357 -8.598755 0
M  V30 48 H 11.728087 6.593514 -9.066417 0
M  V30 49 H 5.058412 7.378101 -13.102889 0
M  V30 50 H 5.526570 6.553321 -11.644075 0
M  V30 51 H 7.249258 4.225254 -12.092803 0
M  V30 52 H 13.034239 7.352325 -7.491704 0
M  V30 53 H 10.362346 6.475856 -10.626336 0
M  V30 54 H 11.416061 7.369491 -11.661233 0
M  V30 55 H 10.492483 6.576978 -7.038671 0
M  V30 56 H 12.234277 8.166832 -5.287791 0
M  V30 57 H 11.984889 9.846107 -5.065113 0
M  V30 58 H 5.124483 7.280834 -17.334765 0
M  V30 59 H 9.629111 8.513783 -12.591980 0
M  V30 60 H 8.950420 8.863801 -11.020105 0
M  V30 61 H 9.034770 3.688835 -7.890178 0
M  V30 62 H 9.272594 4.266393 -9.551132 0
M  V30 63 H 10.425803 4.668722 -8.291726 0
M  V30 64 H 7.926478 6.821840 -10.912433 0
M  V30 END ATOM
M  V30 BEGIN BOND
M  V30 1 1 4 1
M  V30 2 1 7 3
M  V30 3 1 11 6
M  V30 4 1 12 6
M  V30 5 1 13 5
M  V30 6 1 14 2
M  V30 7 1 15 1
M  V30 8 1 16 12
M  V30 9 1 17 4
M  V30 10 1 17 11
M  V30 11 1 18 8
M  V30 12 1 18 9
M  V30 13 1 18 14
M  V30 14 2 19 1
M  V30 15 1 19 10
M  V30 16 1 20 2
M  V30 17 2 21 15
M  V30 18 1 22 5
M  V30 19 1 22 7
M  V30 20 1 22 14
M  V30 21 1 23 3
M  V30 22 1 23 8
M  V30 23 1 24 15
M  V30 24 1 24 16
M  V30 25 1 24 17
M  V30 26 2 25 10
M  V30 27 1 25 21
M  V30 28 1 27 6
M  V30 29 1 27 20
M  V30 30 1 28 19
M  V30 31 3 28 26
M  V30 32 1 29 13
M  V30 33 1 30 3
M  V30 34 1 31 3
M  V30 35 1 32 4
M  V30 36 1 33 4
M  V30 37 1 34 7
M  V30 38 1 35 7
M  V30 39 1 36 8
M  V30 40 1 37 8
M  V30 41 1 38 9
M  V30 42 1 39 9
M  V30 43 1 40 9
M  V30 44 1 41 10
M  V30 45 1 42 11
M  V30 46 1 43 11
M  V30 47 1 44 12
M  V30 48 1 45 12
M  V30 49 1 46 13
M  V30 50 1 47 13
M  V30 51 1 14 48 CFG=3
M  V30 52 1 49 16
M  V30 53 1 50 16
M  V30 54 1 17 51 CFG=1
M  V30 55 1 18 52 CFG=1
M  V30 56 1 53 20
M  V30 57 1 54 20
M  V30 58 1 22 55 CFG=1
M  V30 59 1 56 23
M  V30 60 1 57 23
M  V30 61 1 58 25
M  V30 62 1 59 27
M  V30 63 1 60 27
M  V30 64 1 61 29
M  V30 65 1 62 29
M  V30 66 1 63 29
M  V30 67 1 6 64 CFG=1
M  V30 END BOND
M  V30 END CTAB
M  END
>  <i_epik_Tot_Q>  (1) 
1

>  <i_epik_Tot_abs_Q>  (1) 
1

>  <i_i_glide_confnum>  (1) 
324

>  <i_i_glide_lignum>  (1) 
75

>  <i_i_glide_posenum>  (1) 
183

>  <i_i_glide_rotatable_bonds>  (1) 
6

>  <i_lp_mmshare_version>  (1) 
72125

>  <i_m_source_file_index>  (1) 
30

>  <i_f3d_flags>  (1) 
0

>  <num_sample>  (1) 
50

>  <b_lp_Chiralities_Consistent>  (1) 
1

>  <r_epik_Charging_Adjusted_Penalty>  (1) 
1.0026227849201053

>  <r_epik_Ionization_Penalty>  (1) 
0.50131159217577048

>  <r_epik_Ionization_Penalty_Charging>  (1) 
0.50131139246005263

>  <r_epik_Ionization_Penalty_Neutral>  (1) 
1.9971571790720627e-07

>  <r_epik_State_Penalty>  (1) 
0.50131139246005263

>  <r_glide_ring_energy>  (1) 
1.0751441327269913

>  <r_i_docking_score>  (1) 
-3.8456477069558761

>  <r_i_glide_ecoul>  (1) 
-2.3380323182867855

>  <r_i_glide_eff_state_penalty>  (1) 
0.50131139246005263

>  <r_i_glide_einternal>  (1) 
6.8420090794792845

>  <r_i_glide_emodel>  (1) 
-25.51352377042187

>  <r_i_glide_emodel_strain>  (1) 
4.3977489261336871

>  <r_i_glide_energy>  (1) 
-25.565415035861033

>  <r_i_glide_erotb>  (1) 
0.6137117962777916

>  <r_i_glide_esite>  (1) 
-0.096099192585315948

>  <r_i_glide_evdw>  (1) 
-23.227382717574248

>  <r_i_glide_gscore>  (1) 
-4.3469590994159288

>  <r_i_glide_gscore_strain>  (1) 
0.099437231533421766

>  <r_i_glide_hbond>  (1) 
-0.11929126675472773

>  <r_i_glide_ligand_efficiency>  (1) 
-0.13260854161916813

>  <r_i_glide_ligand_efficiency_ln>  (1) 
-0.88055580768106245

>  <r_i_glide_ligand_efficiency_sa>  (1) 
-0.40741545364623227

>  <r_i_glide_lipo>  (1) 
-1.9992826356496718

>  <r_i_glide_metal>  (1) 
-0

>  <r_i_glide_rewards>  (1) 
-1.3333610486156959

>  <r_lp_Energy>  (1) 
45.537855

>  <s_epik_cmdline>  (1) 
J2VwaWtfcHl0aG9uJywgJy1waHQnLCAnMS4wJywgJy1waCcsICc3LjQnLCAnLXRuJywgJzgnLCAnLW1hJywgJzUwMCcsICctaW1hZScsICc8aW5maWxlLm1hZT4nLCAnLW9tYWUnLCAnPG91dGZpbGUubWFlPic=

>  <s_epik_input>  (1) 
TiNDYzFbY0hdW2NIXW5jKGMxMilOM1tDQEhdKFtDSDJdMilbQ0gyXU4oW0NIMl1bQ0gyXTMpW0NIMl1bQ0gyXU9bQ0BIXTRbQ0BASF0oW0NIM10pW0NIMl1bQ0gyXVtDSDJdW0NIMl1bQ0BIXTRPW0NIMl1bQ0gzXQ==

>  <s_glide_docking_method>  (1) 
confgen

>  <s_i_glide_gridfile>  (1) 
gpcr_drd2_6luq_protein_autoprepared_prepared

>  <s_lp_Force_Field>  (1) 
S-OPLS

>  <s_lp_Variant>  (1) 
DiffSBDD_29_num_sample_50-5

>  <s_m_source_file>  (1) 
generated__ligand_DiffSBDD_2026-05-06_prepared.sdf

>  <GenAI_Model>  (1) 
DiffSBDD

>  <Protein>  (1) 
generic_title2

$$$$
DiffSBDD_4_num_sample_50
     RDKit          3D

  0  0  0  0  0  0  0  0  0  0999 V3000
M  V30 BEGIN CTAB
M  V30 COUNTS 43 44 0 0 1
M  V30 BEGIN ATOM
M  V30 1 C 5.956054 3.531550 -13.090096 0
M  V30 2 C 9.360106 5.835656 -8.360931 0
M  V30 3 C 11.184614 8.969308 -9.305790 0
M  V30 4 C 5.895240 6.643087 -16.019466 0
M  V30 5 C 9.207361 5.157061 -9.740862 0
M  V30 6 O 5.034857 4.314509 -13.304609 0
M  V30 7 N 9.081210 6.092206 -10.877150 0
M  V30 8 O 7.834855 8.072747 -12.568867 0
M  V30 9 C 10.106960 7.900322 -9.480103 0 CFG=2
M  V30 10 C 10.486222 6.858405 -8.444792 0 CFG=1
M  V30 11 C 7.369495 3.849308 -13.542399 0
M  V30 12 C 10.023287 7.235311 -10.855665 0
M  V30 13 O 13.034830 8.569308 -7.891673 0
M  V30 14 C 7.751469 6.881077 -12.868645 0
M  V30 15 O 7.115809 6.456347 -13.955890 0
M  V30 16 C 10.862124 7.686116 -7.223721 0
M  V30 17 C 11.655650 8.851516 -7.846339 0 CFG=2
M  V30 18 C 8.337655 5.737489 -12.023013 0
M  V30 19 C 8.142221 4.413573 -12.353952 0
M  V30 20 C 6.398156 7.369258 -14.770420 0
M  V30 21 H 5.834844 2.581245 -12.571229 0
M  V30 22 H 8.425892 6.320858 -8.076123 0
M  V30 23 H 9.569674 5.091162 -7.594295 0
M  V30 24 H 10.798536 9.962552 -9.491668 0
M  V30 25 H 11.999649 8.808914 -10.014093 0
M  V30 26 H 5.340732 7.323000 -16.666215 0
M  V30 27 H 5.233350 5.819641 -15.751029 0
M  V30 28 H 6.725505 6.233540 -16.594968 0
M  V30 29 H 10.002427 4.443664 -9.927781 0
M  V30 30 H 8.291848 4.569360 -9.676013 0
M  V30 31 H 9.140046 8.339809 -9.226935 0
M  V30 32 H 11.393790 6.347988 -8.761625 0
M  V30 33 H 7.840361 2.894138 -13.774444 0
M  V30 34 H 7.417662 4.379836 -14.487982 0
M  V30 35 H 11.002256 6.829063 -11.106824 0
M  V30 36 H 9.888171 8.004045 -11.606020 0
M  V30 37 H 13.457828 9.203285 -8.455265 0
M  V30 38 H 9.959086 8.062626 -6.740098 0
M  V30 39 H 11.429997 7.121804 -6.483064 0
M  V30 40 H 11.500346 9.769302 -7.280504 0
M  V30 41 H 8.577478 3.662229 -11.713177 0
M  V30 42 H 7.035024 8.206641 -15.058164 0
M  V30 43 H 5.553629 7.769263 -14.208240 0
M  V30 END ATOM
M  V30 BEGIN BOND
M  V30 1 1 5 2
M  V30 2 2 6 1
M  V30 3 1 7 5
M  V30 4 1 9 3
M  V30 5 1 10 2
M  V30 6 1 10 9
M  V30 7 1 11 1
M  V30 8 1 12 7
M  V30 9 1 12 9
M  V30 10 2 14 8
M  V30 11 1 15 14
M  V30 12 1 16 10
M  V30 13 1 17 3
M  V30 14 1 17 13
M  V30 15 1 17 16
M  V30 16 1 18 7
M  V30 17 1 18 14
M  V30 18 1 19 11
M  V30 19 2 19 18
M  V30 20 1 20 4
M  V30 21 1 20 15
M  V30 22 1 21 1
M  V30 23 1 22 2
M  V30 24 1 23 2
M  V30 25 1 24 3
M  V30 26 1 25 3
M  V30 27 1 26 4
M  V30 28 1 27 4
M  V30 29 1 28 4
M  V30 30 1 29 5
M  V30 31 1 30 5
M  V30 32 1 9 31 CFG=1
M  V30 33 1 10 32 CFG=3
M  V30 34 1 33 11
M  V30 35 1 34 11
M  V30 36 1 35 12
M  V30 37 1 36 12
M  V30 38 1 37 13
M  V30 39 1 38 16
M  V30 40 1 39 16
M  V30 41 1 17 40 CFG=1
M  V30 42 1 41 19
M  V30 43 1 42 20
M  V30 44 1 43 20
M  V30 END BOND
M  V30 END CTAB
M  END
>  <i_epik_Tot_Q>  (1) 
0

>  <i_epik_Tot_abs_Q>  (1) 
0

>  <i_i_glide_confnum>  (1) 
5

>  <i_i_glide_lignum>  (1) 
13

>  <i_i_glide_posenum>  (1) 
264

>  <i_i_glide_rotatable_bonds>  (1) 
7

>  <i_lp_mmshare_version>  (1) 
72125

>  <i_m_source_file_index>  (1) 
5

>  <i_f3d_flags>  (1) 
0

>  <num_sample>  (1) 
50

>  <b_lp_Chiralities_Consistent>  (1) 
1

>  <r_epik_Charging_Adjusted_Penalty>  (1) 
0.41067984158451698

>  <r_epik_Ionization_Penalty>  (1) 
6.7674502354530413e-05

>  <r_epik_Ionization_Penalty_Charging>  (1) 
2.6319130011581777e-09

>  <r_epik_Ionization_Penalty_Neutral>  (1) 
6.7671870441529249e-05

>  <r_epik_State_Penalty>  (1) 
0.41067983895260396

>  <r_glide_ring_energy>  (1) 
0

>  <r_i_docking_score>  (1) 
-3.8406830007030091

>  <r_i_glide_ecoul>  (1) 
-1.218563952870515

>  <r_i_glide_eff_state_penalty>  (1) 
0.41067983895260396

>  <r_i_glide_einternal>  (1) 
4.3825781771533379

>  <r_i_glide_emodel>  (1) 
-29.530184249779168

>  <r_i_glide_emodel_strain>  (1) 
1.8545314619432531

>  <r_i_glide_energy>  (1) 
-26.434422123919379

>  <r_i_glide_erotb>  (1) 
0.91336080097250838

>  <r_i_glide_esite>  (1) 
-0.083969298806715706

>  <r_i_glide_evdw>  (1) 
-25.215858171048865

>  <r_i_glide_gscore>  (1) 
-4.2513628396556129

>  <r_i_glide_gscore_strain>  (1) 
0

>  <r_i_glide_hbond>  (1) 
-0.037525188918373066

>  <r_i_glide_ligand_efficiency>  (1) 
-0.19203415003515045

>  <r_i_glide_ligand_efficiency_ln>  (1) 
-0.96119628087267373

>  <r_i_glide_ligand_efficiency_sa>  (1) 
-0.52126087984324176

>  <r_i_glide_lipo>  (1) 
-1.2971807397444881

>  <r_i_glide_metal>  (1) 
-0

>  <r_i_glide_rewards>  (1) 
-2.3024709116755235

>  <r_lp_Energy>  (1) 
30.399182

>  <r_lp_tautomer_probability>  (1) 
0.5

>  <s_epik_Chemistry_Notes>  (1) 
This compound has an ester and may undergo hydrolysis at high or low pH. This compound has an imine and may undergo hydrolysis.

>  <s_epik_cmdline>  (1) 
J2VwaWtfcHl0aG9uJywgJy1waHQnLCAnMS4wJywgJy1waCcsICc3LjQnLCAnLXRuJywgJzgnLCAnLW1hJywgJzUwMCcsICctaW1hZScsICc8aW5maWxlLm1hZT4nLCAnLW9tYWUnLCAnPG91dGZpbGUubWFlPic=

>  <s_epik_input>  (1) 
W0NIM11bQ0gyXU9DKD1PKUMoPVtDSF0vW0NIMl1bQ0hdPU8pXE4oW0NIMl0xKVtDSDJdW0NIMl1bQ0BASF0oW0NASF0xMilbQ0gyXVtDQEhdKFtDSDJdMilbT0hd

>  <s_glide_docking_method>  (1) 
confgen

>  <s_i_glide_gridfile>  (1) 
gpcr_drd2_6luq_protein_autoprepared_prepared

>  <s_lp_Force_Field>  (1) 
S-OPLS

>  <s_lp_Variant>  (1) 
DiffSBDD_4_num_sample_50-2

>  <s_m_source_file>  (1) 
generated__ligand_DiffSBDD_2026-05-06_prepared.sdf

>  <GenAI_Model>  (1) 
DiffSBDD

>  <Protein>  (1) 
generic_title2

$$$$
DiffSBDD_43_num_sample_50
     RDKit          3D

  0  0  0  0  0  0  0  0  0  0999 V3000
M  V30 BEGIN CTAB
M  V30 COUNTS 59 59 0 0 1
M  V30 BEGIN ATOM
M  V30 1 C 5.834517 5.247123 -11.256681 0
M  V30 2 C 7.845729 3.257448 -16.444341 0
M  V30 3 N 11.327039 9.786747 -6.062325 0
M  V30 4 O 10.726710 7.134229 -10.189680 0
M  V30 5 C 7.400281 4.299103 -13.114266 0
M  V30 6 C 7.088939 1.984493 -14.275841 0 CFG=2
M  V30 7 C 8.890904 6.307198 -11.439750 0 CFG=1
M  V30 8 O 8.070049 0.899076 -16.199647 0
M  V30 9 O 6.420852 4.737463 -19.333205 0
M  V30 10 N 7.589498 6.652764 -12.046713 0 CHG=1
M  V30 11 C 7.093595 4.017603 -18.689665 0
M  V30 12 F 9.686174 5.761970 -12.359865 0
M  V30 13 O 5.991879 4.148169 -10.691680 0
M  V30 14 C 11.015230 7.433591 -5.228943 0
M  V30 15 C 11.834834 9.311809 -7.343269 0 CFG=2
M  V30 16 C 9.607855 7.559196 -10.931043 0
M  V30 17 C 6.704011 5.543948 -12.476143 0 CFG=2
M  V30 18 C 6.416095 3.277514 -13.734543 0
M  V30 19 O 11.286854 8.320099 -9.474004 0
M  V30 20 C 7.236676 1.980992 -15.823353 0 CFG=2
M  V30 21 F 12.611523 8.969296 -4.365112 0
M  V30 22 C 11.028049 8.281849 -8.124089 0
M  V30 23 C 7.832090 3.210877 -17.962620 0
M  V30 24 O 5.034847 6.138845 -10.910237 0 CHG=-1
M  V30 25 C 10.123924 7.417348 -7.600622 0
M  V30 26 C 9.783703 7.315938 -6.130867 0
M  V30 27 C 6.306542 0.720342 -13.821126 0
M  V30 28 C 6.358463 0.435450 -12.313377 0
M  V30 29 F 13.109461 8.969296 -7.235104 0
M  V30 30 C 11.404671 8.888127 -4.924229 0 CFG=1
M  V30 31 H 7.298188 4.144422 -16.125654 0
M  V30 32 H 8.873577 3.395904 -16.107218 0
M  V30 33 H 11.818789 10.633155 -5.816584 0
M  V30 34 H 8.010794 3.786902 -12.368746 0
M  V30 35 H 8.089670 4.629100 -13.890656 0
M  V30 36 H 8.090786 1.919442 -13.846220 0
M  V30 37 H 8.748814 5.586069 -10.632648 0
M  V30 38 H 7.680379 0.093436 -15.891985 0
M  V30 39 H 7.741915 7.274598 -12.824033 0
M  V30 40 H 10.825399 6.913417 -4.291680 0
M  V30 41 H 11.834832 6.889805 -5.691792 0
M  V30 42 H 11.834836 10.169300 -8.006251 0
M  V30 43 H 9.924604 8.191792 -11.759390 0
M  V30 44 H 8.972591 8.164140 -10.291394 0
M  V30 45 H 6.039751 5.970078 -13.229573 0
M  V30 46 H 5.834829 3.769259 -14.510873 0
M  V30 47 H 5.669259 3.009155 -12.991991 0
M  V30 48 H 6.254075 1.813362 -16.268396 0
M  V30 49 H 8.466414 2.469757 -18.426279 0
M  V30 50 H 9.591574 6.739955 -8.249634 0
M  V30 51 H 9.020161 8.055280 -5.891659 0
M  V30 52 H 9.328808 6.336873 -5.976080 0
M  V30 53 H 5.266041 0.787242 -14.141775 0
M  V30 54 H 6.707071 -0.164574 -14.314467 0
M  V30 55 H 5.890364 -0.524079 -12.087756 0
M  V30 56 H 7.389465 0.391853 -11.965742 0
M  V30 57 H 5.834843 1.192495 -11.730875 0
M  V30 58 H 10.731173 9.311222 -4.182054 0
M  V30 59 H 7.050877 7.134433 -11.324971 0
M  V30 END ATOM
M  V30 BEGIN BOND
M  V30 1 1 10 7
M  V30 2 2 11 9
M  V30 3 1 12 7
M  V30 4 2 13 1
M  V30 5 1 15 3
M  V30 6 1 16 4
M  V30 7 1 16 7
M  V30 8 1 17 1
M  V30 9 1 17 5
M  V30 10 1 17 10
M  V30 11 1 18 5
M  V30 12 1 18 6
M  V30 13 1 19 4
M  V30 14 1 20 2
M  V30 15 1 20 6
M  V30 16 1 20 8
M  V30 17 1 22 15
M  V30 18 1 22 19
M  V30 19 1 23 2
M  V30 20 2 23 11
M  V30 21 1 24 1
M  V30 22 2 25 22
M  V30 23 1 26 14
M  V30 24 1 26 25
M  V30 25 1 27 6
M  V30 26 1 28 27
M  V30 27 1 29 15
M  V30 28 1 30 3
M  V30 29 1 30 14
M  V30 30 1 30 21
M  V30 31 1 31 2
M  V30 32 1 32 2
M  V30 33 1 33 3
M  V30 34 1 34 5
M  V30 35 1 35 5
M  V30 36 1 6 36 CFG=1
M  V30 37 1 7 37 CFG=1
M  V30 38 1 38 8
M  V30 39 1 39 10
M  V30 40 1 40 14
M  V30 41 1 41 14
M  V30 42 1 15 42 CFG=3
M  V30 43 1 43 16
M  V30 44 1 44 16
M  V30 45 1 17 45 CFG=3
M  V30 46 1 46 18
M  V30 47 1 47 18
M  V30 48 1 20 48 CFG=3
M  V30 49 1 49 23
M  V30 50 1 50 25
M  V30 51 1 51 26
M  V30 52 1 52 26
M  V30 53 1 53 27
M  V30 54 1 54 27
M  V30 55 1 55 28
M  V30 56 1 56 28
M  V30 57 1 57 28
M  V30 58 1 30 58 CFG=1
M  V30 59 1 59 10
M  V30 END BOND
M  V30 END CTAB
M  END
>  <i_epik_Tot_Q>  (1) 
0

>  <i_epik_Tot_abs_Q>  (1) 
2

>  <i_i_glide_confnum>  (1) 
2213

>  <i_i_glide_lignum>  (1) 
108

>  <i_i_glide_posenum>  (1) 
182

>  <i_i_glide_rotatable_bonds>  (1) 
15

>  <i_lp_mmshare_version>  (1) 
72125

>  <i_m_source_file_index>  (1) 
44

>  <i_f3d_flags>  (1) 
0

>  <num_sample>  (1) 
50

>  <b_lp_Chiralities_Consistent>  (1) 
1

>  <r_epik_Charging_Adjusted_Penalty>  (1) 
2.1322098409762558

>  <r_epik_Ionization_Penalty>  (1) 
1.0661195873001319

>  <r_epik_Ionization_Penalty_Charging>  (1) 
1.0661068903442914

>  <r_epik_Ionization_Penalty_Neutral>  (1) 
1.2696955840525338e-05

>  <r_epik_State_Penalty>  (1) 
1.0661029506319644

>  <r_glide_ring_energy>  (1) 
0

>  <r_i_docking_score>  (1) 
-3.8394518515388327

>  <r_i_glide_ecoul>  (1) 
-3.5721209105938443

>  <r_i_glide_eff_state_penalty>  (1) 
1.0661029506319644

>  <r_i_glide_einternal>  (1) 
11.888353303439228

>  <r_i_glide_emodel>  (1) 
-41.366374864649671

>  <r_i_glide_emodel_strain>  (1) 
0.23957352614719341

>  <r_i_glide_energy>  (1) 
-34.728310715826218

>  <r_i_glide_erotb>  (1) 
1.1415552716364241

>  <r_i_glide_esite>  (1) 
-0.16127588516608221

>  <r_i_glide_evdw>  (1) 
-31.156189805232376

>  <r_i_glide_gscore>  (1) 
-4.9055548021707969

>  <r_i_glide_gscore_strain>  (1) 
0

>  <r_i_glide_hbond>  (1) 
-0.20000000000000001

>  <r_i_glide_ligand_efficiency>  (1) 
-0.12798172838462776

>  <r_i_glide_ligand_efficiency_ln>  (1) 
-0.87236529484820002

>  <r_i_glide_ligand_efficiency_sa>  (1) 
-0.39766898660487304

>  <r_i_glide_lipo>  (1) 
-1.9946127459886684

>  <r_i_glide_metal>  (1) 
-0

>  <r_i_glide_rewards>  (1) 
-1.5975938158017748

>  <r_lp_Energy>  (1) 
8.1104409999999998

>  <s_epik_cmdline>  (1) 
J2VwaWtfcHl0aG9uJywgJy1waHQnLCAnMS4wJywgJy1waCcsICc3LjQnLCAnLXRuJywgJzgnLCAnLW1hJywgJzUwMCcsICctaW1hZScsICc8aW5maWxlLm1hZT4nLCAnLW9tYWUnLCAnPG91dGZpbGUubWFlPic=

>  <s_epik_input>  (1) 
Tz1DPVtDSF1bQ0gyXVtDQEBIXShbT0hdKVtDQEhdKFtDSDJdW0NIM10pW0NIMl1bQ0gyXVtDQEBIXShDKD1PKVtPSF0pW05IXVtDQEBIXShGKVtDSDJdT09DMT1bQ0hdW0NIMl1bQ0gyXVtDQEBIXShGKVtOSF1bQ0BIXTFG

>  <s_glide_docking_method>  (1) 
confgen

>  <s_i_glide_gridfile>  (1) 
gpcr_drd2_6luq_protein_autoprepared_prepared

>  <s_lp_Force_Field>  (1) 
S-OPLS

>  <s_lp_Variant>  (1) 
DiffSBDD_43_num_sample_50-3

>  <s_m_source_file>  (1) 
generated__ligand_DiffSBDD_2026-05-06_prepared.sdf

>  <GenAI_Model>  (1) 
DiffSBDD

>  <Protein>  (1) 
generic_title2

$$$$
DiffSBDD_10_num_sample_50
     RDKit          3D

  0  0  0  0  0  0  0  0  0  0999 V3000
M  V30 BEGIN CTAB
M  V30 COUNTS 73 74 0 0 1
M  V30 BEGIN ATOM
M  V30 1 C 8.087038 1.093141 -19.002184 0 CFG=2
M  V30 2 C 9.261782 6.910149 -10.977785 0
M  V30 3 C 7.834839 6.402689 -14.044725 0
M  V30 4 C 6.950263 5.956360 -17.656340 0 CFG=1
M  V30 5 C 8.754504 2.373038 -19.534593 0 CFG=2
M  V30 6 N 11.007134 6.569301 -12.613026 0
M  V30 7 N 6.908051 4.901773 -19.812636 0
M  V30 8 C 8.215113 4.721002 -19.282790 0 CFG=1
M  V30 9 S 9.157550 -0.445539 -19.118831 0
M  V30 10 C 9.861988 8.161374 -10.357822 0
M  V30 11 S 7.647784 -1.922803 -19.093816 0 CHG=-1
M  V30 12 C 7.759056 0.972742 -16.437503 0
M  V30 13 O 10.634857 6.569303 -6.383454 0
M  V30 14 O 9.813004 -0.530480 -20.433131 0
M  V30 15 C 7.723897 1.622653 -20.374187 0 CFG=2
M  V30 16 C 7.838527 3.779499 -14.036462 0
M  V30 17 C 6.054710 5.230361 -18.687530 0 CFG=2
M  V30 18 N 9.434839 7.535279 -7.988729 0 CHG=1
M  V30 19 N 9.219947 5.085207 -12.519320 0
M  V30 20 C 10.470641 7.906207 -8.973073 0
M  V30 21 C 9.545326 5.405959 -17.216718 0
M  V30 22 C 7.105702 1.098100 -17.819842 0
M  V30 23 C 10.239173 2.448315 -19.870874 0
M  V30 24 C 6.688816 5.494256 -16.203745 0
M  V30 25 C 8.362939 5.094072 -13.474459 0
M  V30 26 O 6.432867 2.201943 -20.458914 0
M  V30 27 C 9.818726 6.229057 -11.996264 0
M  V30 28 O 9.957008 -0.588302 -17.891671 0
M  V30 29 F 5.034836 5.985465 -19.091715 0
M  V30 30 N 8.037295 2.664931 -13.091666 0 CHG=1
M  V30 31 C 9.617599 6.241965 -7.307194 0
M  V30 32 C 8.395107 5.767612 -18.183833 0 CFG=2
M  V30 33 O 8.334613 3.454993 -18.700599 0
M  V30 34 C 7.115796 6.567910 -15.196764 0
M  V30 35 H 8.328050 6.564994 -10.556474 0
M  V30 36 H 8.073062 7.275259 -13.456092 0
M  V30 37 H 6.712541 7.018776 -17.723354 0
M  V30 38 H 11.566060 7.347105 -12.298451 0
M  V30 39 H 6.580591 4.038160 -20.245376 0
M  V30 40 H 8.955052 4.851601 -20.071396 0
M  V30 41 H 9.079075 8.919500 -10.295315 0
M  V30 42 H 10.631891 8.569301 -11.008012 0
M  V30 43 H 7.038612 1.206398 -15.654320 0
M  V30 44 H 8.111292 -0.042526 -16.254410 0
M  V30 45 H 8.606558 1.650787 -16.340839 0
M  V30 46 H 10.605434 5.942887 -5.672590 0
M  V30 47 H 8.028156 1.085163 -21.270080 0
M  V30 48 H 6.765196 3.829115 -14.217214 0
M  V30 49 H 8.393325 3.515382 -14.932606 0
M  V30 50 H 5.647983 4.301896 -18.291671 0
M  V30 51 H 8.537619 7.507922 -8.476885 0
M  V30 52 H 10.966209 8.809512 -8.616031 0
M  V30 53 H 11.243158 7.138116 -9.041060 0
M  V30 54 H 9.386061 4.457643 -16.708524 0
M  V30 55 H 10.484428 5.317247 -17.763158 0
M  V30 56 H 9.691476 6.169300 -16.454418 0
M  V30 57 H 6.525004 2.019584 -17.841815 0
M  V30 58 H 6.377118 0.299586 -17.953630 0
M  V30 59 H 10.489813 1.795378 -20.704465 0
M  V30 60 H 10.535741 3.453548 -20.162120 0
M  V30 61 H 10.832944 2.161066 -19.002902 0
M  V30 62 H 7.116577 4.509881 -16.171135 0
M  V30 63 H 5.616031 5.369301 -16.059801 0
M  V30 64 H 5.805714 1.495331 -20.532131 0
M  V30 65 H 7.768623 1.788685 -13.515861 0
M  V30 66 H 9.012465 2.633681 -12.824034 0
M  V30 67 H 9.904271 5.436508 -7.985340 0
M  V30 68 H 8.702229 5.966848 -6.781258 0
M  V30 69 H 8.671725 6.693230 -18.691700 0
M  V30 70 H 6.806401 7.571867 -15.451026 0
M  V30 71 H 11.422946 5.976517 -13.323308 0
M  V30 72 H 9.368751 8.251226 -7.281701 0
M  V30 73 H 7.486415 2.829262 -12.262527 0
M  V30 END ATOM
M  V30 BEGIN BOND
M  V30 1 1 5 1
M  V30 2 1 8 7
M  V30 3 1 9 1
M  V30 4 1 10 2
M  V30 5 1 11 9
M  V30 6 2 14 9
M  V30 7 1 15 1
M  V30 8 1 15 5
M  V30 9 1 17 4
M  V30 10 1 17 7
M  V30 11 1 20 10
M  V30 12 1 20 18
M  V30 13 1 1 22 CFG=1
M  V30 14 1 22 12
M  V30 15 1 23 5
M  V30 16 1 24 4
M  V30 17 1 25 3
M  V30 18 1 25 16
M  V30 19 2 25 19
M  V30 20 1 26 15
M  V30 21 2 27 2
M  V30 22 1 27 6
M  V30 23 1 27 19
M  V30 24 2 28 9
M  V30 25 1 29 17
M  V30 26 1 30 16
M  V30 27 1 31 13
M  V30 28 1 31 18
M  V30 29 1 32 4
M  V30 30 1 32 8
M  V30 31 1 32 21
M  V30 32 1 5 33 CFG=1
M  V30 33 1 33 8
M  V30 34 2 34 3
M  V30 35 1 34 24
M  V30 36 1 35 2
M  V30 37 1 36 3
M  V30 38 1 4 37 CFG=1
M  V30 39 1 38 6
M  V30 40 1 39 7
M  V30 41 1 8 40 CFG=3
M  V30 42 1 41 10
M  V30 43 1 42 10
M  V30 44 1 43 12
M  V30 45 1 44 12
M  V30 46 1 45 12
M  V30 47 1 46 13
M  V30 48 1 15 47 CFG=3
M  V30 49 1 48 16
M  V30 50 1 49 16
M  V30 51 1 17 50 CFG=1
M  V30 52 1 51 18
M  V30 53 1 52 20
M  V30 54 1 53 20
M  V30 55 1 54 21
M  V30 56 1 55 21
M  V30 57 1 56 21
M  V30 58 1 57 22
M  V30 59 1 58 22
M  V30 60 1 59 23
M  V30 61 1 60 23
M  V30 62 1 61 23
M  V30 63 1 62 24
M  V30 64 1 63 24
M  V30 65 1 64 26
M  V30 66 1 65 30
M  V30 67 1 66 30
M  V30 68 1 67 31
M  V30 69 1 68 31
M  V30 70 1 32 69 CFG=3
M  V30 71 1 70 34
M  V30 72 1 71 6
M  V30 73 1 72 18
M  V30 74 1 73 30
M  V30 END BOND
M  V30 END CTAB
M  END
>  <i_epik_Tot_Q>  (1) 
1

>  <i_epik_Tot_abs_Q>  (1) 
3

>  <i_i_glide_confnum>  (1) 
118

>  <i_i_glide_lignum>  (1) 
33

>  <i_i_glide_posenum>  (1) 
341

>  <i_i_glide_rotatable_bonds>  (1) 
15

>  <i_lp_mmshare_version>  (1) 
72125

>  <i_m_source_file_index>  (1) 
11

>  <i_f3d_flags>  (1) 
0

>  <num_sample>  (1) 
50

>  <b_lp_Chiralities_Consistent>  (1) 
1

>  <r_epik_Charging_Adjusted_Penalty>  (1) 
2.168687317063887

>  <r_epik_Ionization_Penalty>  (1) 
1.1047352072338965

>  <r_epik_Ionization_Penalty_Charging>  (1) 
1.0999234457570315

>  <r_epik_Ionization_Penalty_Neutral>  (1) 
0.0048117614768649203

>  <r_epik_State_Penalty>  (1) 
1.0687638713068555

>  <r_glide_ring_energy>  (1) 
0

>  <r_i_docking_score>  (1) 
-3.8364333925101981

>  <r_i_glide_ecoul>  (1) 
-7.2654858618609017

>  <r_i_glide_eff_state_penalty>  (1) 
1.0687638713068555

>  <r_i_glide_einternal>  (1) 
13.315066333592455

>  <r_i_glide_emodel>  (1) 
-47.007900002676443

>  <r_i_glide_emodel_strain>  (1) 
0.60968598714322297

>  <r_i_glide_energy>  (1) 
-37.082941934131497

>  <r_i_glide_erotb>  (1) 
0.57553451871204087

>  <r_i_glide_esite>  (1) 
-0.12462405896094296

>  <r_i_glide_evdw>  (1) 
-29.817456072270598

>  <r_i_glide_gscore>  (1) 
-4.9051972638170538

>  <r_i_glide_gscore_strain>  (1) 
0

>  <r_i_glide_hbond>  (1) 
-0.47033162629772113

>  <r_i_glide_ligand_efficiency>  (1) 
-0.11283627625029995

>  <r_i_glide_ligand_efficiency_ln>  (1) 
-0.8475757447172263

>  <r_i_glide_ligand_efficiency_sa>  (1) 
-0.36554573215267794

>  <r_i_glide_lipo>  (1) 
-1.028735318855307

>  <r_i_glide_metal>  (1) 
-0

>  <r_i_glide_rewards>  (1) 
-1.276345095522458

>  <r_lp_Energy>  (1) 
18.368548999999998

>  <s_epik_Chemistry_Notes>  (1) 
This compound has an imine and may undergo hydrolysis. This compound contains an acetal/aminal-like group ( X-CH(R)-Y where X, Y are N, S, or O) that may be acid/base labile, releasing an aldehyde.

>  <s_epik_cmdline>  (1) 
J2VwaWtfcHl0aG9uJywgJy1waHQnLCAnMS4wJywgJy1waCcsICc3LjQnLCAnLXRuJywgJzgnLCAnLW1hJywgJzUwMCcsICctaW1hZScsICc8aW5maWxlLm1hZT4nLCAnLW9tYWUnLCAnPG91dGZpbGUubWFlPic=

>  <s_epik_input>  (1) 
W1NIXVMoPU8pKD1PKVtDQEBdMShbQ0gyXVtDSDNdKVtDQEBdKFtDSDNdKShbQ0BASF0xW09IXSlPW0NASF0oW0NAQEhdMltDSDNdKVtOSF1bQ0BASF0oRilbQ0BIXTJbQ0gyXS9bQ0hdPVtDSF1cQyhbQ0gyXVtOSDJdKT1OL0MoPU4vW0hdKS9bQ0gyXVtDSDJdW0NIMl1bTkhdW0NIMl1bT0hd

>  <s_glide_docking_method>  (1) 
confgen

>  <s_i_glide_gridfile>  (1) 
gpcr_drd2_6luq_protein_autoprepared_prepared

>  <s_lp_Force_Field>  (1) 
S-OPLS

>  <s_lp_Variant>  (1) 
DiffSBDD_10_num_sample_50-13

>  <s_m_source_file>  (1) 
generated__ligand_DiffSBDD_2026-05-06_prepared.sdf

>  <GenAI_Model>  (1) 
DiffSBDD

>  <Protein>  (1) 
generic_title2

$$$$
DiffSBDD_2_num_sample_50
     RDKit          3D

  0  0  0  0  0  0  0  0  0  0999 V3000
M  V30 BEGIN CTAB
M  V30 COUNTS 54 57 0 0 1
M  V30 BEGIN ATOM
M  V30 1 C 9.628906 5.897220 -8.679065 0 CFG=1
M  V30 2 C 9.833249 6.667548 -11.443072 0
M  V30 3 O 11.416550 7.769288 -10.127990 0 CHG=-1
M  V30 4 C 6.803806 3.116428 -13.775930 0
M  V30 5 O 8.036992 4.818342 -17.627741 0
M  V30 6 C 8.115183 3.571244 -17.279985 0
M  V30 7 C 10.905026 9.348125 -5.683989 0
M  V30 8 C 7.143549 5.769292 -17.442887 0
M  V30 9 C 11.564701 8.814624 -6.956468 0
M  V30 10 O 5.764990 7.119006 -16.244862 0 CHG=-1
M  V30 11 C 7.733150 3.090392 -16.122191 0
M  V30 12 C 7.774239 1.100730 -14.693550 0
M  V30 13 C 6.437475 6.061045 -16.287813 0
M  V30 14 C 8.273855 4.951650 -10.584297 0
M  V30 15 N 9.434840 7.295609 -9.026369 0 CFG=2 CHG=1
M  V30 16 C 10.119572 7.686403 -10.298625 0 CFG=2
M  V30 17 C 11.311596 7.324135 -7.206628 0
M  V30 18 C 7.158872 1.831362 -13.628804 0
M  V30 19 C 7.912900 5.974131 -12.776064 0
M  V30 20 N 8.446634 6.169271 -11.411495 0
M  V30 21 C 6.474061 5.184401 -15.131919 0
M  V30 22 C 6.368549 6.050099 -12.850193 0
M  V30 23 N 5.769281 5.677271 -14.005199 0
M  V30 24 C 8.043419 1.684141 -15.864657 0
M  V30 25 C 7.035003 3.871879 -15.045659 0
M  V30 26 C 9.891004 6.981887 -7.662606 0 CFG=2
M  V30 27 O 5.725951 6.470221 -11.891654 0
M  V30 28 C 8.343450 5.201893 -9.055569 0
M  V30 29 H 10.528281 5.457199 -9.091659 0
M  V30 30 H 10.525368 5.829900 -11.491667 0
M  V30 31 H 10.030395 7.212188 -12.366760 0
M  V30 32 H 6.324550 3.592690 -12.944898 0
M  V30 33 H 8.625754 2.983381 -18.028708 0
M  V30 34 H 11.063444 10.421784 -5.580033 0
M  V30 35 H 11.307055 8.860493 -4.795518 0
M  V30 36 H 9.834840 9.168105 -5.708539 0
M  V30 37 H 7.117093 6.426181 -18.299503 0
M  V30 38 H 11.227746 9.369301 -7.829289 0
M  V30 39 H 12.639346 8.985618 -6.889615 0
M  V30 40 H 8.027088 0.060484 -14.546790 0
M  V30 41 H 7.300828 4.499989 -10.779563 0
M  V30 42 H 9.007310 4.198711 -10.879083 0
M  V30 43 H 9.547103 8.569310 -10.578395 0
M  V30 44 H 12.043285 6.969301 -7.922008 0
M  V30 45 H 11.515882 6.761121 -6.295627 0
M  V30 46 H 6.961173 1.332652 -12.691678 0
M  V30 47 H 8.354508 5.074011 -13.192944 0
M  V30 48 H 8.234838 6.791023 -13.422603 0
M  V30 49 H 4.786850 5.868476 -14.125547 0
M  V30 50 H 8.514565 1.099266 -16.641329 0
M  V30 51 H 9.092990 7.211077 -6.959159 0
M  V30 52 H 8.292620 4.258771 -8.514046 0
M  V30 53 H 7.476973 5.769297 -8.718767 0
M  V30 54 H 8.423910 7.462113 -9.091711 0
M  V30 END ATOM
M  V30 BEGIN BOND
M  V30 1 1 6 5
M  V30 2 1 8 5
M  V30 3 1 9 7
M  V30 4 2 11 6
M  V30 5 2 13 8
M  V30 6 1 13 10
M  V30 7 1 15 1
M  V30 8 1 16 2
M  V30 9 1 16 3
M  V30 10 1 16 15
M  V30 11 1 17 9
M  V30 12 2 18 4
M  V30 13 1 18 12
M  V30 14 1 20 2
M  V30 15 1 20 14
M  V30 16 1 20 19
M  V30 17 1 21 13
M  V30 18 1 22 19
M  V30 19 1 23 21
M  V30 20 1 23 22
M  V30 21 1 24 11
M  V30 22 2 24 12
M  V30 23 1 25 4
M  V30 24 1 25 11
M  V30 25 2 25 21
M  V30 26 1 26 1
M  V30 27 1 26 15
M  V30 28 1 26 17
M  V30 29 2 27 22
M  V30 30 1 28 1
M  V30 31 1 28 14
M  V30 32 1 1 29 CFG=3
M  V30 33 1 30 2
M  V30 34 1 31 2
M  V30 35 1 32 4
M  V30 36 1 33 6
M  V30 37 1 34 7
M  V30 38 1 35 7
M  V30 39 1 36 7
M  V30 40 1 37 8
M  V30 41 1 38 9
M  V30 42 1 39 9
M  V30 43 1 40 12
M  V30 44 1 41 14
M  V30 45 1 42 14
M  V30 46 1 16 43 CFG=3
M  V30 47 1 44 17
M  V30 48 1 45 17
M  V30 49 1 46 18
M  V30 50 1 47 19
M  V30 51 1 48 19
M  V30 52 1 49 23
M  V30 53 1 50 24
M  V30 54 1 26 51 CFG=1
M  V30 55 1 52 28
M  V30 56 1 53 28
M  V30 57 1 15 54 CFG=1
M  V30 END BOND
M  V30 END CTAB
M  END
>  <i_epik_Tot_Q>  (1) 
-1

>  <i_epik_Tot_abs_Q>  (1) 
3

>  <i_i_glide_confnum>  (1) 
5

>  <i_i_glide_lignum>  (1) 
7

>  <i_i_glide_posenum>  (1) 
159

>  <i_i_glide_rotatable_bonds>  (1) 
6

>  <i_lp_mmshare_version>  (1) 
72125

>  <i_m_source_file_index>  (1) 
3

>  <i_f3d_flags>  (1) 
0

>  <num_sample>  (1) 
50

>  <b_lp_Chiralities_Consistent>  (1) 
1

>  <r_epik_Charging_Adjusted_Penalty>  (1) 
0.20824401478555332

>  <r_epik_Ionization_Penalty>  (1) 
0.10900575238268746

>  <r_epik_Ionization_Penalty_Charging>  (1) 
0.10898275236366674

>  <r_epik_Ionization_Penalty_Neutral>  (1) 
2.3000019020727684e-05

>  <r_epik_State_Penalty>  (1) 
0.099261262421886584

>  <r_glide_ring_energy>  (1) 
0

>  <r_i_docking_score>  (1) 
-3.8334097685744384

>  <r_i_glide_ecoul>  (1) 
-3.297857512373088

>  <r_i_glide_eff_state_penalty>  (1) 
0.099261262421886584

>  <r_i_glide_einternal>  (1) 
8.1517452199663758

>  <r_i_glide_emodel>  (1) 
-42.358964954637095

>  <r_i_glide_emodel_strain>  (1) 
0

>  <r_i_glide_energy>  (1) 
-35.617724595845871

>  <r_i_glide_erotb>  (1) 
0.52616126561579779

>  <r_i_glide_esite>  (1) 
-0.17350346846586759

>  <r_i_glide_evdw>  (1) 
-32.319867083472786

>  <r_i_glide_gscore>  (1) 
-3.9326710309963251

>  <r_i_glide_gscore_strain>  (1) 
0

>  <r_i_glide_hbond>  (1) 
-0.20000000000000001

>  <r_i_glide_ligand_efficiency>  (1) 
-0.13690749173480138

>  <r_i_glide_ligand_efficiency_ln>  (1) 
-0.88486352838855398

>  <r_i_glide_ligand_efficiency_sa>  (1) 
-0.41573177956905633

>  <r_i_glide_lipo>  (1) 
-2.0516230820386285

>  <r_i_glide_metal>  (1) 
-0

>  <r_i_glide_rewards>  (1) 
0.076966234921976184

>  <r_lp_Energy>  (1) 
97.502589999999998

>  <s_epik_Chemistry_Notes>  (1) 
This compound contains an acetal/aminal-like group ( X-CH(R)-Y where X, Y are N, S, or O) that may be acid/base labile, releasing an aldehyde.

>  <s_epik_cmdline>  (1) 
J2VwaWtfcHl0aG9uJywgJy1waHQnLCAnMS4wJywgJy1waCcsICc3LjQnLCAnLXRuJywgJzgnLCAnLW1hJywgJzUwMCcsICctaW1hZScsICc8aW5maWxlLm1hZT4nLCAnLW9tYWUnLCAnPG91dGZpbGUubWFlPic=

>  <s_epik_input>  (1) 
W0NIM11bQ0gyXVtDSDJdW0NIXTFOKFtDQEBIXTEyKVtDQEBIXShbT0hdKVtDSDJdTihbQ0gyXVtDSDJdMilbQ0gyXUMoPU8pW05IXUMoQyhbT0hdKT1bQ0hdT1tDSF09Myk9YyhjMzQpW2NIXVtjSF1bY0hdW2NIXTQ=

>  <s_glide_docking_method>  (1) 
confgen

>  <s_i_glide_gridfile>  (1) 
gpcr_drd2_6luq_protein_autoprepared_prepared

>  <s_lp_Force_Field>  (1) 
S-OPLS

>  <s_lp_Variant>  (1) 
DiffSBDD_2_num_sample_50-2

>  <s_m_source_file>  (1) 
generated__ligand_DiffSBDD_2026-05-06_prepared.sdf

>  <GenAI_Model>  (1) 
DiffSBDD

>  <Protein>  (1) 
generic_title2

$$$$
DiffSBDD_42_num_sample_50
     RDKit          3D

  0  0  0  0  0  0  0  0  0  0999 V3000
M  V30 BEGIN CTAB
M  V30 COUNTS 62 65 0 0 1
M  V30 BEGIN ATOM
M  V30 1 C 8.578238 5.435733 -19.856234 0 CFG=2
M  V30 2 S 6.500967 0.675621 -16.406420 0
M  V30 3 C 9.833734 7.800703 -10.415662 0
M  V30 4 O 7.807717 1.517187 -13.692294 0
M  V30 5 C 9.988639 4.810162 -19.885083 0
M  V30 6 O 7.710387 -0.532211 -16.378888 0
M  V30 7 O 5.673945 0.567993 -15.125882 0
M  V30 8 C 9.832933 5.904516 -8.866939 0
M  V30 9 C 7.731582 4.452718 -15.992248 0 CFG=2
M  V30 10 N 9.391634 5.505489 -11.282961 0
M  V30 11 O 7.503086 2.083034 -16.380275 0
M  V30 12 C 11.489926 6.563764 -18.887601 0
M  V30 13 C 9.549360 5.534082 -17.603030 0 CFG=1
M  V30 14 F 10.580173 8.969323 -7.003674 0
M  V30 15 C 9.434708 4.145790 -11.147405 0
M  V30 16 C 11.728866 4.200396 -18.106077 0
M  V30 17 C 7.764370 5.511337 -14.865887 0
M  V30 18 C 8.491909 6.187703 -18.521248 0
M  V30 19 N 8.503416 3.652707 -13.281894 0
M  V30 20 C 9.015175 3.279634 -12.053636 0
M  V30 21 C 10.286999 8.138749 -8.033763 0
M  V30 22 C 8.890805 6.123389 -12.529502 0
M  V30 23 C 7.285081 3.107537 -15.399717 0 CFG=1
M  V30 24 C 9.682425 6.408857 -10.198835 0
M  V30 25 C 10.130451 6.770114 -7.802826 0
M  V30 26 C 8.670398 5.071996 -13.706685 0 CFG=2
M  V30 27 C 9.022840 4.289104 -16.855554 0
M  V30 28 F 7.678579 4.450583 -19.833138 0
M  V30 29 C 8.278802 6.327075 -21.071117 0
M  V30 30 C 7.891530 2.693294 -14.052871 0
M  V30 31 C 10.712055 5.257284 -18.596521 0
M  V30 32 C 10.140536 8.653829 -9.330844 0
M  V30 33 H 9.722478 8.218543 -11.400274 0
M  V30 34 H 10.546034 5.091402 -20.779740 0
M  V30 35 H 9.905187 3.723729 -19.915507 0
M  V30 36 H 7.446800 -1.220997 -15.779760 0
M  V30 37 H 9.712229 4.858790 -8.656114 0
M  V30 38 H 6.924890 4.737418 -16.665065 0
M  V30 39 H 10.867548 7.320497 -19.366095 0
M  V30 40 H 11.887173 7.004955 -17.972609 0
M  V30 41 H 12.330383 6.384259 -19.560657 0
M  V30 42 H 9.901681 6.186099 -16.814428 0
M  V30 43 H 9.831590 3.803818 -10.215352 0
M  V30 44 H 11.268907 3.227832 -17.931012 0
M  V30 45 H 12.514926 4.033197 -18.842944 0
M  V30 46 H 12.204996 4.513425 -17.174816 0
M  V30 47 H 6.755035 5.655597 -14.480092 0
M  V30 48 H 8.081121 6.479627 -15.251699 0
M  V30 49 H 7.481159 6.197524 -18.122386 0
M  V30 50 H 8.738576 7.236639 -18.691900 0
M  V30 51 H 9.036342 2.216205 -11.892261 0
M  V30 52 H 7.947092 6.625178 -12.308914 0
M  V30 53 H 9.595167 6.867466 -12.889005 0
M  V30 54 H 6.235188 3.173681 -15.174957 0
M  V30 55 H 10.238515 6.376760 -6.802511 0
M  V30 56 H 9.663637 5.025529 -14.155806 0
M  V30 57 H 9.816802 3.883150 -16.231478 0
M  V30 58 H 8.845342 3.531451 -17.617847 0
M  V30 59 H 9.017121 7.123583 -21.168109 0
M  V30 60 H 8.294614 5.749166 -21.997434 0
M  V30 61 H 7.298047 6.796128 -20.978980 0
M  V30 62 H 10.261952 9.710462 -9.491383 0
M  V30 END ATOM
M  V30 BEGIN BOND
M  V30 1 1 5 1
M  V30 2 1 2 6 CFG=1
M  V30 3 2 7 2
M  V30 4 1 11 2
M  V30 5 1 15 10
M  V30 6 1 17 9
M  V30 7 1 18 1
M  V30 8 1 18 13
M  V30 9 2 20 15
M  V30 10 1 20 19
M  V30 11 1 21 14
M  V30 12 1 22 10
M  V30 13 1 23 9
M  V30 14 1 23 11
M  V30 15 2 24 3
M  V30 16 1 24 8
M  V30 17 1 24 10
M  V30 18 2 25 8
M  V30 19 1 25 21
M  V30 20 1 26 17
M  V30 21 1 26 19
M  V30 22 1 26 22
M  V30 23 1 27 9
M  V30 24 1 27 13
M  V30 25 1 1 28 CFG=1
M  V30 26 1 29 1
M  V30 27 2 30 4
M  V30 28 1 30 19
M  V30 29 1 30 23
M  V30 30 1 31 5
M  V30 31 1 31 12
M  V30 32 1 31 13
M  V30 33 1 31 16
M  V30 34 1 32 3
M  V30 35 2 32 21
M  V30 36 1 33 3
M  V30 37 1 34 5
M  V30 38 1 35 5
M  V30 39 1 36 6
M  V30 40 1 37 8
M  V30 41 1 9 38 CFG=3
M  V30 42 1 39 12
M  V30 43 1 40 12
M  V30 44 1 41 12
M  V30 45 1 13 42 CFG=1
M  V30 46 1 43 15
M  V30 47 1 44 16
M  V30 48 1 45 16
M  V30 49 1 46 16
M  V30 50 1 47 17
M  V30 51 1 48 17
M  V30 52 1 49 18
M  V30 53 1 50 18
M  V30 54 1 51 20
M  V30 55 1 52 22
M  V30 56 1 53 22
M  V30 57 1 23 54 CFG=1
M  V30 58 1 55 25
M  V30 59 1 26 56 CFG=3
M  V30 60 1 57 27
M  V30 61 1 58 27
M  V30 62 1 59 29
M  V30 63 1 60 29
M  V30 64 1 61 29
M  V30 65 1 62 32
M  V30 END BOND
M  V30 END CTAB
M  END
>  <i_epik_Tot_Q>  (1) 
0

>  <i_epik_Tot_abs_Q>  (1) 
0

>  <i_i_glide_confnum>  (1) 
12

>  <i_i_glide_lignum>  (1) 
105

>  <i_i_glide_posenum>  (1) 
386

>  <i_i_glide_rotatable_bonds>  (1) 
6

>  <i_lp_mmshare_version>  (1) 
72125

>  <i_m_source_file_index>  (1) 
43

>  <i_f3d_flags>  (1) 
0

>  <num_sample>  (1) 
50

>  <b_lp_Chiralities_Consistent>  (1) 
1

>  <r_epik_Charging_Adjusted_Penalty>  (1) 
7.4277235651080948e-06

>  <r_epik_Ionization_Penalty>  (1) 
7.4296713957726515e-06

>  <r_epik_Ionization_Penalty_Charging>  (1) 
7.4277235651080948e-06

>  <r_epik_Ionization_Penalty_Neutral>  (1) 
1.9478306645570326e-09

>  <r_epik_State_Penalty>  (1) 
-0

>  <r_glide_ring_energy>  (1) 
0.49487961202286068

>  <r_i_docking_score>  (1) 
-3.8258425902428503

>  <r_i_glide_ecoul>  (1) 
-2.4717786201255829

>  <r_i_glide_eff_state_penalty>  (1) 
-0

>  <r_i_glide_einternal>  (1) 
4.5329475306529581

>  <r_i_glide_emodel>  (1) 
-28.131782105617923

>  <r_i_glide_emodel_strain>  (1) 
0.92198022046632389

>  <r_i_glide_energy>  (1) 
-25.702080083830971

>  <r_i_glide_erotb>  (1) 
0.45981395595686525

>  <r_i_glide_esite>  (1) 
-0.00026751310200979431

>  <r_i_glide_evdw>  (1) 
-23.230301463705388

>  <r_i_glide_gscore>  (1) 
-3.8258425902428503

>  <r_i_glide_gscore_strain>  (1) 
0

>  <r_i_glide_hbond>  (1) 
-0.32000000000000001

>  <r_i_glide_ligand_efficiency>  (1) 
-0.11955758094508907

>  <r_i_glide_ligand_efficiency_ln>  (1) 
-0.85671044448559863

>  <r_i_glide_ligand_efficiency_sa>  (1) 
-0.37957165952601518

>  <r_i_glide_lipo>  (1) 
-1.1059145632548073

>  <r_i_glide_metal>  (1) 
-0

>  <r_i_glide_rewards>  (1) 
-1.3271926036387913

>  <r_lp_Energy>  (1) 
34.324670999999995

>  <r_lp_tautomer_probability>  (1) 
1

>  <s_epik_Chemistry_Notes>  (1) 
This compound has an imine and may undergo hydrolysis.

>  <s_epik_cmdline>  (1) 
J2VwaWtfcHl0aG9uJywgJy1waHQnLCAnMS4wJywgJy1waCcsICc3LjQnLCAnLXRuJywgJzgnLCAnLW1hJywgJzUwMCcsICctaW1hZScsICc8aW5maWxlLm1hZT4nLCAnLW9tYWUnLCAnPG91dGZpbGUubWFlPic=

>  <s_epik_input>  (1) 
RltDQF0xKFtDSDNdKVtDSDJdQyhbQ0gzXSkoW0NIM10pW0NAQEhdKFtDSDJdMSlbQ0gyXVtDQEBIXShbQ0BIXShDMj1PKU9TKD1PKVtPSF0pW0NIMl1bQ0BIXShOMjMpW0NIMl1OKFtDSF09W0NIXTMpYyhbY0hdW2NIXTQpW2NIXVtjSF1jNEY=

>  <s_glide_docking_method>  (1) 
confgen

>  <s_i_glide_gridfile>  (1) 
gpcr_drd2_6luq_protein_autoprepared_prepared

>  <s_lp_Force_Field>  (1) 
S-OPLS

>  <s_lp_Variant>  (1) 
DiffSBDD_42_num_sample_50-1

>  <s_m_source_file>  (1) 
generated__ligand_DiffSBDD_2026-05-06_prepared.sdf

>  <GenAI_Model>  (1) 
DiffSBDD

>  <Protein>  (1) 
generic_title2

$$$$
DiffSBDD_9_num_sample_50
     RDKit          3D

  0  0  0  0  0  0  0  0  0  0999 V3000
M  V30 BEGIN CTAB
M  V30 COUNTS 38 40 0 0 1
M  V30 BEGIN ATOM
M  V30 1 C 10.164986 3.612133 -18.110819 0 CFG=2
M  V30 2 F 11.834853 6.569302 -17.937123 0
M  V30 3 C 6.994608 5.592324 -13.158713 0
M  V30 4 C 8.604294 1.652069 -17.636516 0
M  V30 5 C 6.450393 4.437289 -10.955331 0
M  V30 6 C 7.246067 3.133851 -14.462673 0
M  V30 7 C 6.927207 3.140368 -13.091676 0
M  V30 8 F 12.076410 6.938798 -20.053297 0
M  V30 9 F 11.500231 4.242003 -20.578101 0
M  V30 10 C 10.049944 2.151467 -17.663494 0
M  V30 11 C 6.797827 4.387419 -12.430350 0
M  V30 12 O 11.545729 3.812348 -18.390673 0
M  V30 13 C 7.394671 2.007574 -15.288117 0
M  V30 14 F 13.274136 4.696215 -19.419564 0
M  V30 15 C 11.918644 4.688222 -19.366572 0
M  V30 16 C 7.622182 2.449353 -16.748962 0 CFG=1
M  V30 17 C 7.318644 5.534527 -14.535281 0
M  V30 18 C 11.477590 6.157297 -19.153568 0
M  V30 19 C 7.797815 4.079123 -16.621575 0 CFG=1
M  V30 20 C 7.436289 4.276338 -15.152792 0
M  V30 21 F 10.160527 6.306227 -19.302151 0
M  V30 22 C 7.326361 0.729671 -14.867626 0
M  V30 23 S 9.510257 4.674532 -16.800075 0
M  V30 24 H 9.573726 3.753608 -19.017056 0
M  V30 25 H 6.899868 6.548358 -12.663504 0
M  V30 26 H 8.230535 1.691810 -18.660513 0
M  V30 27 H 8.588744 0.594991 -17.374143 0
M  V30 28 H 6.131276 5.437197 -10.657306 0
M  V30 29 H 7.318146 4.169306 -10.352901 0
M  V30 30 H 5.641836 3.743896 -10.723098 0
M  V30 31 H 6.776248 2.217010 -12.554521 0
M  V30 32 H 10.516332 2.019144 -16.691667 0
M  V30 33 H 10.613544 1.521346 -18.352778 0
M  V30 34 H 6.634841 2.300445 -17.187855 0
M  V30 35 H 7.476490 6.441336 -15.100418 0
M  V30 36 H 7.126330 4.617116 -17.291191 0
M  V30 37 H 7.156101 0.489547 -13.829434 0
M  V30 38 H 7.439257 -0.091056 -15.559746 0
M  V30 END ATOM
M  V30 BEGIN BOND
M  V30 1 1 7 6
M  V30 2 1 10 1
M  V30 3 1 10 4
M  V30 4 1 11 3
M  V30 5 1 11 5
M  V30 6 2 11 7
M  V30 7 1 12 1
M  V30 8 1 13 6
M  V30 9 1 15 9
M  V30 10 1 15 12
M  V30 11 1 15 14
M  V30 12 1 16 4
M  V30 13 1 16 13
M  V30 14 2 17 3
M  V30 15 1 18 2
M  V30 16 1 18 8
M  V30 17 1 18 15
M  V30 18 1 19 16
M  V30 19 2 20 6
M  V30 20 1 20 17
M  V30 21 1 20 19
M  V30 22 1 21 18
M  V30 23 2 22 13
M  V30 24 1 23 1
M  V30 25 1 23 19
M  V30 26 1 1 24 CFG=3
M  V30 27 1 25 3
M  V30 28 1 26 4
M  V30 29 1 27 4
M  V30 30 1 28 5
M  V30 31 1 29 5
M  V30 32 1 30 5
M  V30 33 1 31 7
M  V30 34 1 32 10
M  V30 35 1 33 10
M  V30 36 1 16 34 CFG=3
M  V30 37 1 35 17
M  V30 38 1 19 36 CFG=3
M  V30 39 1 37 22
M  V30 40 1 38 22
M  V30 END BOND
M  V30 END CTAB
M  END
>  <i_epik_Tot_Q>  (1) 
0

>  <i_epik_Tot_abs_Q>  (1) 
0

>  <i_i_glide_confnum>  (1) 
5

>  <i_i_glide_lignum>  (1) 
20

>  <i_i_glide_posenum>  (1) 
238

>  <i_i_glide_rotatable_bonds>  (1) 
3

>  <i_lp_mmshare_version>  (1) 
72125

>  <i_m_source_file_index>  (1) 
10

>  <i_f3d_flags>  (1) 
0

>  <num_sample>  (1) 
50

>  <b_lp_Chiralities_Consistent>  (1) 
1

>  <r_epik_Charging_Adjusted_Penalty>  (1) 
0

>  <r_epik_Ionization_Penalty>  (1) 
0

>  <r_epik_Ionization_Penalty_Charging>  (1) 
0

>  <r_epik_Ionization_Penalty_Neutral>  (1) 
0

>  <r_epik_State_Penalty>  (1) 
-0

>  <r_glide_ring_energy>  (1) 
0

>  <r_i_docking_score>  (1) 
-3.819669839335345

>  <r_i_glide_ecoul>  (1) 
-0.25149871295607729

>  <r_i_glide_eff_state_penalty>  (1) 
-0

>  <r_i_glide_einternal>  (1) 
0.051903039153939012

>  <r_i_glide_emodel>  (1) 
-25.724707912484281

>  <r_i_glide_emodel_strain>  (1) 
0.00012772433398566818

>  <r_i_glide_energy>  (1) 
-20.407856137189846

>  <r_i_glide_erotb>  (1) 
0.31055348549958028

>  <r_i_glide_esite>  (1) 
0

>  <r_i_glide_evdw>  (1) 
-20.156357424233768

>  <r_i_glide_gscore>  (1) 
-3.819669839335345

>  <r_i_glide_gscore_strain>  (1) 
0

>  <r_i_glide_hbond>  (1) 
0

>  <r_i_glide_ligand_efficiency>  (1) 
-0.16607260171023239

>  <r_i_glide_ligand_efficiency_ln>  (1) 
-0.92363080200250114

>  <r_i_glide_ligand_efficiency_sa>  (1) 
-0.47228838826177055

>  <r_i_glide_lipo>  (1) 
-1.4156215275525188

>  <r_i_glide_metal>  (1) 
-0

>  <r_i_glide_rewards>  (1) 
-1.6690591191273061

>  <r_lp_Energy>  (1) 
13.417608

>  <r_lp_tautomer_probability>  (1) 
1

>  <s_epik_Chemistry_Notes>  (1) 
This compound contains an acetal/aminal-like group ( X-CH(R)-Y where X, Y are N, S, or O) that may be acid/base labile, releasing an aldehyde.

>  <s_epik_cmdline>  (1) 
J2VwaWtfcHl0aG9uJywgJy1waHQnLCAnMS4wJywgJy1waCcsICc3LjQnLCAnLXRuJywgJzgnLCAnLW1hJywgJzUwMCcsICctaW1hZScsICc8aW5maWxlLm1hZT4nLCAnLW9tYWUnLCAnPG91dGZpbGUubWFlPic=

>  <s_epik_input>  (1) 
RkMoRikoRilDKEYpKEYpT1tDQEhdKFMxKVtDSDJdW0NIMl1bQ0BASF0oQzI9W0NIMl0pW0NASF0xYyhjMjMpW2NIXVtjSF1jKFtDSDNdKVtjSF0z

>  <s_glide_docking_method>  (1) 
confgen

>  <s_i_glide_gridfile>  (1) 
gpcr_drd2_6luq_protein_autoprepared_prepared

>  <s_lp_Force_Field>  (1) 
S-OPLS

>  <s_lp_Variant>  (1) 
DiffSBDD_9_num_sample_50-1

>  <s_m_source_file>  (1) 
generated__ligand_DiffSBDD_2026-05-06_prepared.sdf

>  <GenAI_Model>  (1) 
DiffSBDD

>  <Protein>  (1) 
generic_title2

$$$$
DiffSBDD_24_num_sample_50
     RDKit          3D

  0  0  0  0  0  0  0  0  0  0999 V3000
M  V30 BEGIN CTAB
M  V30 COUNTS 85 91 0 0 1
M  V30 BEGIN ATOM
M  V30 1 N 9.773003 4.287090 -18.507988 0
M  V30 2 C 7.538864 4.581733 -11.157404 0
M  V30 3 O 7.586508 -0.255236 -17.741774 0
M  V30 4 C 11.129474 1.925004 -18.311399 0 CFG=2
M  V30 5 C 13.926282 7.068425 -19.543349 0 CFG=1
M  V30 6 C 9.227293 4.569302 -9.147432 0 CFG=2
M  V30 7 C 6.773518 0.964976 -15.855740 0 CFG=2
M  V30 8 C 8.904777 1.696793 -17.102772 0
M  V30 9 N 14.347087 7.087139 -18.142339 0
M  V30 10 N 8.063794 1.846197 -13.921767 0 CFG=1 CHG=1
M  V30 11 C 7.456477 3.342202 -15.854517 0
M  V30 12 C 9.424515 3.286612 -19.520246 0
M  V30 13 C 12.405693 6.916314 -19.624127 0
M  V30 14 C 8.631532 3.020329 -16.759450 0
M  V30 15 C 15.740985 7.513623 -18.177913 0
M  V30 16 C 10.406815 5.520056 -19.027126 0
M  V30 17 C 14.075949 5.793891 -17.504449 0 CFG=2
M  V30 18 O 9.761848 5.099331 -16.386835 0
M  V30 19 C 8.634913 5.498916 -8.110865 0
M  V30 20 F 6.313726 -0.050500 -15.125327 0
M  V30 21 C 12.544888 5.581482 -17.518454 0
M  V30 22 C 13.618367 1.503942 -18.759652 0
M  V30 23 C 15.714210 8.834164 -18.955934 0 CFG=1
M  V30 24 C 8.398780 -1.385099 -18.028424 0
M  V30 25 C 11.951103 5.611257 -18.944653 0 CFG=2
M  V30 26 C 10.645103 2.383741 -19.688609 0
M  V30 27 F 10.200135 6.721202 -9.536399 0
M  V30 28 C 8.912111 4.921427 -10.595235 0 CFG=2
M  V30 29 C 9.458351 4.198891 -17.169033 0
M  V30 30 C 12.260915 0.889087 -18.393895 0
M  V30 31 C 8.029982 0.525483 -16.639526 0 CFG=2
M  V30 32 C 7.040499 2.177390 -14.947772 0 CFG=1
M  V30 33 C 14.601323 5.745589 -16.056913 0
M  V30 34 S 14.519004 8.609091 -20.281839 0
M  V30 35 C 8.259696 2.618879 -12.691665 0 CFG=1
M  V30 36 O 9.987522 1.251992 -17.853468 0
M  V30 37 C 9.033234 5.977135 -9.497694 0 CFG=1
M  V30 38 Cl 15.180884 10.162992 -17.891701 0
M  V30 39 C 7.561969 3.978398 -12.575713 0
M  V30 40 C 7.545882 1.282067 -12.691667 0
M  V30 41 H 7.004253 3.933218 -10.463420 0
M  V30 42 H 6.962897 5.508465 -11.187487 0
M  V30 43 H 11.478676 2.694581 -17.631253 0
M  V30 44 H 14.417062 6.242668 -20.062019 0
M  V30 45 H 10.234833 4.224239 -8.939364 0
M  V30 46 H 5.974864 1.211615 -16.557459 0
M  V30 47 H 7.656412 4.234987 -15.268935 0
M  V30 48 H 6.634843 3.619472 -16.508800 0
M  V30 49 H 9.218362 3.765096 -20.477632 0
M  V30 50 H 8.501464 2.742911 -19.326156 0
M  V30 51 H 11.927858 7.775291 -19.148607 0
M  V30 52 H 12.093641 6.925236 -20.668984 0
M  V30 53 H 16.166042 7.645042 -17.186451 0
M  V30 54 H 16.343238 6.769638 -18.701987 0
M  V30 55 H 10.116196 5.661486 -20.068169 0
M  V30 56 H 9.973436 6.387682 -18.525915 0
M  V30 57 H 14.558502 4.999492 -18.076176 0
M  V30 58 H 7.576517 5.369311 -7.898932 0
M  V30 59 H 9.252828 5.798538 -7.267219 0
M  V30 60 H 12.322639 4.634305 -17.031877 0
M  V30 61 H 12.069526 6.354534 -16.912192 0
M  V30 62 H 14.397149 0.740672 -18.770695 0
M  V30 63 H 13.912238 2.267929 -18.038995 0
M  V30 64 H 13.595677 1.965348 -19.746651 0
M  V30 65 H 16.694903 9.099122 -19.350875 0
M  V30 66 H 7.987404 -1.919014 -18.884778 0
M  V30 67 H 8.419489 -2.076908 -17.185186 0
M  V30 68 H 9.423365 -1.106756 -18.273107 0
M  V30 69 H 12.382969 4.781052 -19.501216 0
M  V30 70 H 10.379273 1.527341 -20.310044 0
M  V30 71 H 11.438271 2.907582 -20.218824 0
M  V30 72 H 9.729114 4.890704 -11.314013 0
M  V30 73 H 12.356290 0.393820 -17.427027 0
M  V30 74 H 12.002900 0.107909 -19.108892 0
M  V30 75 H 8.634832 -0.082567 -15.965291 0
M  V30 76 H 6.126148 2.447228 -14.433521 0
M  V30 77 H 14.288812 4.826047 -15.560649 0
M  V30 78 H 14.218990 6.577709 -15.465627 0
M  V30 79 H 15.689796 5.770243 -16.013250 0
M  V30 80 H 9.315170 2.611274 -12.425390 0
M  V30 81 H 8.073785 4.688244 -13.224333 0
M  V30 82 H 6.530223 3.912043 -12.916243 0
M  V30 83 H 6.458534 1.246463 -12.646084 0
M  V30 84 H 8.085724 0.365087 -12.467370 0
M  V30 85 H 8.895936 1.370232 -14.238385 0
M  V30 END ATOM
M  V30 BEGIN BOND
M  V30 1 1 9 5
M  V30 2 1 12 1
M  V30 3 1 13 5
M  V30 4 2 14 8
M  V30 5 1 14 11
M  V30 6 1 15 9
M  V30 7 1 16 1
M  V30 8 1 17 9
M  V30 9 1 19 6
M  V30 10 1 20 7
M  V30 11 1 21 17
M  V30 12 1 23 15
M  V30 13 1 24 3
M  V30 14 1 25 13
M  V30 15 1 25 16
M  V30 16 1 25 21
M  V30 17 1 26 4
M  V30 18 1 26 12
M  V30 19 1 28 2
M  V30 20 1 28 6
M  V30 21 1 29 1
M  V30 22 1 29 14
M  V30 23 2 29 18
M  V30 24 1 30 4
M  V30 25 1 30 22
M  V30 26 1 31 3
M  V30 27 1 31 7
M  V30 28 1 31 8
M  V30 29 1 32 7
M  V30 30 1 32 10
M  V30 31 1 32 11
M  V30 32 1 33 17
M  V30 33 1 34 5
M  V30 34 1 34 23
M  V30 35 1 35 10
M  V30 36 1 36 4
M  V30 37 1 36 8
M  V30 38 1 37 6
M  V30 39 1 37 19
M  V30 40 1 37 27 CFG=3
M  V30 41 1 37 28
M  V30 42 1 38 23
M  V30 43 1 39 2
M  V30 44 1 39 35
M  V30 45 1 40 10
M  V30 46 1 40 35
M  V30 47 1 41 2
M  V30 48 1 42 2
M  V30 49 1 4 43 CFG=1
M  V30 50 1 5 44 CFG=3
M  V30 51 1 6 45 CFG=1
M  V30 52 1 7 46 CFG=3
M  V30 53 1 47 11
M  V30 54 1 48 11
M  V30 55 1 49 12
M  V30 56 1 50 12
M  V30 57 1 51 13
M  V30 58 1 52 13
M  V30 59 1 53 15
M  V30 60 1 54 15
M  V30 61 1 55 16
M  V30 62 1 56 16
M  V30 63 1 17 57 CFG=3
M  V30 64 1 58 19
M  V30 65 1 59 19
M  V30 66 1 60 21
M  V30 67 1 61 21
M  V30 68 1 62 22
M  V30 69 1 63 22
M  V30 70 1 64 22
M  V30 71 1 23 65 CFG=3
M  V30 72 1 66 24
M  V30 73 1 67 24
M  V30 74 1 68 24
M  V30 75 1 25 69 CFG=3
M  V30 76 1 70 26
M  V30 77 1 71 26
M  V30 78 1 28 72 CFG=3
M  V30 79 1 73 30
M  V30 80 1 74 30
M  V30 81 1 31 75 CFG=1
M  V30 82 1 32 76 CFG=1
M  V30 83 1 77 33
M  V30 84 1 78 33
M  V30 85 1 79 33
M  V30 86 1 35 80 CFG=1
M  V30 87 1 81 39
M  V30 88 1 82 39
M  V30 89 1 83 40
M  V30 90 1 84 40
M  V30 91 1 10 85 CFG=3
M  V30 END BOND
M  V30 END CTAB
M  END
>  <i_epik_Tot_Q>  (1) 
1

>  <i_epik_Tot_abs_Q>  (1) 
1

>  <i_i_glide_confnum>  (1) 
32

>  <i_i_glide_lignum>  (1) 
65

>  <i_i_glide_posenum>  (1) 
321

>  <i_i_glide_rotatable_bonds>  (1) 
8

>  <i_lp_mmshare_version>  (1) 
72125

>  <i_m_source_file_index>  (1) 
25

>  <i_f3d_flags>  (1) 
0

>  <num_sample>  (1) 
50

>  <b_lp_Chiralities_Consistent>  (1) 
1

>  <r_epik_Charging_Adjusted_Penalty>  (1) 
0.63439585009227506

>  <r_epik_Ionization_Penalty>  (1) 
0.31719815469996288

>  <r_epik_Ionization_Penalty_Charging>  (1) 
0.31719792504613759

>  <r_epik_Ionization_Penalty_Neutral>  (1) 
2.2965382529121371e-07

>  <r_epik_State_Penalty>  (1) 
0.31719792504613753

>  <r_glide_ring_energy>  (1) 
0

>  <r_i_docking_score>  (1) 
-3.8166514001628986

>  <r_i_glide_ecoul>  (1) 
-0.87426525952642531

>  <r_i_glide_eff_state_penalty>  (1) 
0.31719792504613753

>  <r_i_glide_einternal>  (1) 
5.695895566719857

>  <r_i_glide_emodel>  (1) 
-42.166376392327123

>  <r_i_glide_emodel_strain>  (1) 
0.27471585967191459

>  <r_i_glide_energy>  (1) 
-35.625342784180141

>  <r_i_glide_erotb>  (1) 
0.23102689348128655

>  <r_i_glide_esite>  (1) 
-0.055768631177602071

>  <r_i_glide_evdw>  (1) 
-34.751077524653716

>  <r_i_glide_gscore>  (1) 
-4.1338493252090363

>  <r_i_glide_gscore_strain>  (1) 
0

>  <r_i_glide_hbond>  (1) 
0

>  <r_i_glide_ligand_efficiency>  (1) 
-0.095416285004072468

>  <r_i_glide_ligand_efficiency_ln>  (1) 
-0.81397942461801609

>  <r_i_glide_ligand_efficiency_sa>  (1) 
-0.32631910455642471

>  <r_i_glide_lipo>  (1) 
-1.8510736197309525

>  <r_i_glide_metal>  (1) 
-0

>  <r_i_glide_rewards>  (1) 
-0.58934030262011872

>  <r_lp_Energy>  (1) 
53.388234999999995

>  <s_epik_Chemistry_Notes>  (1) 
This compound contains an acetal/aminal-like group ( X-CH(R)-Y where X, Y are N, S, or O) that may be acid/base labile, releasing an aldehyde.

>  <s_epik_cmdline>  (1) 
J2VwaWtfcHl0aG9uJywgJy1waHQnLCAnMS4wJywgJy1waCcsICc3LjQnLCAnLXRuJywgJzgnLCAnLW1hJywgJzUwMCcsICctaW1hZScsICc8aW5maWxlLm1hZT4nLCAnLW9tYWUnLCAnPG91dGZpbGUubWFlPic=

>  <s_epik_input>  (1) 
UzFbQ0BASF0oQ2wpW0NIMl1OKFtDQEhdMTIpW0NAQEhdKFtDSDNdKVtDSDJdW0NASF0oW0NIMl0yKVtDSDJdTihbQ0gyXVtDSDJdW0NAQEhdKE8zKVtDSDJdW0NIM10pQyg9TylDKD1DMzQpW0NIMl1bQ0BASF0oW0NASF0oRilbQ0BIXTRPW0NIM10pTjVbQ0BIXShbQ0gyXTUpW0NIMl1bQ0gyXVtDQEBIXTZbQ0hdKFtDSDJdNylDNjdG

>  <s_glide_docking_method>  (1) 
confgen

>  <s_i_glide_gridfile>  (1) 
gpcr_drd2_6luq_protein_autoprepared_prepared

>  <s_lp_Force_Field>  (1) 
S-OPLS

>  <s_lp_Variant>  (1) 
DiffSBDD_24_num_sample_50-2

>  <s_m_source_file>  (1) 
generated__ligand_DiffSBDD_2026-05-06_prepared.sdf

>  <GenAI_Model>  (1) 
DiffSBDD

>  <Protein>  (1) 
generic_title2

$$$$
DiffSBDD_47_num_sample_50
     RDKit          3D

  0  0  0  0  0  0  0  0  0  0999 V3000
M  V30 BEGIN CTAB
M  V30 COUNTS 61 63 0 0 1
M  V30 BEGIN ATOM
M  V30 1 C 6.951624 6.336153 -20.238656 0
M  V30 2 C 8.964950 4.169259 -11.293985 0
M  V30 3 O 9.034662 6.184417 -10.016689 0
M  V30 4 N 8.042309 4.026692 -17.663747 0
M  V30 5 C 6.458051 1.258508 -12.690429 0
M  V30 6 O 6.634944 4.463417 -17.891619 0
M  V30 7 N 9.006982 6.968242 -20.741535 0
M  V30 8 C 8.250670 2.736438 -15.495965 0
M  V30 9 C 8.596975 5.504277 -11.116894 0
M  V30 10 C 6.015627 0.789053 -15.083963 0
M  V30 11 O 8.888855 1.908467 -17.621420 0
M  V30 12 C 7.302368 5.435967 -13.212030 0
M  V30 13 C 7.647790 4.032138 -13.357582 0
M  V30 14 C 4.995949 7.408417 -19.084689 0
M  V30 15 O 7.487190 7.478424 -11.891707 0
M  V30 16 N 7.742056 7.317622 -20.855446 0
M  V30 17 F 5.987860 7.354477 -13.836217 0
M  V30 18 C 7.937443 2.737990 -17.026349 0 CFG=2
M  V30 19 C 6.475266 6.203083 -14.288855 0
M  V30 20 C 5.457336 6.447870 -20.187413 0
M  V30 21 C 8.502076 3.438744 -12.400017 0
M  V30 22 C 5.212487 5.675337 -14.915508 0
M  V30 23 N 9.006491 5.790867 -20.069473 0
M  V30 24 C 7.789376 6.151764 -12.068461 0
M  V30 25 C 8.559849 0.527901 -17.683662 0
M  V30 26 C 7.755791 5.365662 -19.740147 0
M  V30 27 C 6.235274 1.921058 -14.056006 0
M  V30 28 C 7.434924 6.569270 -15.390832 0
M  V30 29 C 7.469295 4.105194 -18.994595 0 CFG=1
M  V30 30 C 7.118215 3.150443 -14.538876 0 CFG=2
M  V30 31 H 9.601222 3.690117 -10.565997 0
M  V30 32 H 8.418140 6.859816 -9.741093 0
M  V30 33 H 7.447707 0.816176 -12.585968 0
M  V30 34 H 5.746842 0.444893 -12.534643 0
M  V30 35 H 6.250185 1.967881 -11.891645 0
M  V30 36 H 8.634821 1.768545 -15.183427 0
M  V30 37 H 9.034794 3.482043 -15.408257 0
M  V30 38 H 6.900677 0.161084 -15.177808 0
M  V30 39 H 5.742257 1.144706 -16.072830 0
M  V30 40 H 5.204912 0.131033 -14.766574 0
M  V30 41 H 3.910473 7.495009 -19.059610 0
M  V30 42 H 5.403452 8.407552 -19.241913 0
M  V30 43 H 5.324280 7.065049 -18.103197 0
M  V30 44 H 7.304221 7.712590 -10.972765 0
M  V30 45 H 6.953024 2.322976 -17.233073 0
M  V30 46 H 5.008896 5.468222 -20.023792 0
M  V30 47 H 5.078663 6.793555 -21.149958 0
M  V30 48 H 8.796400 2.407779 -12.509009 0
M  V30 49 H 5.434632 5.157957 -15.834329 0
M  V30 50 H 4.634935 6.491103 -15.336181 0
M  V30 51 H 4.629745 5.089318 -14.210740 0
M  V30 52 H 9.317516 0.008526 -18.270265 0
M  V30 53 H 7.594719 0.364271 -18.165309 0
M  V30 54 H 8.546368 0.067781 -16.697355 0
M  V30 55 H 9.864436 5.307238 -19.846125 0
M  V30 56 H 5.281935 2.381832 -13.852663 0
M  V30 57 H 7.900167 5.697994 -15.830973 0
M  V30 58 H 8.234534 7.138112 -14.940587 0
M  V30 59 H 6.957943 7.155009 -16.175113 0
M  V30 60 H 7.161001 3.240244 -19.578902 0
M  V30 61 H 6.488793 3.692066 -15.190166 0
M  V30 END ATOM
M  V30 BEGIN BOND
M  V30 1 1 6 4
M  V30 2 2 9 2
M  V30 3 1 9 3
M  V30 4 1 13 12
M  V30 5 1 16 1
M  V30 6 2 16 7
M  V30 7 1 18 4
M  V30 8 1 18 8
M  V30 9 1 18 11
M  V30 10 1 19 12
M  V30 11 1 19 17
M  V30 12 1 20 1
M  V30 13 1 20 14
M  V30 14 1 21 2
M  V30 15 2 21 13
M  V30 16 1 22 19
M  V30 17 1 23 7
M  V30 18 1 24 9
M  V30 19 2 24 12
M  V30 20 1 24 15
M  V30 21 1 25 11
M  V30 22 2 26 1
M  V30 23 1 26 23
M  V30 24 1 27 5
M  V30 25 1 27 10
M  V30 26 1 28 19
M  V30 27 1 29 4
M  V30 28 1 29 6
M  V30 29 1 29 26
M  V30 30 1 30 8
M  V30 31 1 30 13
M  V30 32 1 30 27
M  V30 33 1 31 2
M  V30 34 1 32 3
M  V30 35 1 33 5
M  V30 36 1 34 5
M  V30 37 1 35 5
M  V30 38 1 36 8
M  V30 39 1 37 8
M  V30 40 1 38 10
M  V30 41 1 39 10
M  V30 42 1 40 10
M  V30 43 1 41 14
M  V30 44 1 42 14
M  V30 45 1 43 14
M  V30 46 1 44 15
M  V30 47 1 18 45 CFG=1
M  V30 48 1 46 20
M  V30 49 1 47 20
M  V30 50 1 48 21
M  V30 51 1 49 22
M  V30 52 1 50 22
M  V30 53 1 51 22
M  V30 54 1 52 25
M  V30 55 1 53 25
M  V30 56 1 54 25
M  V30 57 1 55 23
M  V30 58 1 56 27
M  V30 59 1 57 28
M  V30 60 1 58 28
M  V30 61 1 59 28
M  V30 62 1 29 60 CFG=3
M  V30 63 1 30 61 CFG=3
M  V30 END BOND
M  V30 END CTAB
M  END
>  <i_epik_Tot_Q>  (1) 
0

>  <i_epik_Tot_abs_Q>  (1) 
0

>  <i_i_glide_confnum>  (1) 
27

>  <i_i_glide_lignum>  (1) 
115

>  <i_i_glide_posenum>  (1) 
93

>  <i_i_glide_rotatable_bonds>  (1) 
11

>  <i_lp_mmshare_version>  (1) 
72125

>  <i_m_source_file_index>  (1) 
48

>  <i_f3d_flags>  (1) 
0

>  <num_sample>  (1) 
50

>  <b_lp_Chiralities_Consistent>  (1) 
1

>  <r_epik_Charging_Adjusted_Penalty>  (1) 
0.72670062587857698

>  <r_epik_Ionization_Penalty>  (1) 
0.0032694115883081043

>  <r_epik_Ionization_Penalty_Charging>  (1) 
0

>  <r_epik_Ionization_Penalty_Neutral>  (1) 
0.0032694115883081043

>  <r_epik_State_Penalty>  (1) 
0.72670062587857698

>  <r_glide_ring_energy>  (1) 
0

>  <r_i_docking_score>  (1) 
-3.8163590295742336

>  <r_i_glide_ecoul>  (1) 
-10.185524020788705

>  <r_i_glide_eff_state_penalty>  (1) 
0.72670062587857698

>  <r_i_glide_einternal>  (1) 
9.2532582324514827

>  <r_i_glide_emodel>  (1) 
-22.786068371526021

>  <r_i_glide_emodel_strain>  (1) 
5.6767750448029162

>  <r_i_glide_energy>  (1) 
-21.990308536063655

>  <r_i_glide_erotb>  (1) 
0.55490112727109764

>  <r_i_glide_esite>  (1) 
0

>  <r_i_glide_evdw>  (1) 
-11.80478451527495

>  <r_i_glide_gscore>  (1) 
-4.5430596554528107

>  <r_i_glide_gscore_strain>  (1) 
0.41919376120072904

>  <r_i_glide_hbond>  (1) 
-0.30399999999999999

>  <r_i_glide_ligand_efficiency>  (1) 
-0.12721196765247444

>  <r_i_glide_ligand_efficiency_ln>  (1) 
-0.86711835408139493

>  <r_i_glide_ligand_efficiency_sa>  (1) 
-0.39527716103611948

>  <r_i_glide_lipo>  (1) 
-1.7567353190165442

>  <r_i_glide_metal>  (1) 
-0

>  <r_i_glide_rewards>  (1) 
-1.3383513960260396

>  <r_lp_Energy>  (1) 
27.508982

>  <r_lp_tautomer_probability>  (1) 
0.17382617382613486

>  <s_epik_Chemistry_Notes>  (1) 
This compound contains an acetal/aminal-like group ( X-CH(R)-Y where X, Y are N, S, or O) that may be acid/base labile, releasing an aldehyde. This compound has a N-S or N-O group and may undergo hydrolysis at high or low pH.

>  <s_epik_cmdline>  (1) 
J2VwaWtfcHl0aG9uJywgJy1waHQnLCAnMS4wJywgJy1waCcsICc3LjQnLCAnLXRuJywgJzgnLCAnLW1hJywgJzUwMCcsICctaW1hZScsICc8aW5maWxlLm1hZT4nLCAnLW9tYWUnLCAnPG91dGZpbGUubWFlPic=

>  <s_epik_input>  (1) 
W0NIM11bQ0gyXUMxPU5OPU5bQ0BIXTFbQ0BASF0yT04yW0NAQEhdKE9bQ0gzXSlbQ0gyXVtDQEBIXShbQ0hdKFtDSDNdKVtDSDNdKUMoQyhDKEYpKFtDSDNdKVtDSDNdKT1DM1tPSF0pPVtDSF1bQ0gyXUMzPU8=

>  <s_glide_docking_method>  (1) 
confgen

>  <s_i_glide_gridfile>  (1) 
gpcr_drd2_6luq_protein_autoprepared_prepared

>  <s_lp_Force_Field>  (1) 
S-OPLS

>  <s_lp_Variant>  (1) 
DiffSBDD_47_num_sample_50-2

>  <s_m_source_file>  (1) 
generated__ligand_DiffSBDD_2026-05-06_prepared.sdf

>  <GenAI_Model>  (1) 
DiffSBDD

>  <Protein>  (1) 
generic_title2

$$$$
DiffSBDD_24_num_sample_50
     RDKit          3D

  0  0  0  0  0  0  0  0  0  0999 V3000
M  V30 BEGIN CTAB
M  V30 COUNTS 85 91 0 0 1
M  V30 BEGIN ATOM
M  V30 1 N 8.352205 1.073357 -19.719307 0
M  V30 2 C 9.205583 3.870185 -12.350677 0
M  V30 3 O 5.153839 -1.677177 -16.816717 0
M  V30 4 C 7.877410 -1.632580 -19.471033 0 CFG=2
M  V30 5 C 7.716239 5.053681 -21.734288 0 CFG=1
M  V30 6 C 10.057495 6.279597 -11.742694 0 CFG=2
M  V30 7 C 5.577772 0.468382 -15.598826 0 CFG=2
M  V30 8 C 7.205860 -0.461128 -17.321535 0
M  V30 9 N 8.203261 5.757709 -20.548936 0
M  V30 10 N 7.615553 0.832010 -14.193196 0 CFG=1 CHG=1
M  V30 11 C 7.426158 1.909975 -16.473008 0
M  V30 12 C 6.976332 0.684087 -20.079458 0
M  V30 13 C 7.716366 3.547205 -21.456566 0
M  V30 14 C 7.788845 0.780617 -17.427263 0
M  V30 15 C 7.894959 7.165552 -20.776796 0
M  V30 16 C 9.209392 1.514080 -20.834336 0
M  V30 17 C 9.620570 5.442959 -20.324251 0 CFG=2
M  V30 18 O 9.984007 1.372454 -18.151954 0
M  V30 19 C 9.212320 6.768009 -10.584179 0
M  V30 20 F 4.818867 0.169149 -14.546369 0
M  V30 21 C 9.717437 3.933440 -20.000079 0
M  V30 22 C 8.402349 -3.518689 -21.151533 0
M  V30 23 C 6.407276 7.208381 -21.145381 0 CFG=1
M  V30 24 C 4.234750 -1.133218 -17.745891 0
M  V30 25 C 9.136915 3.044577 -21.122293 0 CFG=2
M  V30 26 C 6.910538 -0.817533 -20.343602 0
M  V30 27 F 8.198231 7.485868 -12.686817 0
M  V30 28 C 9.352289 5.337840 -12.700246 0 CFG=2
M  V30 29 C 8.823811 1.068501 -18.429085 0
M  V30 30 C 7.790611 -3.135267 -19.797505 0
M  V30 31 C 6.136040 -0.791540 -16.291392 0 CFG=2
M  V30 32 C 6.693159 1.453412 -15.189451 0 CFG=1
M  V30 33 C 10.212474 6.273350 -19.170862 0
M  V30 34 S 6.060373 5.700550 -22.067506 0
M  V30 35 C 8.329076 1.628659 -13.186651 0 CFG=1
M  V30 36 O 7.555849 -1.567343 -18.089810 0
M  V30 37 C 8.598022 6.403191 -11.923747 0 CFG=1
M  V30 38 Cl 5.406666 7.263757 -19.669137 0
M  V30 39 C 8.230879 3.148844 -13.292161 0
M  V30 40 C 7.151903 0.764058 -12.812183 0
M  V30 41 H 10.192404 3.416088 -12.420125 0
M  V30 42 H 8.887996 3.767550 -11.312185 0
M  V30 43 H 8.919997 -1.353356 -19.622462 0
M  V30 44 H 8.347153 5.288546 -22.593715 0
M  V30 45 H 10.691303 7.031821 -12.208280 0
M  V30 46 H 4.921248 0.969324 -16.292162 0
M  V30 47 H 8.329831 2.464349 -16.223905 0
M  V30 48 H 6.796808 2.604084 -17.029585 0
M  V30 49 H 6.666978 1.173314 -21.000356 0
M  V30 50 H 6.229739 1.011896 -19.357803 0
M  V30 51 H 7.040189 3.360312 -20.622437 0
M  V30 52 H 7.320347 3.013609 -22.320763 0
M  V30 53 H 8.093900 7.768794 -19.893284 0
M  V30 54 H 8.503018 7.549605 -21.597922 0
M  V30 55 H 10.246461 1.220659 -20.663626 0
M  V30 56 H 8.917384 0.971624 -21.734373 0
M  V30 57 H 10.188564 5.657826 -21.230784 0
M  V30 58 H 9.047727 6.080054 -9.757222 0
M  V30 59 H 9.253067 7.821904 -10.315874 0
M  V30 60 H 10.755686 3.656678 -19.814320 0
M  V30 61 H 9.179306 3.756999 -19.069048 0
M  V30 62 H 8.396213 -4.600515 -21.283892 0
M  V30 63 H 9.435880 -3.181432 -21.225632 0
M  V30 64 H 7.845945 -3.084958 -21.981605 0
M  V30 65 H 6.163855 8.089289 -21.738219 0
M  V30 66 H 3.775378 -1.939032 -18.317856 0
M  V30 67 H 4.692321 -0.440126 -18.447654 0
M  V30 68 H 3.443581 -0.615604 -17.209667 0
M  V30 69 H 9.751306 3.217653 -22.007382 0
M  V30 70 H 5.887081 -1.179057 -20.244455 0
M  V30 71 H 7.176019 -0.977171 -21.388012 0
M  V30 72 H 9.541458 5.525393 -13.755720 0
M  V30 73 H 8.309694 -3.695433 -19.019200 0
M  V30 74 H 6.752512 -3.467235 -19.751560 0
M  V30 75 H 6.634693 -1.344713 -15.518688 0
M  V30 76 H 6.234865 2.332144 -14.741881 0
M  V30 77 H 11.228280 5.948727 -18.944384 0
M  V30 78 H 9.623270 6.168068 -18.259543 0
M  V30 79 H 10.270484 7.333255 -19.418793 0
M  V30 80 H 9.330585 1.214601 -13.091489 0
M  V30 81 H 8.461023 3.455288 -14.309569 0
M  V30 82 H 7.213395 3.479377 -13.079277 0
M  V30 83 H 6.172637 1.215950 -12.667442 0
M  V30 84 H 7.313775 -0.230347 -12.403995 0
M  V30 85 H 8.094387 -0.012360 -14.475789 0
M  V30 END ATOM
M  V30 BEGIN BOND
M  V30 1 1 9 5
M  V30 2 1 12 1
M  V30 3 1 13 5
M  V30 4 2 14 8
M  V30 5 1 14 11
M  V30 6 1 15 9
M  V30 7 1 16 1
M  V30 8 1 17 9
M  V30 9 1 19 6
M  V30 10 1 20 7
M  V30 11 1 21 17
M  V30 12 1 23 15
M  V30 13 1 24 3
M  V30 14 1 25 13
M  V30 15 1 25 16
M  V30 16 1 25 21
M  V30 17 1 26 4
M  V30 18 1 26 12
M  V30 19 1 28 2
M  V30 20 1 28 6
M  V30 21 1 29 1
M  V30 22 1 29 14
M  V30 23 2 29 18
M  V30 24 1 30 4
M  V30 25 1 30 22
M  V30 26 1 31 3
M  V30 27 1 31 7
M  V30 28 1 31 8
M  V30 29 1 32 7
M  V30 30 1 32 10
M  V30 31 1 32 11
M  V30 32 1 33 17
M  V30 33 1 34 5
M  V30 34 1 34 23
M  V30 35 1 35 10
M  V30 36 1 36 4
M  V30 37 1 36 8
M  V30 38 1 37 6
M  V30 39 1 37 19
M  V30 40 1 37 27 CFG=3
M  V30 41 1 37 28
M  V30 42 1 38 23
M  V30 43 1 39 2
M  V30 44 1 39 35
M  V30 45 1 40 10
M  V30 46 1 40 35
M  V30 47 1 41 2
M  V30 48 1 42 2
M  V30 49 1 4 43 CFG=1
M  V30 50 1 5 44 CFG=3
M  V30 51 1 6 45 CFG=3
M  V30 52 1 7 46 CFG=3
M  V30 53 1 47 11
M  V30 54 1 48 11
M  V30 55 1 49 12
M  V30 56 1 50 12
M  V30 57 1 51 13
M  V30 58 1 52 13
M  V30 59 1 53 15
M  V30 60 1 54 15
M  V30 61 1 55 16
M  V30 62 1 56 16
M  V30 63 1 17 57 CFG=3
M  V30 64 1 58 19
M  V30 65 1 59 19
M  V30 66 1 60 21
M  V30 67 1 61 21
M  V30 68 1 62 22
M  V30 69 1 63 22
M  V30 70 1 64 22
M  V30 71 1 23 65 CFG=3
M  V30 72 1 66 24
M  V30 73 1 67 24
M  V30 74 1 68 24
M  V30 75 1 25 69 CFG=3
M  V30 76 1 70 26
M  V30 77 1 71 26
M  V30 78 1 28 72 CFG=3
M  V30 79 1 73 30
M  V30 80 1 74 30
M  V30 81 1 31 75 CFG=1
M  V30 82 1 32 76 CFG=1
M  V30 83 1 77 33
M  V30 84 1 78 33
M  V30 85 1 79 33
M  V30 86 1 35 80 CFG=1
M  V30 87 1 81 39
M  V30 88 1 82 39
M  V30 89 1 83 40
M  V30 90 1 84 40
M  V30 91 1 10 85 CFG=3
M  V30 END BOND
M  V30 END CTAB
M  END
>  <i_epik_Tot_Q>  (1) 
1

>  <i_epik_Tot_abs_Q>  (1) 
1

>  <i_i_glide_confnum>  (1) 
151

>  <i_i_glide_lignum>  (1) 
65

>  <i_i_glide_posenum>  (1) 
361

>  <i_i_glide_rotatable_bonds>  (1) 
8

>  <i_lp_mmshare_version>  (1) 
72125

>  <i_m_source_file_index>  (1) 
25

>  <i_f3d_flags>  (1) 
0

>  <num_sample>  (1) 
50

>  <b_lp_Chiralities_Consistent>  (1) 
1

>  <r_epik_Charging_Adjusted_Penalty>  (1) 
0.63439585009227506

>  <r_epik_Ionization_Penalty>  (1) 
0.31719815469996288

>  <r_epik_Ionization_Penalty_Charging>  (1) 
0.31719792504613759

>  <r_epik_Ionization_Penalty_Neutral>  (1) 
2.2965382529121371e-07

>  <r_epik_State_Penalty>  (1) 
0.31719792504613753

>  <r_glide_ring_energy>  (1) 
0

>  <r_i_docking_score>  (1) 
-3.8144645315158821

>  <r_i_glide_ecoul>  (1) 
-2.5869175082366773

>  <r_i_glide_eff_state_penalty>  (1) 
0.31719792504613753

>  <r_i_glide_einternal>  (1) 
6.424833732049839

>  <r_i_glide_emodel>  (1) 
-37.889743885886368

>  <r_i_glide_emodel_strain>  (1) 
0.35616644441140011

>  <r_i_glide_energy>  (1) 
-31.799742186754603

>  <r_i_glide_erotb>  (1) 
0.23102689348128655

>  <r_i_glide_esite>  (1) 
-0.091076253494756509

>  <r_i_glide_evdw>  (1) 
-29.212824678517926

>  <r_i_glide_gscore>  (1) 
-4.1316624565620197

>  <r_i_glide_gscore_strain>  (1) 
0

>  <r_i_glide_hbond>  (1) 
0

>  <r_i_glide_ligand_efficiency>  (1) 
-0.095361613287897051

>  <r_i_glide_ligand_efficiency_ln>  (1) 
-0.81351302989227881

>  <r_i_glide_ligand_efficiency_sa>  (1) 
-0.32613212991717777

>  <r_i_glide_lipo>  (1) 
-2.0053436964524067

>  <r_i_glide_metal>  (1) 
-0

>  <r_i_glide_rewards>  (1) 
-0.41759053993474526

>  <r_lp_Energy>  (1) 
53.388234999999995

>  <s_epik_Chemistry_Notes>  (1) 
This compound contains an acetal/aminal-like group ( X-CH(R)-Y where X, Y are N, S, or O) that may be acid/base labile, releasing an aldehyde.

>  <s_epik_cmdline>  (1) 
J2VwaWtfcHl0aG9uJywgJy1waHQnLCAnMS4wJywgJy1waCcsICc3LjQnLCAnLXRuJywgJzgnLCAnLW1hJywgJzUwMCcsICctaW1hZScsICc8aW5maWxlLm1hZT4nLCAnLW9tYWUnLCAnPG91dGZpbGUubWFlPic=

>  <s_epik_input>  (1) 
UzFbQ0BASF0oQ2wpW0NIMl1OKFtDQEhdMTIpW0NAQEhdKFtDSDNdKVtDSDJdW0NASF0oW0NIMl0yKVtDSDJdTihbQ0gyXVtDSDJdW0NAQEhdKE8zKVtDSDJdW0NIM10pQyg9TylDKD1DMzQpW0NIMl1bQ0BASF0oW0NASF0oRilbQ0BIXTRPW0NIM10pTjVbQ0BIXShbQ0gyXTUpW0NIMl1bQ0gyXVtDQEBIXTZbQ0hdKFtDSDJdNylDNjdG

>  <s_glide_docking_method>  (1) 
confgen

>  <s_i_glide_gridfile>  (1) 
gpcr_drd2_6luq_protein_autoprepared_prepared

>  <s_lp_Force_Field>  (1) 
S-OPLS

>  <s_lp_Variant>  (1) 
DiffSBDD_24_num_sample_50-2

>  <s_m_source_file>  (1) 
generated__ligand_DiffSBDD_2026-05-06_prepared.sdf

>  <GenAI_Model>  (1) 
DiffSBDD

>  <Protein>  (1) 
generic_title2

$$$$
DiffSBDD_43_num_sample_50
     RDKit          3D

  0  0  0  0  0  0  0  0  0  0999 V3000
M  V30 BEGIN CTAB
M  V30 COUNTS 58 58 0 0 1
M  V30 BEGIN ATOM
M  V30 1 C 9.154699 5.090747 -12.418913 0
M  V30 2 C 11.104749 7.037603 -5.248049 0
M  V30 3 N 8.845215 4.877896 -17.310030 0
M  V30 4 O 5.506108 5.684571 -13.986716 0
M  V30 5 C 9.641702 5.760159 -10.058462 0
M  V30 6 C 10.520965 6.607482 -7.788425 0 CFG=2
M  V30 7 C 6.315951 5.053830 -11.779322 0 CFG=1
M  V30 8 O 9.288419 8.207980 -6.390339 0
M  V30 9 O 12.234802 9.368459 -2.826575 0
M  V30 10 N 7.273305 5.369291 -10.721508 0
M  V30 11 C 12.049644 8.905046 -3.891802 0
M  V30 12 F 5.172850 4.724137 -11.197448 0
M  V30 13 O 9.265522 5.761358 -13.468046 0
M  V30 14 C 7.385779 6.304003 -18.737460 0
M  V30 15 C 7.884449 4.140962 -16.499845 0 CFG=1
M  V30 16 C 6.026413 6.211132 -12.775954 0
M  V30 17 C 8.601427 5.825300 -11.183151 0 CFG=2
M  V30 18 C 9.335382 6.550204 -8.781732 0
M  V30 19 O 6.581645 4.819285 -14.585964 0
M  V30 20 C 10.033692 7.009058 -6.366469 0 CFG=2
M  V30 21 F 9.481254 5.541715 -19.364126 0
M  V30 22 C 6.737244 4.971652 -15.941783 0
M  V30 23 C 11.831782 8.368743 -5.069757 0
M  V30 24 O 9.430575 3.877499 -12.294985 0 CHG=-1
M  V30 25 C 5.917171 5.769322 -16.665458 0
M  V30 26 C 6.001386 5.952398 -18.172983 0
M  V30 27 C 11.726871 7.416114 -8.339866 0
M  V30 28 C 11.440698 8.872744 -8.682816 0
M  V30 29 F 7.434967 3.081099 -17.173611 0
M  V30 30 C 8.409776 5.166958 -18.667289 0 CFG=1
M  V30 31 H 10.634674 6.767716 -4.300835 0
M  V30 32 H 11.834976 6.250812 -5.435043 0
M  V30 33 H 9.168050 5.699465 -16.818445 0
M  V30 34 H 10.541829 6.179454 -10.494519 0
M  V30 35 H 9.834796 4.718929 -9.796659 0
M  V30 36 H 10.881629 5.583384 -7.682510 0
M  V30 37 H 6.642569 4.144984 -12.284384 0
M  V30 38 H 8.506007 8.053539 -6.907151 0
M  V30 39 H 6.880967 6.070860 -10.096684 0
M  V30 40 H 7.249047 6.553752 -19.790081 0
M  V30 41 H 7.783162 7.210478 -18.291538 0
M  V30 42 H 8.433245 3.737142 -15.646602 0
M  V30 43 H 5.320534 6.920367 -12.343621 0
M  V30 44 H 6.914163 6.785294 -13.032209 0
M  V30 45 H 8.500695 6.874104 -11.463517 0
M  V30 46 H 8.470411 6.096628 -8.296461 0
M  V30 47 H 9.035304 7.560899 -9.046900 0
M  V30 48 H 9.319871 6.238518 -6.069677 0
M  V30 49 H 12.168623 8.858948 -5.967093 0
M  V30 50 H 5.124577 6.308305 -16.170416 0
M  V30 51 H 5.614123 5.053315 -18.654217 0
M  V30 52 H 5.311067 6.754590 -18.435715 0
M  V30 53 H 12.554093 7.371254 -7.633811 0
M  V30 54 H 12.113428 6.969422 -9.251637 0
M  V30 55 H 12.355664 9.369323 -8.999816 0
M  V30 56 H 10.715981 8.974340 -9.490408 0
M  V30 57 H 11.053690 9.369352 -7.802875 0
M  V30 58 H 8.034462 4.267753 -19.158647 0
M  V30 END ATOM
M  V30 BEGIN BOND
M  V30 1 1 10 7
M  V30 2 2 11 9
M  V30 3 1 12 7
M  V30 4 2 13 1
M  V30 5 1 15 3
M  V30 6 1 16 4
M  V30 7 1 16 7
M  V30 8 1 17 1
M  V30 9 1 17 5
M  V30 10 1 17 10
M  V30 11 1 18 5
M  V30 12 1 18 6
M  V30 13 1 19 4
M  V30 14 1 20 2
M  V30 15 1 20 6
M  V30 16 1 20 8
M  V30 17 1 22 15
M  V30 18 1 22 19
M  V30 19 1 23 2
M  V30 20 2 23 11
M  V30 21 1 24 1
M  V30 22 2 25 22
M  V30 23 1 26 14
M  V30 24 1 26 25
M  V30 25 1 27 6
M  V30 26 1 28 27
M  V30 27 1 29 15
M  V30 28 1 30 3
M  V30 29 1 30 14
M  V30 30 1 30 21
M  V30 31 1 31 2
M  V30 32 1 32 2
M  V30 33 1 33 3
M  V30 34 1 34 5
M  V30 35 1 35 5
M  V30 36 1 6 36 CFG=1
M  V30 37 1 7 37 CFG=3
M  V30 38 1 38 8
M  V30 39 1 39 10
M  V30 40 1 40 14
M  V30 41 1 41 14
M  V30 42 1 15 42 CFG=1
M  V30 43 1 43 16
M  V30 44 1 44 16
M  V30 45 1 17 45 CFG=3
M  V30 46 1 46 18
M  V30 47 1 47 18
M  V30 48 1 20 48 CFG=1
M  V30 49 1 49 23
M  V30 50 1 50 25
M  V30 51 1 51 26
M  V30 52 1 52 26
M  V30 53 1 53 27
M  V30 54 1 54 27
M  V30 55 1 55 28
M  V30 56 1 56 28
M  V30 57 1 57 28
M  V30 58 1 30 58 CFG=3
M  V30 END BOND
M  V30 END CTAB
M  END
>  <i_epik_Tot_Q>  (1) 
-1

>  <i_epik_Tot_abs_Q>  (1) 
1

>  <i_i_glide_confnum>  (1) 
4669

>  <i_i_glide_lignum>  (1) 
107

>  <i_i_glide_posenum>  (1) 
212

>  <i_i_glide_rotatable_bonds>  (1) 
15

>  <i_lp_mmshare_version>  (1) 
72125

>  <i_m_source_file_index>  (1) 
44

>  <i_f3d_flags>  (1) 
0

>  <num_sample>  (1) 
50

>  <b_lp_Chiralities_Consistent>  (1) 
1

>  <r_epik_Charging_Adjusted_Penalty>  (1) 
0.10859487374936995

>  <r_epik_Ionization_Penalty>  (1) 
0.10861046635066096

>  <r_epik_Ionization_Penalty_Charging>  (1) 
0.0014700329650535538

>  <r_epik_Ionization_Penalty_Neutral>  (1) 
0.10714043338560741

>  <r_epik_State_Penalty>  (1) 
0.1071248407843164

>  <r_glide_ring_energy>  (1) 
0

>  <r_i_docking_score>  (1) 
-3.8141530787874154

>  <r_i_glide_ecoul>  (1) 
-1.1150959625642471

>  <r_i_glide_eff_state_penalty>  (1) 
0.1071248407843164

>  <r_i_glide_einternal>  (1) 
12.050085978338464

>  <r_i_glide_emodel>  (1) 
-32.599240972658677

>  <r_i_glide_emodel_strain>  (1) 
1.3393474306495925

>  <r_i_glide_energy>  (1) 
-32.912453095108432

>  <r_i_glide_erotb>  (1) 
1.1463316203487632

>  <r_i_glide_esite>  (1) 
-0.043683173760281552

>  <r_i_glide_evdw>  (1) 
-31.797357132544185

>  <r_i_glide_gscore>  (1) 
-3.921277919571732

>  <r_i_glide_gscore_strain>  (1) 
0

>  <r_i_glide_hbond>  (1) 
-0.16065986482999547

>  <r_i_glide_ligand_efficiency>  (1) 
-0.12713843595958052

>  <r_i_glide_ligand_efficiency_ln>  (1) 
-0.8666171380268709

>  <r_i_glide_ligand_efficiency_sa>  (1) 
-0.39504868096974161

>  <r_i_glide_lipo>  (1) 
-2.0233425166176588

>  <r_i_glide_metal>  (1) 
-0

>  <r_i_glide_rewards>  (1) 
-1.0827917337007129

>  <r_lp_Energy>  (1) 
15.498576999999999

>  <s_epik_cmdline>  (1) 
J2VwaWtfcHl0aG9uJywgJy1waHQnLCAnMS4wJywgJy1waCcsICc3LjQnLCAnLXRuJywgJzgnLCAnLW1hJywgJzUwMCcsICctaW1hZScsICc8aW5maWxlLm1hZT4nLCAnLW9tYWUnLCAnPG91dGZpbGUubWFlPic=

>  <s_epik_input>  (1) 
Tz1DPVtDSF1bQ0gyXVtDQEBIXShbT0hdKVtDQEhdKFtDSDJdW0NIM10pW0NIMl1bQ0gyXVtDQEBIXShDKD1PKVtPSF0pW05IXVtDQEBIXShGKVtDSDJdT09DMT1bQ0hdW0NIMl1bQ0gyXVtDQEBIXShGKVtOSF1bQ0BIXTFG

>  <s_glide_docking_method>  (1) 
confgen

>  <s_i_glide_gridfile>  (1) 
gpcr_drd2_6luq_protein_autoprepared_prepared

>  <s_lp_Force_Field>  (1) 
S-OPLS

>  <s_lp_Variant>  (1) 
DiffSBDD_43_num_sample_50-2

>  <s_m_source_file>  (1) 
generated__ligand_DiffSBDD_2026-05-06_prepared.sdf

>  <GenAI_Model>  (1) 
DiffSBDD

>  <Protein>  (1) 
generic_title2

$$$$
DiffSBDD_1_num_sample_50
     RDKit          3D

  0  0  0  0  0  0  0  0  0  0999 V3000
M  V30 BEGIN CTAB
M  V30 COUNTS 72 77 0 0 1
M  V30 BEGIN ATOM
M  V30 1 N 8.476721 5.842352 -13.548281 0
M  V30 2 C 9.126036 8.366357 -7.265953 0
M  V30 3 C 8.786899 3.561443 -18.300662 0
M  V30 4 O 10.562197 2.177706 -19.170428 0
M  V30 5 C 8.510054 5.675088 -11.171470 0
M  V30 6 O 6.241519 5.030978 -13.375723 0
M  V30 7 C 6.868927 4.965855 -17.374136 0
M  V30 8 C 9.187488 4.974865 -14.486843 0
M  V30 9 C 10.632864 0.899958 -18.553033 0
M  V30 10 C 9.283368 2.661519 -19.273597 0
M  V30 11 C 9.145009 5.992578 -9.781197 0
M  V30 12 C 11.968205 8.482315 -8.715112 0
M  V30 13 C 10.197310 7.010290 -12.228428 0
M  V30 14 C 6.648707 3.633174 -19.472263 0
M  V30 15 O 9.298021 2.112943 -22.477979 0
M  V30 16 C 7.456709 4.050072 -18.389569 0
M  V30 17 C 7.325182 4.708914 -11.179432 0 CFG=2
M  V30 18 C 6.056323 5.105234 -11.965158 0
M  V30 19 N 10.252608 6.969501 -9.856113 0
M  V30 20 C 8.960283 5.250587 -15.977986 0 CFG=2
M  V30 21 O 8.939174 1.373086 -21.278868 0
M  V30 22 C 9.033623 6.163948 -12.313674 0
M  V30 23 C 7.499706 5.485797 -16.294741 0
M  V30 24 C 7.147739 2.741267 -20.440484 0
M  V30 25 C 12.845336 8.596438 -7.487610 0
M  V30 26 C 7.056407 6.056309 -13.818587 0 CFG=2
M  V30 27 O 6.947824 4.375597 -9.891571 0
M  V30 28 C 11.233686 7.350642 -6.149221 0 CFG=1
M  V30 29 S 9.828809 4.047171 -16.979525 0
M  V30 30 C 10.724542 7.369274 -11.078172 0
M  V30 31 C 8.462016 2.253000 -20.342768 0
M  V30 32 C 10.205708 7.269041 -7.305011 0 CFG=2
M  V30 33 C 6.765970 6.378012 -15.304466 0
M  V30 34 C 11.005038 7.248640 -8.622193 0 CFG=2
M  V30 35 C 12.001656 8.697996 -6.210421 0
M  V30 36 C 10.635229 6.998383 -4.813281 0
M  V30 37 H 9.499693 9.367193 -7.089737 0
M  V30 38 H 8.643936 8.436770 -8.230851 0
M  V30 39 H 8.366727 8.154551 -6.513973 0
M  V30 40 H 5.827895 5.211551 -17.519807 0
M  V30 41 H 8.881921 3.954076 -14.262655 0
M  V30 42 H 10.250037 5.029314 -14.267437 0
M  V30 43 H 11.674848 0.594589 -18.449292 0
M  V30 44 H 10.199487 0.922727 -17.549439 0
M  V30 45 H 10.115440 0.137519 -19.139731 0
M  V30 46 H 8.380105 6.334668 -9.092004 0
M  V30 47 H 9.527954 5.058710 -9.365785 0
M  V30 48 H 12.710523 8.392483 -9.504807 0
M  V30 49 H 11.414908 9.404080 -8.892664 0
M  V30 50 H 10.650082 7.373815 -13.092346 0
M  V30 51 H 5.634444 3.993354 -19.552515 0
M  V30 52 H 8.503816 2.031665 -22.983638 0
M  V30 53 H 7.716812 3.788893 -11.609743 0
M  V30 54 H 5.676481 6.079744 -11.649852 0
M  V30 55 H 5.261851 4.395116 -11.727092 0
M  V30 56 H 9.472932 6.169266 -16.217398 0
M  V30 57 H 6.515841 2.428533 -21.256429 0
M  V30 58 H 13.434946 7.688559 -7.491925 0
M  V30 59 H 13.594772 9.369070 -7.551260 0
M  V30 60 H 6.780793 6.958152 -13.266263 0
M  V30 61 H 6.437587 5.086364 -9.523450 0
M  V30 62 H 11.946013 6.540085 -6.306897 0
M  V30 63 H 11.583911 8.003067 -11.041417 0
M  V30 64 H 9.698533 6.309352 -7.205441 0
M  V30 65 H 7.045002 7.415842 -15.481450 0
M  V30 66 H 5.686317 6.327708 -15.465033 0
M  V30 67 H 11.636859 6.380708 -8.535416 0
M  V30 68 H 12.617336 8.927109 -5.335247 0
M  V30 69 H 11.345610 9.563188 -6.253376 0
M  V30 70 H 9.835115 7.691146 -4.691691 0
M  V30 71 H 10.225128 5.990977 -4.802492 0
M  V30 72 H 11.344620 7.098568 -3.991801 0
M  V30 END ATOM
M  V30 BEGIN BOND
M  V30 1 1 8 1
M  V30 2 1 9 4
M  V30 3 1 10 3
M  V30 4 1 10 4
M  V30 5 1 11 5
M  V30 6 2 16 3
M  V30 7 1 16 7
M  V30 8 1 16 14
M  V30 9 1 17 5
M  V30 10 1 18 6
M  V30 11 1 18 17
M  V30 12 1 19 11
M  V30 13 1 20 8
M  V30 14 1 21 15
M  V30 15 1 22 1
M  V30 16 2 22 5
M  V30 17 1 22 13
M  V30 18 2 23 7
M  V30 19 1 23 20
M  V30 20 2 24 14
M  V30 21 1 25 12
M  V30 22 1 26 1
M  V30 23 1 26 6
M  V30 24 1 27 17
M  V30 25 1 29 3
M  V30 26 1 29 20
M  V30 27 2 30 13
M  V30 28 1 30 19
M  V30 29 2 31 10
M  V30 30 1 31 21
M  V30 31 1 31 24
M  V30 32 1 32 2
M  V30 33 1 32 28
M  V30 34 1 33 23
M  V30 35 1 33 26
M  V30 36 1 34 12
M  V30 37 1 34 19
M  V30 38 1 34 32
M  V30 39 1 35 25
M  V30 40 1 35 28
M  V30 41 1 36 28
M  V30 42 1 37 2
M  V30 43 1 38 2
M  V30 44 1 39 2
M  V30 45 1 40 7
M  V30 46 1 41 8
M  V30 47 1 42 8
M  V30 48 1 43 9
M  V30 49 1 44 9
M  V30 50 1 45 9
M  V30 51 1 46 11
M  V30 52 1 47 11
M  V30 53 1 48 12
M  V30 54 1 49 12
M  V30 55 1 50 13
M  V30 56 1 51 14
M  V30 57 1 52 15
M  V30 58 1 17 53 CFG=3
M  V30 59 1 54 18
M  V30 60 1 55 18
M  V30 61 1 20 56 CFG=3
M  V30 62 1 57 24
M  V30 63 1 58 25
M  V30 64 1 59 25
M  V30 65 1 26 60 CFG=1
M  V30 66 1 61 27
M  V30 67 1 28 62 CFG=3
M  V30 68 1 63 30
M  V30 69 1 32 64 CFG=1
M  V30 70 1 65 33
M  V30 71 1 66 33
M  V30 72 1 34 67 CFG=1
M  V30 73 1 68 35
M  V30 74 1 69 35
M  V30 75 1 70 36
M  V30 76 1 71 36
M  V30 77 1 72 36
M  V30 END BOND
M  V30 END CTAB
M  END
>  <i_epik_Tot_Q>  (1) 
0

>  <i_epik_Tot_abs_Q>  (1) 
0

>  <i_i_glide_confnum>  (1) 
6

>  <i_i_glide_lignum>  (1) 
4

>  <i_i_glide_posenum>  (1) 
142

>  <i_i_glide_rotatable_bonds>  (1) 
5

>  <i_lp_mmshare_version>  (1) 
72125

>  <i_m_source_file_index>  (1) 
2

>  <i_f3d_flags>  (1) 
0

>  <num_sample>  (1) 
50

>  <b_lp_Chiralities_Consistent>  (1) 
1

>  <r_epik_Charging_Adjusted_Penalty>  (1) 
1.7947178929853217e-12

>  <r_epik_Ionization_Penalty>  (1) 
2.2136665369831182e-05

>  <r_epik_Ionization_Penalty_Charging>  (1) 
1.7947178929853217e-12

>  <r_epik_Ionization_Penalty_Neutral>  (1) 
2.2136663575113287e-05

>  <r_epik_State_Penalty>  (1) 
-0

>  <r_glide_ring_energy>  (1) 
0

>  <r_i_docking_score>  (1) 
-3.8033369832138937

>  <r_i_glide_ecoul>  (1) 
-1.6489222417535023

>  <r_i_glide_eff_state_penalty>  (1) 
-0

>  <r_i_glide_einternal>  (1) 
4.4450711550607931

>  <r_i_glide_emodel>  (1) 
-22.289205581718104

>  <r_i_glide_emodel_strain>  (1) 
4.3937977783264586

>  <r_i_glide_energy>  (1) 
-19.82530472933329

>  <r_i_glide_erotb>  (1) 
0.15600053340392078

>  <r_i_glide_esite>  (1) 
-0.053962674042720385

>  <r_i_glide_evdw>  (1) 
-18.176382487579787

>  <r_i_glide_gscore>  (1) 
-3.8033369832138937

>  <r_i_glide_gscore_strain>  (1) 
0.098449444581614642

>  <r_i_glide_hbond>  (1) 
-0.14774482811787748

>  <r_i_glide_ligand_efficiency>  (1) 
-0.10564824953371926

>  <r_i_glide_ligand_efficiency_ln>  (1) 
-0.82978537544670672

>  <r_i_glide_ligand_efficiency_sa>  (1) 
-0.34884283393340676

>  <r_i_glide_lipo>  (1) 
-1.924831844072366

>  <r_i_glide_metal>  (1) 
-0

>  <r_i_glide_rewards>  (1) 
-0.77509015432445028

>  <r_lp_Energy>  (1) 
70.104143999999991

>  <r_lp_tautomer_probability>  (1) 
1

>  <s_epik_Chemistry_Notes>  (1) 
This compound has an imine and may undergo hydrolysis. This compound contains an acetal/aminal-like group ( X-CH(R)-Y where X, Y are N, S, or O) that may be acid/base labile, releasing an aldehyde.

>  <s_epik_cmdline>  (1) 
J2VwaWtfcHl0aG9uJywgJy1waHQnLCAnMS4wJywgJy1waCcsICc3LjQnLCAnLXRuJywgJzgnLCAnLW1hJywgJzUwMCcsICctaW1hZScsICc8aW5maWxlLm1hZT4nLCAnLW9tYWUnLCAnPG91dGZpbGUubWFlPic=

>  <s_epik_input>  (1) 
W0NIMl0xW0NIMl1bQ0gyXVtDQEBIXShbQ0BIXShbQ0gzXSlbQ0BASF0xW0NIM10pTihbQ0hdPVtDSF0yKVtDSDJdQyg9QzJOMzQpW0NAQEhdKFtPSF0pW0NIMl1PW0NAQEhdNFtDSDJdQzVbQ0BASF0oW0NIMl0zKVNjNmMoW0NIXT01KVtjSF1bY0hdYyhPW09IXSljNk9bQ0gzXQ==

>  <s_glide_docking_method>  (1) 
confgen

>  <s_i_glide_gridfile>  (1) 
gpcr_drd2_6luq_protein_autoprepared_prepared

>  <s_lp_Force_Field>  (1) 
S-OPLS

>  <s_lp_Variant>  (1) 
DiffSBDD_1_num_sample_50-1

>  <s_m_source_file>  (1) 
generated__ligand_DiffSBDD_2026-05-06_prepared.sdf

>  <GenAI_Model>  (1) 
DiffSBDD

>  <Protein>  (1) 
generic_title2

$$$$
DiffSBDD_10_num_sample_50
     RDKit          3D

  0  0  0  0  0  0  0  0  0  0999 V3000
M  V30 BEGIN CTAB
M  V30 COUNTS 72 73 0 0 1
M  V30 BEGIN ATOM
M  V30 1 C 12.868886 3.362613 -19.047111 0 CFG=2
M  V30 2 C 8.923390 6.564640 -12.211429 0
M  V30 3 C 6.446224 2.910545 -13.826093 0
M  V30 4 C 7.890191 3.880536 -17.120386 0 CFG=1
M  V30 5 C 11.693419 4.136667 -19.703207 0 CFG=2
M  V30 6 N 6.555818 7.042778 -12.315506 0
M  V30 7 N 8.652436 3.350940 -19.341834 0
M  V30 8 C 9.377009 4.510663 -18.935308 0 CFG=1
M  V30 9 S 14.613023 3.926588 -19.502269 0
M  V30 10 C 9.297918 7.791871 -11.399201 0
M  V30 11 S 15.413791 2.081667 -20.178798 0 CHG=-1
M  V30 12 C 13.729639 1.630255 -17.320682 0
M  V30 13 O 10.510680 6.169677 -7.606413 0
M  V30 14 O 14.624998 4.835175 -20.656792 0
M  V30 15 C 12.107728 2.771835 -20.215562 0 CFG=2
M  V30 16 C 5.945561 4.125753 -11.602433 0
M  V30 17 C 8.103340 2.738435 -18.144388 0 CFG=2
M  V30 18 N 9.035413 6.569028 -9.244622 0 CHG=1
M  V30 19 N 7.398375 5.118691 -13.347189 0
M  V30 20 C 9.915859 7.456766 -10.033279 0
M  V30 21 C 9.808863 5.670740 -16.707362 0
M  V30 22 C 12.789636 2.805219 -17.619746 0
M  V30 23 C 11.809504 5.390350 -20.564830 0
M  V30 24 C 8.198348 3.434520 -15.674176 0
M  V30 25 C 6.672259 4.131761 -12.966463 0
M  V30 26 O 11.125432 1.787264 -19.940219 0
M  V30 27 C 7.669844 6.269345 -12.601289 0
M  V30 28 O 15.341913 4.289934 -18.275563 0
M  V30 29 F 6.968754 2.097768 -18.427181 0
M  V30 30 N 6.736413 4.569347 -10.464811 0
M  V30 31 C 9.188344 6.636712 -7.778784 0
M  V30 32 C 8.751502 5.053346 -17.646614 0 CFG=2
M  V30 33 O 10.715629 4.217033 -18.661501 0
M  V30 34 C 7.095741 2.614577 -14.995211 0
M  V30 35 H 9.732605 5.902450 -12.480217 0
M  V30 36 H 5.696608 2.229898 -13.449870 0
M  V30 37 H 6.852235 4.211734 -17.167771 0
M  V30 38 H 6.609185 7.828420 -11.678061 0
M  V30 39 H 9.264212 2.690864 -19.814195 0
M  V30 40 H 9.304300 5.268120 -19.709305 0
M  V30 41 H 8.428210 8.427218 -11.240224 0
M  V30 42 H 9.984254 8.391031 -11.990075 0
M  V30 43 H 13.547421 1.250321 -16.318838 0
M  V30 44 H 13.571947 0.813927 -18.024707 0
M  V30 45 H 14.780892 1.914339 -17.360838 0
M  V30 46 H 10.726109 6.199488 -6.685012 0
M  V30 47 H 12.585808 2.685373 -21.189334 0
M  V30 48 H 5.040437 4.729144 -11.674900 0
M  V30 49 H 5.630908 3.112752 -11.367370 0
M  V30 50 H 8.822025 1.996049 -17.792389 0
M  V30 51 H 9.097256 5.614842 -9.569969 0
M  V30 52 H 10.064411 8.393112 -9.490137 0
M  V30 53 H 10.890484 6.981463 -10.150167 0
M  V30 54 H 10.482771 4.920592 -16.289578 0
M  V30 55 H 10.421797 6.404960 -17.227302 0
M  V30 56 H 9.316251 6.169243 -15.879842 0
M  V30 57 H 12.989264 3.618943 -16.922921 0
M  V30 58 H 11.772629 2.475085 -17.414608 0
M  V30 59 H 12.396625 5.188686 -21.461266 0
M  V30 60 H 10.842267 5.720342 -20.937190 0
M  V30 61 H 12.262067 6.205025 -19.995790 0
M  V30 62 H 8.629236 4.214114 -15.073242 0
M  V30 63 H 9.034838 2.757149 -15.816189 0
M  V30 64 H 11.573999 0.968520 -19.788734 0
M  V30 65 H 6.956993 5.540161 -10.652350 0
M  V30 66 H 6.152244 4.574882 -9.633484 0
M  V30 67 H 8.463603 5.986233 -7.286911 0
M  V30 68 H 9.058091 7.657214 -7.415269 0
M  V30 69 H 8.068139 5.847539 -17.949740 0
M  V30 70 H 6.821825 1.705705 -15.509894 0
M  V30 71 H 5.625916 6.742874 -12.567626 0
M  V30 72 H 8.085648 6.928782 -9.415831 0
M  V30 END ATOM
M  V30 BEGIN BOND
M  V30 1 1 5 1
M  V30 2 1 8 7
M  V30 3 1 9 1
M  V30 4 1 10 2
M  V30 5 1 11 9
M  V30 6 2 14 9
M  V30 7 1 15 1
M  V30 8 1 15 5
M  V30 9 1 17 4
M  V30 10 1 17 7
M  V30 11 1 20 10
M  V30 12 1 20 18
M  V30 13 1 1 22 CFG=1
M  V30 14 1 22 12
M  V30 15 1 23 5
M  V30 16 1 24 4
M  V30 17 1 25 3
M  V30 18 1 25 16
M  V30 19 2 25 19
M  V30 20 1 26 15
M  V30 21 2 27 2
M  V30 22 1 27 6
M  V30 23 1 27 19
M  V30 24 2 28 9
M  V30 25 1 29 17
M  V30 26 1 30 16
M  V30 27 1 31 13
M  V30 28 1 31 18
M  V30 29 1 32 4
M  V30 30 1 32 8
M  V30 31 1 32 21
M  V30 32 1 5 33 CFG=1
M  V30 33 1 33 8
M  V30 34 2 34 3
M  V30 35 1 34 24
M  V30 36 1 35 2
M  V30 37 1 36 3
M  V30 38 1 4 37 CFG=1
M  V30 39 1 38 6
M  V30 40 1 39 7
M  V30 41 1 8 40 CFG=3
M  V30 42 1 41 10
M  V30 43 1 42 10
M  V30 44 1 43 12
M  V30 45 1 44 12
M  V30 46 1 45 12
M  V30 47 1 46 13
M  V30 48 1 15 47 CFG=3
M  V30 49 1 48 16
M  V30 50 1 49 16
M  V30 51 1 17 50 CFG=1
M  V30 52 1 51 18
M  V30 53 1 52 20
M  V30 54 1 53 20
M  V30 55 1 54 21
M  V30 56 1 55 21
M  V30 57 1 56 21
M  V30 58 1 57 22
M  V30 59 1 58 22
M  V30 60 1 59 23
M  V30 61 1 60 23
M  V30 62 1 61 23
M  V30 63 1 62 24
M  V30 64 1 63 24
M  V30 65 1 64 26
M  V30 66 1 65 30
M  V30 67 1 66 30
M  V30 68 1 67 31
M  V30 69 1 68 31
M  V30 70 1 32 69 CFG=3
M  V30 71 1 70 34
M  V30 72 1 71 6
M  V30 73 1 72 18
M  V30 END BOND
M  V30 END CTAB
M  END
>  <i_epik_Tot_Q>  (1) 
0

>  <i_epik_Tot_abs_Q>  (1) 
2

>  <i_i_glide_confnum>  (1) 
3334

>  <i_i_glide_lignum>  (1) 
27

>  <i_i_glide_posenum>  (1) 
267

>  <i_i_glide_rotatable_bonds>  (1) 
15

>  <i_lp_mmshare_version>  (1) 
72125

>  <i_m_source_file_index>  (1) 
11

>  <i_f3d_flags>  (1) 
0

>  <num_sample>  (1) 
50

>  <b_lp_Chiralities_Consistent>  (1) 
1

>  <r_epik_Charging_Adjusted_Penalty>  (1) 
0.33639934582642134

>  <r_epik_Ionization_Penalty>  (1) 
0.23315943830934333

>  <r_epik_Ionization_Penalty_Charging>  (1) 
0.10316865490585193

>  <r_epik_Ionization_Penalty_Neutral>  (1) 
0.12999078340349141

>  <r_epik_State_Penalty>  (1) 
0.23323069092056939

>  <r_glide_ring_energy>  (1) 
0

>  <r_i_docking_score>  (1) 
-3.8013617207475132

>  <r_i_glide_ecoul>  (1) 
-10.789655313018553

>  <r_i_glide_eff_state_penalty>  (1) 
0.23323069092056939

>  <r_i_glide_einternal>  (1) 
15.397585827800231

>  <r_i_glide_emodel>  (1) 
-34.855234466335069

>  <r_i_glide_emodel_strain>  (1) 
3.9984974720388209

>  <r_i_glide_energy>  (1) 
-34.984612484290047

>  <r_i_glide_erotb>  (1) 
0.82510599487301828

>  <r_i_glide_esite>  (1) 
-0.27733221691143939

>  <r_i_glide_evdw>  (1) 
-24.194957171271493

>  <r_i_glide_gscore>  (1) 
-4.0345924116680827

>  <r_i_glide_gscore_strain>  (1) 
0

>  <r_i_glide_hbond>  (1) 
-0.53585880095093608

>  <r_i_glide_ligand_efficiency>  (1) 
-0.11180475649257392

>  <r_i_glide_ligand_efficiency_ln>  (1) 
-0.83982742869777727

>  <r_i_glide_ligand_efficiency_sa>  (1) 
-0.36220400857229784

>  <r_i_glide_lipo>  (1) 
-0.78459402364032338

>  <r_i_glide_metal>  (1) 
-0

>  <r_i_glide_rewards>  (1) 
-0.43371720952204484

>  <r_lp_Energy>  (1) 
31.214245999999999

>  <s_epik_Chemistry_Notes>  (1) 
This compound has an imine and may undergo hydrolysis. This compound contains an acetal/aminal-like group ( X-CH(R)-Y where X, Y are N, S, or O) that may be acid/base labile, releasing an aldehyde.

>  <s_epik_cmdline>  (1) 
J2VwaWtfcHl0aG9uJywgJy1waHQnLCAnMS4wJywgJy1waCcsICc3LjQnLCAnLXRuJywgJzgnLCAnLW1hJywgJzUwMCcsICctaW1hZScsICc8aW5maWxlLm1hZT4nLCAnLW9tYWUnLCAnPG91dGZpbGUubWFlPic=

>  <s_epik_input>  (1) 
W1NIXVMoPU8pKD1PKVtDQEBdMShbQ0gyXVtDSDNdKVtDQEBdKFtDSDNdKShbQ0BASF0xW09IXSlPW0NASF0oW0NAQEhdMltDSDNdKVtOSF1bQ0BASF0oRilbQ0BIXTJbQ0gyXS9bQ0hdPVtDSF1cQyhbQ0gyXVtOSDJdKT1OXEMoPU5cW0hdKVxbQ0gyXVtDSDJdW0NIMl1bTkhdW0NIMl1bT0hd

>  <s_glide_docking_method>  (1) 
confgen

>  <s_i_glide_gridfile>  (1) 
gpcr_drd2_6luq_protein_autoprepared_prepared

>  <s_lp_Force_Field>  (1) 
S-OPLS

>  <s_lp_Variant>  (1) 
DiffSBDD_10_num_sample_50-7

>  <s_m_source_file>  (1) 
generated__ligand_DiffSBDD_2026-05-06_prepared.sdf

>  <GenAI_Model>  (1) 
DiffSBDD

>  <Protein>  (1) 
generic_title2

$$$$
DiffSBDD_40_num_sample_50
     RDKit          3D

  0  0  0  0  0  0  0  0  0  0999 V3000
M  V30 BEGIN CTAB
M  V30 COUNTS 79 82 0 0 1
M  V30 BEGIN ATOM
M  V30 1 C 8.939194 5.961982 -8.592428 0 CFG=1
M  V30 2 S 8.483928 2.722778 -17.626340 0
M  V30 3 C 7.731827 6.537846 -14.237686 0
M  V30 4 C 11.684835 8.278318 -8.690888 0 CFG=2
M  V30 5 C 8.168306 5.263766 -14.289302 0
M  V30 6 C 10.634926 9.762469 -5.888505 0
M  V30 7 C 9.777155 6.962719 -7.674957 0 CFG=2
M  V30 8 C 11.040816 8.844223 -5.004793 0
M  V30 9 C 11.271042 7.011155 -7.973415 0
M  V30 10 C 9.599635 5.196542 -9.754240 0
M  V30 11 C 9.833400 5.031296 -17.924326 0
M  V30 12 C 11.991192 9.249482 -3.880545 0 CFG=1
M  V30 13 C 8.764314 4.633944 -15.571651 0 CFG=1
M  V30 14 C 11.079153 6.548862 -4.252257 0
M  V30 15 C 11.977632 8.295066 -2.673881 0 CFG=2
M  V30 16 C 10.567596 7.454776 -5.106268 0
M  V30 17 C 8.105268 4.357267 -13.062960 0 CFG=1
M  V30 18 C 8.872703 4.129472 -18.715057 0 CFG=2
M  V30 19 S 6.747095 1.906218 -13.091565 0
M  V30 20 C 12.777480 8.061770 -9.610496 0
M  V30 21 F 12.974149 8.569460 -1.833041 0
M  V30 22 C 9.473363 7.031404 -6.137869 0
M  V30 23 C 12.132558 6.883580 -3.200300 0
M  V30 24 C 7.796130 3.604789 -16.195766 0
M  V30 25 F 13.225108 9.369513 -4.366767 0
M  V30 26 O 13.034899 8.569338 -10.691656 0
M  V30 27 O 8.443722 5.144389 -11.913852 0
M  V30 28 O 8.234767 4.970438 -7.891641 0
M  V30 29 C 6.696655 3.717656 -12.917724 0
M  V30 30 C 5.057317 2.649914 -20.925933 0
M  V30 31 N 5.620792 5.374676 -19.924773 0
M  V30 32 C 8.678308 4.417715 -10.718169 0
M  V30 33 N 7.585243 6.265800 -19.334603 0
M  V30 34 O 13.133044 8.569211 -8.486719 0
M  V30 35 C 6.396082 4.293875 -19.594722 0
M  V30 36 C 9.196163 5.632040 -16.656713 0
M  V30 37 C 7.616871 4.843166 -19.201853 0
M  V30 38 C 6.343938 6.454887 -19.753274 0
M  V30 39 C 5.914585 2.882028 -19.682833 0
M  V30 40 H 8.234847 6.569256 -9.115603 0
M  V30 41 H 7.775230 7.182616 -15.091672 0
M  V30 42 H 7.323486 6.944603 -13.323561 0
M  V30 43 H 11.125376 9.209113 -8.640088 0
M  V30 44 H 10.974207 10.784055 -5.818537 0
M  V30 45 H 9.962976 9.509617 -6.688998 0
M  V30 46 H 9.398600 7.922998 -8.026050 0
M  V30 47 H 11.900036 6.859292 -7.099617 0
M  V30 48 H 11.477594 6.169269 -8.599141 0
M  V30 49 H 10.208465 5.875237 -10.351237 0
M  V30 50 H 10.234811 4.451973 -9.284285 0
M  V30 51 H 10.727468 4.471389 -17.651803 0
M  V30 52 H 10.175421 5.842629 -18.568808 0
M  V30 53 H 11.685269 10.214772 -3.514617 0
M  V30 54 H 9.692257 4.169295 -15.260741 0
M  V30 55 H 10.743282 5.525670 -4.292266 0
M  V30 56 H 11.080651 8.409434 -2.065684 0
M  V30 57 H 8.876755 3.591486 -13.175593 0
M  V30 58 H 9.403309 3.730654 -19.579199 0
M  V30 59 H 7.371757 1.884843 -14.271491 0
M  V30 60 H 8.632670 7.709051 -6.008501 0
M  V30 61 H 9.087190 6.070413 -5.812850 0
M  V30 62 H 12.162365 6.142626 -2.400661 0
M  V30 63 H 13.102673 6.969184 -3.672556 0
M  V30 64 H 7.524791 2.840702 -15.481255 0
M  V30 65 H 6.875516 4.102196 -16.496240 0
M  V30 66 H 7.376085 4.888646 -8.283922 0
M  V30 67 H 6.243301 3.964224 -11.958788 0
M  V30 68 H 6.016011 4.103175 -13.678150 0
M  V30 69 H 4.638305 1.642654 -20.936289 0
M  V30 70 H 4.236268 3.370044 -20.946408 0
M  V30 71 H 5.641815 2.784665 -21.838326 0
M  V30 72 H 9.180112 3.481013 -10.965382 0
M  V30 73 H 7.725076 4.169300 -10.253758 0
M  V30 74 H 4.665717 5.344968 -20.251480 0
M  V30 75 H 8.303139 6.169271 -16.944827 0
M  V30 76 H 9.931489 6.319986 -16.256558 0
M  V30 77 H 5.950430 7.440642 -19.951335 0
M  V30 78 H 6.758502 2.195244 -19.724871 0
M  V30 79 H 5.345886 2.631005 -18.787172 0
M  V30 END ATOM
M  V30 BEGIN BOND
M  V30 1 2 5 3
M  V30 2 1 7 1
M  V30 3 2 8 6
M  V30 4 1 9 4
M  V30 5 1 9 7
M  V30 6 1 10 1
M  V30 7 1 12 8
M  V30 8 1 13 5
M  V30 9 1 15 12
M  V30 10 1 16 8
M  V30 11 2 16 14
M  V30 12 1 17 5
M  V30 13 1 18 2
M  V30 14 1 18 11
M  V30 15 1 20 4
M  V30 16 1 21 15
M  V30 17 1 22 7
M  V30 18 1 22 16
M  V30 19 1 23 14
M  V30 20 1 23 15
M  V30 21 1 24 2
M  V30 22 1 24 13
M  V30 23 1 25 12
M  V30 24 2 26 20
M  V30 25 1 27 17
M  V30 26 1 28 1
M  V30 27 1 29 17
M  V30 28 1 29 19
M  V30 29 1 32 10
M  V30 30 1 32 27
M  V30 31 1 34 4
M  V30 32 1 34 20
M  V30 33 1 35 31
M  V30 34 1 36 11
M  V30 35 1 36 13
M  V30 36 1 37 18
M  V30 37 1 37 33
M  V30 38 2 37 35
M  V30 39 1 38 31
M  V30 40 2 38 33
M  V30 41 1 39 30
M  V30 42 1 39 35
M  V30 43 1 1 40 CFG=3
M  V30 44 1 41 3
M  V30 45 1 42 3
M  V30 46 1 4 43 CFG=3
M  V30 47 1 44 6
M  V30 48 1 45 6
M  V30 49 1 7 46 CFG=3
M  V30 50 1 47 9
M  V30 51 1 48 9
M  V30 52 1 49 10
M  V30 53 1 50 10
M  V30 54 1 51 11
M  V30 55 1 52 11
M  V30 56 1 12 53 CFG=1
M  V30 57 1 13 54 CFG=1
M  V30 58 1 55 14
M  V30 59 1 15 56 CFG=1
M  V30 60 1 17 57 CFG=3
M  V30 61 1 18 58 CFG=3
M  V30 62 1 59 19
M  V30 63 1 60 22
M  V30 64 1 61 22
M  V30 65 1 62 23
M  V30 66 1 63 23
M  V30 67 1 64 24
M  V30 68 1 65 24
M  V30 69 1 66 28
M  V30 70 1 67 29
M  V30 71 1 68 29
M  V30 72 1 69 30
M  V30 73 1 70 30
M  V30 74 1 71 30
M  V30 75 1 72 32
M  V30 76 1 73 32
M  V30 77 1 74 31
M  V30 78 1 75 36
M  V30 79 1 76 36
M  V30 80 1 77 38
M  V30 81 1 78 39
M  V30 82 1 79 39
M  V30 END BOND
M  V30 END CTAB
M  END
>  <i_epik_Tot_Q>  (1) 
0

>  <i_epik_Tot_abs_Q>  (1) 
0

>  <i_i_glide_confnum>  (1) 
2333

>  <i_i_glide_lignum>  (1) 
98

>  <i_i_glide_posenum>  (1) 
79

>  <i_i_glide_rotatable_bonds>  (1) 
16

>  <i_lp_mmshare_version>  (1) 
72125

>  <i_m_source_file_index>  (1) 
41

>  <i_f3d_flags>  (1) 
0

>  <num_sample>  (1) 
50

>  <b_lp_Chiralities_Consistent>  (1) 
1

>  <r_epik_Charging_Adjusted_Penalty>  (1) 
0.92388938130089981

>  <r_epik_Ionization_Penalty>  (1) 
0.33440672530639315

>  <r_epik_Ionization_Penalty_Charging>  (1) 
0.3225466834979146

>  <r_epik_Ionization_Penalty_Neutral>  (1) 
0.011860041808478553

>  <r_epik_State_Penalty>  (1) 
0.60134269780298522

>  <r_glide_ring_energy>  (1) 
0

>  <r_i_docking_score>  (1) 
-3.7999724993936761

>  <r_i_glide_ecoul>  (1) 
-0.92149075640453937

>  <r_i_glide_eff_state_penalty>  (1) 
0.60134269780298522

>  <r_i_glide_einternal>  (1) 
33.764300755660805

>  <r_i_glide_emodel>  (1) 
-9.7749028468665067

>  <r_i_glide_emodel_strain>  (1) 
11.221576667119535

>  <r_i_glide_energy>  (1) 
-31.477233498961887

>  <r_i_glide_erotb>  (1) 
0.63692825108646745

>  <r_i_glide_esite>  (1) 
0

>  <r_i_glide_evdw>  (1) 
-30.555742742557346

>  <r_i_glide_gscore>  (1) 
-4.4013151971966611

>  <r_i_glide_gscore_strain>  (1) 
1.8053941667798838

>  <r_i_glide_hbond>  (1) 
-0.17349408716785589

>  <r_i_glide_ligand_efficiency>  (1) 
-0.097435192292145548

>  <r_i_glide_ligand_efficiency_ln>  (1) 
-0.81482197250406785

>  <r_i_glide_ligand_efficiency_sa>  (1) 
-0.33042333905340976

>  <r_i_glide_lipo>  (1) 
-3.2844856210057074

>  <r_i_glide_metal>  (1) 
-0

>  <r_i_glide_rewards>  (1) 
-1.7196471563009008

>  <r_lp_Energy>  (1) 
18.659057999999998

>  <r_lp_tautomer_probability>  (1) 
0.49999999999999867

>  <s_epik_Chemistry_Notes>  (1) 
This compound has an ester and may undergo hydrolysis at high or low pH.

>  <s_epik_cmdline>  (1) 
J2VwaWtfcHl0aG9uJywgJy1waHQnLCAnMS4wJywgJy1waCcsICc3LjQnLCAnLXRuJywgJzgnLCAnLW1hJywgJzUwMCcsICctaW1hZScsICc8aW5maWxlLm1hZT4nLCAnLW9tYWUnLCAnPG91dGZpbGUubWFlPic=

>  <s_epik_input>  (1) 
W0NIMl09QzFbQ0BIXShGKVtDQEhdKEYpW0NIMl1bQ0hdPUMxW0NIMl1bQ0BASF0oW0NIMl1bQ0BASF0yQyg9TylPMilbQ0BIXShbT0hdKVtDSDJdW0NIMl1PW0NAQEhdKFtDSDJdW1NIXSlDKD1bQ0gyXSlbQ0BIXTNbQ0gyXVNbQ0BIXShbQ0gyXVtDSDJdMylDND1OW0NIXT1OW0NAQEhdNFtDSDJdW0NIM10=

>  <s_glide_docking_method>  (1) 
confgen

>  <s_i_glide_gridfile>  (1) 
gpcr_drd2_6luq_protein_autoprepared_prepared

>  <s_lp_Force_Field>  (1) 
S-OPLS

>  <s_lp_Variant>  (1) 
DiffSBDD_40_num_sample_50-1

>  <s_m_source_file>  (1) 
generated__ligand_DiffSBDD_2026-05-06_prepared.sdf

>  <GenAI_Model>  (1) 
DiffSBDD

>  <Protein>  (1) 
generic_title2

$$$$
DiffSBDD_25_num_sample_50
     RDKit          3D

  0  0  0  0  0  0  0  0  0  0999 V3000
M  V30 BEGIN CTAB
M  V30 COUNTS 70 75 0 0 1
M  V30 BEGIN ATOM
M  V30 1 C 10.591133 1.908967 -18.748736 0 CFG=2
M  V30 2 C 8.752809 5.768354 -7.757044 0
M  V30 3 C 6.246766 3.284010 -12.647273 0
M  V30 4 C 10.576300 7.164498 -8.546085 0
M  V30 5 S 12.874646 2.602796 -17.852153 0
M  V30 6 C 8.406660 5.448240 -9.083339 0
M  V30 7 C 8.716451 5.707005 -11.596911 0 CFG=2
M  V30 8 C 9.835812 6.619347 -7.493165 0
M  V30 9 C 9.539730 4.566766 -12.268107 0
M  V30 10 C 8.491344 2.807886 -19.245321 0 CFG=2
M  V30 11 C 11.739359 1.199382 -18.065940 0
M  V30 12 C 6.135532 0.713074 -18.146980 0
M  V30 13 C 7.293522 0.145516 -14.714359 0
M  V30 14 C 6.493651 1.417933 -14.342546 0
M  V30 15 N 7.198692 0.479767 -17.225808 0
M  V30 16 F 8.515973 2.762289 -20.581042 0
M  V30 17 O 5.034889 0.169298 -18.125058 0
M  V30 18 C 10.234832 6.866024 -9.889240 0
M  V30 19 N 6.986412 2.057186 -13.091926 0 CFG=1 CHG=1
M  V30 20 C 9.132043 6.009455 -10.157048 0
M  V30 21 C 10.592047 3.270894 -18.099123 0 CFG=1
M  V30 22 O 11.934044 3.699610 -18.259803 0
M  V30 23 C 7.034731 2.897666 -18.805321 0
M  V30 24 C 12.205378 8.038727 -10.612287 0
M  V30 25 O 10.970660 7.392444 -10.934960 0
M  V30 26 Cl 10.261188 6.994213 -5.871307 0
M  V30 27 C 9.405227 3.985193 -18.759247 0 CFG=1
M  V30 28 N 8.478468 3.607256 -12.329416 0
M  V30 29 C 6.999033 -0.454988 -16.108931 0
M  V30 30 C 9.117751 1.489463 -18.733717 0 CFG=2
M  V30 31 C 9.830991 4.969813 -19.862474 0
M  V30 32 C 8.548198 1.102967 -17.342508 0
M  V30 33 C 8.426424 2.435199 -13.158564 0
M  V30 34 C 7.348213 4.333966 -12.653558 0 CFG=2
M  V30 35 O 6.486890 1.621472 -19.087594 0
M  V30 36 O 7.317422 5.317959 -11.698562 0
M  V30 37 H 10.883183 2.027326 -19.795271 0
M  V30 38 H 8.178210 5.369305 -6.940625 0
M  V30 39 H 5.871625 3.153843 -11.631090 0
M  V30 40 H 5.429112 3.581082 -13.305079 0
M  V30 41 H 11.404099 7.815754 -8.321161 0
M  V30 42 H 7.565609 4.799264 -9.277864 0
M  V30 43 H 8.839767 6.619782 -12.182285 0
M  V30 44 H 9.869500 4.842395 -13.271104 0
M  V30 45 H 10.378931 4.212385 -11.678604 0
M  V30 46 H 12.174782 0.405526 -18.672727 0
M  V30 47 H 11.469760 0.799929 -17.091689 0
M  V30 48 H 8.364587 0.331003 -14.659438 0
M  V30 49 H 7.097513 -0.620956 -13.963280 0
M  V30 50 H 5.442258 1.154097 -14.219948 0
M  V30 51 H 6.554006 2.147139 -15.151439 0
M  V30 52 H 10.394346 3.190916 -17.027841 0
M  V30 53 H 6.505522 3.663438 -19.372890 0
M  V30 54 H 6.933906 3.150811 -17.748773 0
M  V30 55 H 12.828419 8.169299 -11.492150 0
M  V30 56 H 12.024086 9.029206 -10.193008 0
M  V30 57 H 12.804623 7.461880 -9.904621 0
M  V30 58 H 8.887468 4.558598 -17.989230 0
M  V30 59 H 7.656958 -1.304477 -16.291703 0
M  V30 60 H 5.988740 -0.867456 -16.097610 0
M  V30 61 H 8.958914 0.663823 -19.429496 0
M  V30 62 H 10.418090 4.474505 -20.636525 0
M  V30 63 H 8.963953 5.428605 -20.338268 0
M  V30 64 H 10.445234 5.770871 -19.449646 0
M  V30 65 H 8.577165 1.952166 -16.660361 0
M  V30 66 H 9.241807 0.377219 -16.920320 0
M  V30 67 H 8.634838 2.718875 -14.188308 0
M  V30 68 H 9.099749 1.646143 -12.824755 0
M  V30 69 H 7.450590 4.790921 -13.641887 0
M  V30 70 H 6.896748 1.382227 -12.345676 0
M  V30 END ATOM
M  V30 BEGIN BOND
M  V30 1 2 6 2
M  V30 2 1 8 2
M  V30 3 2 8 4
M  V30 4 1 9 7
M  V30 5 1 11 1
M  V30 6 1 11 5
M  V30 7 1 14 13
M  V30 8 1 15 12
M  V30 9 1 10 16 CFG=3
M  V30 10 2 17 12
M  V30 11 1 18 4
M  V30 12 1 19 3
M  V30 13 1 19 14
M  V30 14 1 20 6
M  V30 15 1 20 7
M  V30 16 2 20 18
M  V30 17 1 21 1
M  V30 18 1 22 5
M  V30 19 1 22 21
M  V30 20 1 23 10
M  V30 21 1 25 18
M  V30 22 1 25 24
M  V30 23 1 26 8
M  V30 24 1 27 10
M  V30 25 1 27 21
M  V30 26 1 28 9
M  V30 27 1 29 13
M  V30 28 1 29 15
M  V30 29 1 30 1
M  V30 30 1 30 10
M  V30 31 1 31 27
M  V30 32 1 32 15
M  V30 33 1 32 30
M  V30 34 1 33 19
M  V30 35 1 33 28
M  V30 36 1 34 3
M  V30 37 1 34 28
M  V30 38 1 35 12
M  V30 39 1 35 23
M  V30 40 1 36 7
M  V30 41 1 36 34
M  V30 42 1 1 37 CFG=3
M  V30 43 1 38 2
M  V30 44 1 39 3
M  V30 45 1 40 3
M  V30 46 1 41 4
M  V30 47 1 42 6
M  V30 48 1 7 43 CFG=3
M  V30 49 1 44 9
M  V30 50 1 45 9
M  V30 51 1 46 11
M  V30 52 1 47 11
M  V30 53 1 48 13
M  V30 54 1 49 13
M  V30 55 1 50 14
M  V30 56 1 51 14
M  V30 57 1 21 52 CFG=1
M  V30 58 1 53 23
M  V30 59 1 54 23
M  V30 60 1 55 24
M  V30 61 1 56 24
M  V30 62 1 57 24
M  V30 63 1 27 58 CFG=1
M  V30 64 1 59 29
M  V30 65 1 60 29
M  V30 66 1 30 61 CFG=3
M  V30 67 1 62 31
M  V30 68 1 63 31
M  V30 69 1 64 31
M  V30 70 1 65 32
M  V30 71 1 66 32
M  V30 72 1 67 33
M  V30 73 1 68 33
M  V30 74 1 34 69 CFG=3
M  V30 75 1 19 70 CFG=1
M  V30 END BOND
M  V30 END CTAB
M  END
>  <i_epik_Tot_Q>  (1) 
1

>  <i_epik_Tot_abs_Q>  (1) 
1

>  <i_i_glide_confnum>  (1) 
101

>  <i_i_glide_lignum>  (1) 
67

>  <i_i_glide_posenum>  (1) 
394

>  <i_i_glide_rotatable_bonds>  (1) 
6

>  <i_lp_mmshare_version>  (1) 
72125

>  <i_m_source_file_index>  (1) 
26

>  <i_f3d_flags>  (1) 
0

>  <num_sample>  (1) 
50

>  <b_lp_Chiralities_Consistent>  (1) 
1

>  <r_epik_Charging_Adjusted_Penalty>  (1) 
0.023952579331408368

>  <r_epik_Ionization_Penalty>  (1) 
0.024408664809918493

>  <r_epik_Ionization_Penalty_Charging>  (1) 
0.023952579331408368

>  <r_epik_Ionization_Penalty_Neutral>  (1) 
0.00045608547851012601

>  <r_epik_State_Penalty>  (1) 
-0

>  <r_glide_ring_energy>  (1) 
0

>  <r_i_docking_score>  (1) 
-3.7998583007184394

>  <r_i_glide_ecoul>  (1) 
-0.70488076708324598

>  <r_i_glide_eff_state_penalty>  (1) 
-0

>  <r_i_glide_einternal>  (1) 
6.5142926650977007

>  <r_i_glide_emodel>  (1) 
-38.859399835747659

>  <r_i_glide_emodel_strain>  (1) 
0.028699082678514287

>  <r_i_glide_energy>  (1) 
-33.998547474520997

>  <r_i_glide_erotb>  (1) 
0.35075509399968952

>  <r_i_glide_esite>  (1) 
0

>  <r_i_glide_evdw>  (1) 
-33.293666707437751

>  <r_i_glide_gscore>  (1) 
-3.7998583007184394

>  <r_i_glide_gscore_strain>  (1) 
0

>  <r_i_glide_hbond>  (1) 
0

>  <r_i_glide_ligand_efficiency>  (1) 
-0.1055516194644011

>  <r_i_glide_ligand_efficiency_ln>  (1) 
-0.82902642090933854

>  <r_i_glide_ligand_efficiency_sa>  (1) 
-0.34852376847446248

>  <r_i_glide_lipo>  (1) 
-1.2690197032918531

>  <r_i_glide_metal>  (1) 
-0

>  <r_i_glide_rewards>  (1) 
-1.1111782409919013

>  <r_lp_Energy>  (1) 
70.690685999999999

>  <r_lp_tautomer_probability>  (1) 
1

>  <s_epik_Chemistry_Notes>  (1) 
This compound has an ester and may undergo hydrolysis at high or low pH. This compound contains an acetal/aminal-like group ( X-CH(R)-Y where X, Y are N, S, or O) that may be acid/base labile, releasing an aldehyde.

>  <s_epik_cmdline>  (1) 
J2VwaWtfcHl0aG9uJywgJy1waHQnLCAnMS4wJywgJy1waCcsICc3LjQnLCAnLXRuJywgJzgnLCAnLW1hJywgJzUwMCcsICctaW1hZScsICc8aW5maWxlLm1hZT4nLCAnLW9tYWUnLCAnPG91dGZpbGUubWFlPic=

>  <s_epik_input>  (1) 
W0NIMl0xU09bQ0BASF0oW0NASF0yW0NIM10pW0NAQEhdMVtDQEhdKFtDQF0yM0YpW0NIMl1OKEMoPU8pT1tDSDJdMylbQ0gyXVtDSDJdW0NIMl1OKFtDSDJdNClbQ0gyXVtDQEhdKE40NSlPW0NASF0oW0NIMl01KWMoW2NIXVtjSF1jNkNsKWMoW2NIXTYpT1tDSDNd

>  <s_glide_docking_method>  (1) 
confgen

>  <s_i_glide_gridfile>  (1) 
gpcr_drd2_6luq_protein_autoprepared_prepared

>  <s_lp_Force_Field>  (1) 
S-OPLS

>  <s_lp_Variant>  (1) 
DiffSBDD_25_num_sample_50-1

>  <s_m_source_file>  (1) 
generated__ligand_DiffSBDD_2026-05-06_prepared.sdf

>  <GenAI_Model>  (1) 
DiffSBDD

>  <Protein>  (1) 
generic_title2

$$$$
DiffSBDD_32_num_sample_50
     RDKit          3D

  0  0  0  0  0  0  0  0  0  0999 V3000
M  V30 BEGIN CTAB
M  V30 COUNTS 59 61 0 0 1
M  V30 BEGIN ATOM
M  V30 1 C 7.829305 -1.020923 -16.676482 0
M  V30 2 F 5.476501 0.331382 -17.939979 0
M  V30 3 N 8.430288 5.420318 -10.861728 0
M  V30 4 C 10.279933 6.897611 -8.005992 0
M  V30 5 C 7.031904 7.097736 -13.052144 0
M  V30 6 C 6.712420 2.312797 -13.709208 0
M  V30 7 C 8.615221 3.883410 -16.602790 0
M  V30 8 O 9.434844 6.124240 -10.102574 0
M  V30 9 C 7.816388 5.382208 -14.646542 0 CFG=1
M  V30 10 O 8.830025 4.969372 -8.232610 0
M  V30 11 C 9.434823 5.888318 -8.786969 0
M  V30 12 C 8.841735 5.348871 -12.269559 0
M  V30 13 C 6.087657 7.445142 -11.917780 0
M  V30 14 C 7.424801 8.133694 -12.007615 0
M  V30 15 C 6.499028 -0.614365 -15.998953 0 CFG=1
M  V30 16 C 10.064708 6.227756 -12.667288 0
M  V30 17 C 9.288835 3.894286 -12.399239 0
M  V30 18 C 6.632032 0.639043 -15.184088 0
M  V30 19 C 7.145131 2.760417 -14.928923 0
M  V30 20 C 6.388218 0.940327 -13.874654 0
M  V30 21 O 5.067764 -1.862577 -17.533752 0
M  V30 22 C 5.299606 -0.591471 -16.962981 0
M  V30 23 O 7.078156 1.745274 -15.844913 0
M  V30 24 C 7.637699 4.091083 -15.454938 0 CFG=2
M  V30 25 C 6.632031 5.214215 -15.564891 0
M  V30 26 F 4.213035 -0.230699 -16.245464 0
M  V30 27 C 7.580631 5.658895 -13.158192 0 CFG=1
M  V30 28 C 10.286200 6.673447 -6.486690 0
M  V30 29 F 8.217677 -0.150908 -17.609197 0
M  V30 30 H 8.634806 -1.077278 -15.942828 0
M  V30 31 H 7.757219 -1.995124 -17.159123 0
M  V30 32 H 8.367971 4.509802 -10.427538 0
M  V30 33 H 11.298435 6.879487 -8.392517 0
M  V30 34 H 9.880577 7.889251 -8.219810 0
M  V30 35 H 6.735689 7.518075 -14.012206 0
M  V30 36 H 6.639926 2.896306 -12.807806 0
M  V30 37 H 9.024193 4.832497 -16.949535 0
M  V30 38 H 9.442133 3.248563 -16.291911 0
M  V30 39 H 8.116092 3.409715 -17.448487 0
M  V30 40 H 8.580891 6.046786 -15.041408 0
M  V30 41 H 5.202885 8.031348 -12.158682 0
M  V30 42 H 5.943884 6.700300 -11.136365 0
M  V30 43 H 8.178957 7.905294 -11.265422 0
M  V30 44 H 7.434835 9.176095 -12.291667 0
M  V30 45 H 6.234831 -1.390629 -15.284065 0
M  V30 46 H 10.421717 5.957103 -13.659563 0
M  V30 47 H 9.846459 7.292329 -12.676216 0
M  V30 48 H 10.926894 6.082806 -12.018126 0
M  V30 49 H 9.434839 3.631816 -13.439947 0
M  V30 50 H 10.234839 3.769272 -11.891646 0
M  V30 51 H 8.601427 3.178199 -11.954980 0
M  V30 52 H 6.018416 0.253913 -13.126246 0
M  V30 53 H 5.584967 -2.502857 -17.069916 0
M  V30 54 H 6.618833 5.800151 -16.481958 0
M  V30 55 H 5.662528 5.073834 -15.091551 0
M  V30 56 H 6.765478 5.013619 -12.837722 0
M  V30 57 H 10.769068 7.506432 -5.976331 0
M  V30 58 H 9.273676 6.584427 -6.089414 0
M  V30 59 H 10.834205 5.769305 -6.227138 0
M  V30 END ATOM
M  V30 BEGIN BOND
M  V30 1 1 8 3
M  V30 2 1 11 4
M  V30 3 1 11 8
M  V30 4 2 11 10
M  V30 5 1 12 3
M  V30 6 1 13 5
M  V30 7 1 14 5
M  V30 8 1 14 13
M  V30 9 1 15 1
M  V30 10 1 16 12
M  V30 11 1 17 12
M  V30 12 1 18 15
M  V30 13 2 19 6
M  V30 14 1 20 6
M  V30 15 2 20 18
M  V30 16 1 22 2
M  V30 17 1 22 15
M  V30 18 1 22 21
M  V30 19 1 23 18
M  V30 20 1 23 19
M  V30 21 1 24 7 CFG=3
M  V30 22 1 24 9
M  V30 23 1 24 19
M  V30 24 1 25 9
M  V30 25 1 25 24
M  V30 26 1 26 22
M  V30 27 1 27 5
M  V30 28 1 27 9
M  V30 29 1 27 12
M  V30 30 1 28 4
M  V30 31 1 29 1
M  V30 32 1 30 1
M  V30 33 1 31 1
M  V30 34 1 32 3
M  V30 35 1 33 4
M  V30 36 1 34 4
M  V30 37 1 35 5
M  V30 38 1 36 6
M  V30 39 1 37 7
M  V30 40 1 38 7
M  V30 41 1 39 7
M  V30 42 1 9 40 CFG=3
M  V30 43 1 41 13
M  V30 44 1 42 13
M  V30 45 1 43 14
M  V30 46 1 44 14
M  V30 47 1 15 45 CFG=1
M  V30 48 1 46 16
M  V30 49 1 47 16
M  V30 50 1 48 16
M  V30 51 1 49 17
M  V30 52 1 50 17
M  V30 53 1 51 17
M  V30 54 1 52 20
M  V30 55 1 53 21
M  V30 56 1 54 25
M  V30 57 1 55 25
M  V30 58 1 27 56 CFG=1
M  V30 59 1 57 28
M  V30 60 1 58 28
M  V30 61 1 59 28
M  V30 END BOND
M  V30 END CTAB
M  END
>  <i_epik_Tot_Q>  (1) 
0

>  <i_epik_Tot_abs_Q>  (1) 
0

>  <i_i_glide_confnum>  (1) 
851

>  <i_i_glide_lignum>  (1) 
82

>  <i_i_glide_posenum>  (1) 
309

>  <i_i_glide_rotatable_bonds>  (1) 
12

>  <i_lp_mmshare_version>  (1) 
72125

>  <i_m_source_file_index>  (1) 
33

>  <i_f3d_flags>  (1) 
0

>  <num_sample>  (1) 
50

>  <b_lp_Chiralities_Consistent>  (1) 
1

>  <r_epik_Charging_Adjusted_Penalty>  (1) 
0.006144794000495021

>  <r_epik_Ionization_Penalty>  (1) 
0.006338033707194878

>  <r_epik_Ionization_Penalty_Charging>  (1) 
0

>  <r_epik_Ionization_Penalty_Neutral>  (1) 
0.006338033707194878

>  <r_epik_State_Penalty>  (1) 
0.006144794000495021

>  <r_glide_ring_energy>  (1) 
0

>  <r_i_docking_score>  (1) 
-3.7950787142995099

>  <r_i_glide_ecoul>  (1) 
-1.3707220225527823

>  <r_i_glide_eff_state_penalty>  (1) 
0.006144794000495021

>  <r_i_glide_einternal>  (1) 
13.278213300496063

>  <r_i_glide_emodel>  (1) 
-27.401080052777182

>  <r_i_glide_emodel_strain>  (1) 
6.0883251257279696

>  <r_i_glide_energy>  (1) 
-33.341992026101629

>  <r_i_glide_erotb>  (1) 
1.020687923142688

>  <r_i_glide_esite>  (1) 
-0.17694253348310629

>  <r_i_glide_evdw>  (1) 
-31.971270003548845

>  <r_i_glide_gscore>  (1) 
-3.801223508300005

>  <r_i_glide_gscore_strain>  (1) 
0.52208128143199239

>  <r_i_glide_hbond>  (1) 
0

>  <r_i_glide_ligand_efficiency>  (1) 
-0.13086478325170725

>  <r_i_glide_ligand_efficiency_ln>  (1) 
-0.86897679068176681

>  <r_i_glide_ligand_efficiency_sa>  (1) 
-0.40205807547395167

>  <r_i_glide_lipo>  (1) 
-1.9923861211802063

>  <r_i_glide_metal>  (1) 
-0

>  <r_i_glide_rewards>  (1) 
-1.3704922546510137

>  <r_lp_Energy>  (1) 
6.2328609999999998

>  <s_epik_Chemistry_Notes>  (1) 
This compound has a N-S or N-O group and may undergo hydrolysis at high or low pH.

>  <s_epik_cmdline>  (1) 
J2VwaWtfcHl0aG9uJywgJy1waHQnLCAnMS4wJywgJy1waCcsICc3LjQnLCAnLXRuJywgJzgnLCAnLW1hJywgJzUwMCcsICctaW1hZScsICc8aW5maWxlLm1hZT4nLCAnLW9tYWUnLCAnPG91dGZpbGUubWFlPic=

>  <s_epik_input>  (1) 
RkMoRikoW09IXSlbQ0BASF0oW0NIMl1GKWMxW2NIXVtjSF1jKG8xKVtDQF0yKFtDSDNdKVtDQEBIXShbQ0gyXTIpW0NASF0oW0NIXTNbQ0gyXVtDSDJdMylDKFtDSDNdKShbQ0gzXSlbTkhdT0MoPU8pW0NIMl1bQ0gzXQ==

>  <s_glide_docking_method>  (1) 
confgen

>  <s_i_glide_gridfile>  (1) 
gpcr_drd2_6luq_protein_autoprepared_prepared

>  <s_lp_Force_Field>  (1) 
S-OPLS

>  <s_lp_Variant>  (1) 
DiffSBDD_32_num_sample_50-1

>  <s_m_source_file>  (1) 
generated__ligand_DiffSBDD_2026-05-06_prepared.sdf

>  <GenAI_Model>  (1) 
DiffSBDD

>  <Protein>  (1) 
generic_title2

$$$$
DiffSBDD_33_num_sample_50
     RDKit          3D

  0  0  0  0  0  0  0  0  0  0999 V3000
M  V30 BEGIN CTAB
M  V30 COUNTS 69 72 0 0 1
M  V30 BEGIN ATOM
M  V30 1 O 14.917595 1.936334 -17.626284 0
M  V30 2 C 12.657901 4.707271 -17.629772 0
M  V30 3 O 12.780984 0.396906 -18.485692 0
M  V30 4 C 11.131839 2.105850 -17.961376 0
M  V30 5 C 7.276712 3.610812 -13.872157 0
M  V30 6 C 8.589460 4.902341 -17.094326 0
M  V30 7 C 6.725178 -0.032081 -17.552389 0
M  V30 8 C 15.034809 -0.343283 -18.274323 0
M  V30 9 N 11.387038 4.374194 -17.091664 0
M  V30 10 C 6.584362 1.484063 -17.591971 0
M  V30 11 C 6.928410 0.005903 -15.043848 0
M  V30 12 C 9.160904 3.511729 -17.369913 0
M  V30 13 N 13.608630 3.751512 -17.193230 0
M  V30 14 C 6.165176 -0.589751 -16.245726 0 CFG=1
M  V30 15 N 8.253843 6.169301 -11.091677 0 CHG=1
M  V30 16 C 7.034843 1.535970 -15.008576 0
M  V30 17 C 13.940363 0.078204 -19.243862 0 CFG=2
M  V30 18 C 12.560347 1.688745 -18.034785 0
M  V30 19 C 8.745796 5.295572 -10.002062 0
M  V30 20 C 9.034854 7.424369 -11.180611 0
M  V30 21 N 7.001576 2.184729 -13.903740 0
M  V30 22 C 7.215270 2.227363 -16.386031 0 CFG=1
M  V30 23 F 14.357901 1.034277 -20.079509 0
M  V30 24 C 4.640660 -0.448110 -16.105641 0
M  V30 25 C 13.643815 2.455141 -17.632205 0
M  V30 26 O 8.606655 2.446316 -16.579963 0
M  V30 27 C 15.064292 0.627545 -17.105076 0
M  V30 28 C 8.143219 5.511414 -12.423376 0
M  V30 29 C 7.479460 4.116163 -12.432491 0
M  V30 30 C 8.323106 4.228810 -18.415925 0
M  V30 31 C 10.634282 3.293061 -17.499562 0
M  V30 32 F 10.227666 1.178635 -18.325828 0
M  V30 33 H 12.952353 5.700003 -17.288141 0
M  V30 34 H 12.615628 4.729763 -18.720139 0
M  V30 35 H 8.190904 3.825529 -14.428533 0
M  V30 36 H 6.465162 4.174425 -14.336129 0
M  V30 37 H 7.745719 5.023632 -16.422450 0
M  V30 38 H 9.239750 5.770516 -17.139367 0
M  V30 39 H 7.778360 -0.301344 -17.645903 0
M  V30 40 H 6.215899 -0.481415 -18.405860 0
M  V30 41 H 14.837160 -1.345615 -17.894299 0
M  V30 42 H 15.993055 -0.374435 -18.792613 0
M  V30 43 H 10.880705 5.159836 -16.711740 0
M  V30 44 H 5.524183 1.729692 -17.646041 0
M  V30 45 H 7.008521 1.830437 -18.531255 0
M  V30 46 H 7.945427 -0.388321 -15.044263 0
M  V30 47 H 6.351594 -1.661251 -16.291671 0
M  V30 48 H 13.697547 -0.765134 -19.890470 0
M  V30 49 H 14.485593 4.145419 -16.886911 0
M  V30 50 H 9.699499 4.833185 -10.258139 0
M  V30 51 H 8.875574 5.866686 -9.081232 0
M  V30 52 H 8.022632 4.510530 -9.784425 0
M  V30 53 H 10.071070 7.226283 -11.457082 0
M  V30 54 H 8.602369 8.093543 -11.925207 0
M  V30 55 H 9.034873 7.957222 -10.229320 0
M  V30 56 H 6.698076 3.178987 -16.342010 0
M  V30 57 H 4.340471 0.569301 -15.891671 0
M  V30 58 H 4.114868 -0.789098 -16.997621 0
M  V30 59 H 4.277397 -1.030696 -15.266917 0
M  V30 60 H 14.288762 0.394782 -16.373210 0
M  V30 61 H 16.007843 0.569304 -16.567674 0
M  V30 62 H 9.143049 5.419257 -12.852082 0
M  V30 63 H 7.586340 6.179947 -13.081943 0
M  V30 64 H 6.522650 4.137250 -11.909539 0
M  V30 65 H 8.120464 3.411771 -11.900681 0
M  V30 66 H 8.848277 4.615759 -19.287036 0
M  V30 67 H 7.288688 3.955645 -18.597820 0
M  V30 68 H 7.332448 6.472885 -10.789958 0
M  V30 69 H 6.477785 -0.346955 -14.114750 0
M  V30 END ATOM
M  V30 BEGIN BOND
M  V30 1 1 9 2
M  V30 2 1 10 7
M  V30 3 1 12 6
M  V30 4 1 13 2
M  V30 5 1 14 7
M  V30 6 1 14 11
M  V30 7 1 16 11
M  V30 8 1 17 3
M  V30 9 1 17 8
M  V30 10 1 18 3
M  V30 11 1 18 4
M  V30 12 1 19 15
M  V30 13 1 20 15
M  V30 14 1 21 5
M  V30 15 2 21 16
M  V30 16 1 22 10
M  V30 17 1 22 16
M  V30 18 1 23 17
M  V30 19 1 24 14
M  V30 20 1 25 1
M  V30 21 1 25 13
M  V30 22 2 25 18
M  V30 23 1 26 12
M  V30 24 1 26 22
M  V30 25 1 27 1
M  V30 26 1 27 8
M  V30 27 1 28 15
M  V30 28 1 29 5
M  V30 29 1 29 28
M  V30 30 1 30 6
M  V30 31 1 30 12
M  V30 32 2 31 4
M  V30 33 1 31 9
M  V30 34 1 31 12
M  V30 35 1 32 4
M  V30 36 1 33 2
M  V30 37 1 34 2
M  V30 38 1 35 5
M  V30 39 1 36 5
M  V30 40 1 37 6
M  V30 41 1 38 6
M  V30 42 1 39 7
M  V30 43 1 40 7
M  V30 44 1 41 8
M  V30 45 1 42 8
M  V30 46 1 43 9
M  V30 47 1 44 10
M  V30 48 1 45 10
M  V30 49 1 46 11
M  V30 50 1 14 47 CFG=3
M  V30 51 1 17 48 CFG=3
M  V30 52 1 49 13
M  V30 53 1 50 19
M  V30 54 1 51 19
M  V30 55 1 52 19
M  V30 56 1 53 20
M  V30 57 1 54 20
M  V30 58 1 55 20
M  V30 59 1 22 56 CFG=1
M  V30 60 1 57 24
M  V30 61 1 58 24
M  V30 62 1 59 24
M  V30 63 1 60 27
M  V30 64 1 61 27
M  V30 65 1 62 28
M  V30 66 1 63 28
M  V30 67 1 64 29
M  V30 68 1 65 29
M  V30 69 1 66 30
M  V30 70 1 67 30
M  V30 71 1 68 15
M  V30 72 1 69 11
M  V30 END BOND
M  V30 END CTAB
M  END
>  <i_epik_Tot_Q>  (1) 
1

>  <i_epik_Tot_abs_Q>  (1) 
1

>  <i_i_glide_confnum>  (1) 
332

>  <i_i_glide_lignum>  (1) 
86

>  <i_i_glide_posenum>  (1) 
226

>  <i_i_glide_rotatable_bonds>  (1) 
7

>  <i_lp_mmshare_version>  (1) 
72125

>  <i_m_source_file_index>  (1) 
34

>  <i_f3d_flags>  (1) 
0

>  <num_sample>  (1) 
50

>  <b_lp_Chiralities_Consistent>  (1) 
1

>  <r_epik_Charging_Adjusted_Penalty>  (1) 
0.41789118993368612

>  <r_epik_Ionization_Penalty>  (1) 
0.0076682513750627552

>  <r_epik_Ionization_Penalty_Charging>  (1) 
0.0072113509810821487

>  <r_epik_Ionization_Penalty_Neutral>  (1) 
0.0004569003939806066

>  <r_epik_State_Penalty>  (1) 
0.41067983895260396

>  <r_glide_ring_energy>  (1) 
1.3428436498976668

>  <r_i_docking_score>  (1) 
-3.7850916100411935

>  <r_i_glide_ecoul>  (1) 
-4.6050320998615808

>  <r_i_glide_eff_state_penalty>  (1) 
0.41067983895260396

>  <r_i_glide_einternal>  (1) 
5.9583522541192409

>  <r_i_glide_emodel>  (1) 
-42.485537228193891

>  <r_i_glide_emodel_strain>  (1) 
0.45343191579300424

>  <r_i_glide_energy>  (1) 
-34.926193581285609

>  <r_i_glide_erotb>  (1) 
0.58078846603177925

>  <r_i_glide_esite>  (1) 
-0.087983275843430922

>  <r_i_glide_evdw>  (1) 
-30.321161481424031

>  <r_i_glide_gscore>  (1) 
-4.1957714489937974

>  <r_i_glide_gscore_strain>  (1) 
0

>  <r_i_glide_hbond>  (1) 
-0.1107238982759684

>  <r_i_glide_ligand_efficiency>  (1) 
-0.1182841128137873

>  <r_i_glide_ligand_efficiency_ln>  (1) 
-0.84758518918868142

>  <r_i_glide_ligand_efficiency_sa>  (1) 
-0.37552865022346232

>  <r_i_glide_lipo>  (1) 
-1.5065507342090394

>  <r_i_glide_metal>  (1) 
-0

>  <r_i_glide_rewards>  (1) 
-0.86448911764669933

>  <r_lp_Energy>  (1) 
52.233778000000001

>  <r_lp_tautomer_probability>  (1) 
0.49999519497573586

>  <s_epik_Chemistry_Notes>  (1) 
This compound has an imine and may undergo hydrolysis. This compound contains an acetal/aminal-like group ( X-CH(R)-Y where X, Y are N, S, or O) that may be acid/base labile, releasing an aldehyde.

>  <s_epik_cmdline>  (1) 
J2VwaWtfcHl0aG9uJywgJy1waHQnLCAnMS4wJywgJy1waCcsICc3LjQnLCAnLXRuJywgJzgnLCAnLW1hJywgJzUwMCcsICctaW1hZScsICc8aW5maWxlLm1hZT4nLCAnLW9tYWUnLCAnPG91dGZpbGUubWFlPic=

>  <s_epik_input>  (1) 
TzFbQ0BASF0oRilbQ0gyXVtDSDJdT0MoW0NAQEhdMTIpPU5bQ0gyXVtOSF1DKD1DMkYpQzMoW0NIMl1bQ0gyXTMpT1tDQEBIXShbQ0gyXVtDSDJdW0NAQEhdNFtDSDNdKUMoPVtDSF00KVtOSF1bQ0gyXVtDSDJdW0NIMl1OKFtDSDNdKVtDSDNd

>  <s_glide_docking_method>  (1) 
confgen

>  <s_i_glide_gridfile>  (1) 
gpcr_drd2_6luq_protein_autoprepared_prepared

>  <s_lp_Force_Field>  (1) 
S-OPLS

>  <s_lp_Variant>  (1) 
DiffSBDD_33_num_sample_50-4

>  <s_m_source_file>  (1) 
generated__ligand_DiffSBDD_2026-05-06_prepared.sdf

>  <GenAI_Model>  (1) 
DiffSBDD

>  <Protein>  (1) 
generic_title2

$$$$
DiffSBDD_26_num_sample_50
     RDKit          3D

  0  0  0  0  0  0  0  0  0  0999 V3000
M  V30 BEGIN CTAB
M  V30 COUNTS 88 94 0 0 1
M  V30 BEGIN ATOM
M  V30 1 C 7.940883 4.416850 -13.819667 0 CFG=2
M  V30 2 S 6.854607 0.007428 -17.974080 0 CHG=1
M  V30 3 C 9.520255 7.462533 -6.135489 0
M  V30 4 C 8.159477 2.378627 -18.793102 0
M  V30 5 C 8.187434 2.001313 -14.110864 0
M  V30 6 F 9.353161 -0.678140 -17.833314 0
M  V30 7 C 8.519262 5.973908 -11.820317 0
M  V30 8 C 8.839218 4.588846 -14.941058 0
M  V30 9 F 6.245572 -0.072845 -22.525234 0
M  V30 10 C 8.834409 5.614983 -9.357619 0
M  V30 11 C 8.585414 2.513399 -17.316484 0
M  V30 12 C 8.672162 4.567014 -12.461990 0
M  V30 13 C 7.295689 -3.445598 -19.086926 0
M  V30 14 O 9.264521 6.181965 -10.612394 0
M  V30 15 C 11.816037 7.165467 -6.545160 0
M  V30 16 C 6.047843 3.044287 -12.997267 0
M  V30 17 C 8.188155 3.273439 -14.943297 0 CFG=2
M  V30 18 C 5.265083 -0.719796 -18.507596 0
M  V30 19 C 9.098110 6.669592 -8.228784 0 CFG=2
M  V30 20 C 5.837503 -3.077525 -19.016130 0 CFG=2
M  V30 21 C 7.090229 1.019912 -20.656544 0 CFG=1
M  V30 22 C 4.759461 -2.969374 -20.060833 0
M  V30 23 C 8.828732 5.762592 -15.838414 0
M  V30 24 C 6.436858 4.386621 -13.660909 0
M  V30 25 C 9.722579 4.421632 -9.097174 0
M  V30 26 C 6.076154 -0.007633 -21.205817 0 CFG=2
M  V30 27 C 7.533138 3.024035 -16.314572 0
M  V30 28 O 10.410983 7.166176 -8.270547 0
M  V30 29 C 5.493707 -1.725916 -19.604243 0 CFG=1
M  V30 30 C 8.249878 -1.110935 -18.440348 0 CFG=1
M  V30 31 O 6.347196 -1.291236 -20.657208 0
M  V30 32 C 10.149830 5.230006 -15.224801 0
M  V30 33 C 8.934403 6.235621 -6.787531 0
M  V30 34 C 8.063730 -2.596160 -18.050913 0
M  V30 35 C 6.751287 1.771579 -13.563661 0
M  V30 36 N 10.636209 7.829983 -7.004448 0
M  V30 37 C 7.424371 5.035811 -9.337635 0
M  V30 38 F 6.914240 2.150538 -21.343567 0
M  V30 39 C 7.002248 1.410163 -19.149990 0 CFG=1
M  V30 40 H 9.811626 7.312270 -5.093713 0
M  V30 41 H 8.786795 8.272876 -6.179042 0
M  V30 42 H 7.922411 3.365745 -19.192239 0
M  V30 43 H 9.053831 2.067695 -19.333708 0
M  V30 44 H 8.896795 2.070918 -13.286007 0
M  V30 45 H 8.503729 1.152332 -14.715475 0
M  V30 46 H 7.476848 6.247427 -11.658159 0
M  V30 47 H 8.900750 6.703133 -12.539741 0
M  V30 48 H 9.425429 3.207665 -17.297837 0
M  V30 49 H 8.999725 1.570329 -16.963557 0
M  V30 50 H 9.740248 4.382571 -12.601455 0
M  V30 51 H 8.357251 3.781705 -11.781546 0
M  V30 52 H 7.392159 -4.504198 -18.846647 0
M  V30 53 H 7.691313 -3.313255 -20.092891 0
M  V30 54 H 11.878478 7.303033 -5.468068 0
M  V30 55 H 12.634329 7.622449 -7.091649 0
M  V30 56 H 11.802061 6.095677 -6.758889 0
M  V30 57 H 6.253227 3.110092 -11.928140 0
M  V30 58 H 4.971938 2.940612 -13.095792 0
M  V30 59 H 4.799406 -1.206526 -17.650281 0
M  V30 60 H 4.567377 0.056517 -18.822395 0
M  V30 61 H 8.634838 7.631602 -8.298915 0
M  V30 62 H 5.423178 -3.327163 -18.038980 0
M  V30 63 H 8.096897 0.682127 -20.911282 0
M  V30 64 H 3.741024 -3.116846 -19.711636 0
M  V30 65 H 4.977685 -3.355890 -21.055482 0
M  V30 66 H 8.677686 5.613978 -16.903289 0
M  V30 67 H 8.261546 6.569157 -15.396085 0
M  V30 68 H 6.077877 5.231024 -13.069518 0
M  V30 69 H 5.955846 4.482460 -14.636555 0
M  V30 70 H 9.377597 3.786086 -8.293573 0
M  V30 71 H 9.837910 3.788955 -9.976585 0
M  V30 72 H 10.634746 4.789249 -8.695390 0
M  V30 73 H 5.050178 0.319343 -21.054871 0
M  V30 74 H 6.705377 2.325397 -16.235490 0
M  V30 75 H 7.086105 3.941959 -16.694076 0
M  V30 76 H 8.481970 -1.053965 -19.500637 0
M  V30 77 H 10.625053 5.766871 -14.407637 0
M  V30 78 H 10.823630 4.727114 -15.912754 0
M  V30 79 H 7.903775 6.032956 -6.486802 0
M  V30 80 H 9.543761 5.374191 -6.572621 0
M  V30 81 H 7.551694 -2.652311 -17.094749 0
M  V30 82 H 9.031601 -3.056920 -17.874433 0
M  V30 83 H 6.771265 0.993028 -12.799406 0
M  V30 84 H 6.127783 1.361099 -14.358589 0
M  V30 85 H 7.266389 4.551676 -8.378328 0
M  V30 86 H 6.640052 5.761259 -9.490661 0
M  V30 87 H 7.261834 4.261983 -10.074354 0
M  V30 88 H 6.075104 1.964862 -19.008437 0
M  V30 END ATOM
M  V30 BEGIN BOND
M  V30 1 1 8 1
M  V30 2 1 11 4
M  V30 3 1 1 12 CFG=1
M  V30 4 1 12 7
M  V30 5 1 14 7
M  V30 6 1 14 10
M  V30 7 1 17 1
M  V30 8 1 17 5
M  V30 9 1 17 8
M  V30 10 1 2 18 CFG=3
M  V30 11 1 19 10
M  V30 12 1 20 13
M  V30 13 1 22 20
M  V30 14 1 23 8
M  V30 15 1 24 1
M  V30 16 1 24 16
M  V30 17 1 25 10
M  V30 18 1 26 9
M  V30 19 1 26 21
M  V30 20 1 27 11
M  V30 21 1 17 27 CFG=3
M  V30 22 1 28 19
M  V30 23 1 29 18
M  V30 24 1 29 20
M  V30 25 1 29 22
M  V30 26 1 30 2
M  V30 27 1 30 6
M  V30 28 1 31 26
M  V30 29 1 29 31 CFG=3
M  V30 30 1 32 8
M  V30 31 1 32 23
M  V30 32 1 33 3
M  V30 33 1 33 19
M  V30 34 1 34 13
M  V30 35 1 34 30
M  V30 36 1 35 5
M  V30 37 1 35 16
M  V30 38 1 36 3
M  V30 39 1 36 15
M  V30 40 1 36 28
M  V30 41 1 37 10
M  V30 42 1 38 21
M  V30 43 1 39 2
M  V30 44 1 39 4
M  V30 45 1 39 21
M  V30 46 1 40 3
M  V30 47 1 41 3
M  V30 48 1 42 4
M  V30 49 1 43 4
M  V30 50 1 44 5
M  V30 51 1 45 5
M  V30 52 1 46 7
M  V30 53 1 47 7
M  V30 54 1 48 11
M  V30 55 1 49 11
M  V30 56 1 50 12
M  V30 57 1 51 12
M  V30 58 1 52 13
M  V30 59 1 53 13
M  V30 60 1 54 15
M  V30 61 1 55 15
M  V30 62 1 56 15
M  V30 63 1 57 16
M  V30 64 1 58 16
M  V30 65 1 59 18
M  V30 66 1 60 18
M  V30 67 1 19 61 CFG=3
M  V30 68 1 20 62 CFG=1
M  V30 69 1 21 63 CFG=1
M  V30 70 1 64 22
M  V30 71 1 65 22
M  V30 72 1 66 23
M  V30 73 1 67 23
M  V30 74 1 68 24
M  V30 75 1 69 24
M  V30 76 1 70 25
M  V30 77 1 71 25
M  V30 78 1 72 25
M  V30 79 1 26 73 CFG=3
M  V30 80 1 74 27
M  V30 81 1 75 27
M  V30 82 1 30 76 CFG=3
M  V30 83 1 77 32
M  V30 84 1 78 32
M  V30 85 1 79 33
M  V30 86 1 80 33
M  V30 87 1 81 34
M  V30 88 1 82 34
M  V30 89 1 83 35
M  V30 90 1 84 35
M  V30 91 1 85 37
M  V30 92 1 86 37
M  V30 93 1 87 37
M  V30 94 1 39 88 CFG=3
M  V30 END BOND
M  V30 END CTAB
M  END
>  <i_epik_Tot_Q>  (1) 
1

>  <i_epik_Tot_abs_Q>  (1) 
1

>  <i_i_glide_confnum>  (1) 
293

>  <i_i_glide_lignum>  (1) 
68

>  <i_i_glide_posenum>  (1) 
127

>  <i_i_glide_rotatable_bonds>  (1) 
9

>  <i_lp_mmshare_version>  (1) 
72125

>  <i_m_source_file_index>  (1) 
27

>  <i_f3d_flags>  (1) 
0

>  <num_sample>  (1) 
50

>  <b_lp_Chiralities_Consistent>  (1) 
1

>  <r_epik_Charging_Adjusted_Penalty>  (1) 
0.0064700825840893978

>  <r_epik_Ionization_Penalty>  (1) 
0.0064700825864937349

>  <r_epik_Ionization_Penalty_Charging>  (1) 
0

>  <r_epik_Ionization_Penalty_Neutral>  (1) 
0.0064700825864937349

>  <r_epik_State_Penalty>  (1) 
0.0064700825840893978

>  <r_glide_ring_energy>  (1) 
0.038362801895993927

>  <r_i_docking_score>  (1) 
-3.7701485129412116

>  <r_i_glide_ecoul>  (1) 
-3.6999615937543191

>  <r_i_glide_eff_state_penalty>  (1) 
0.0064700825840893978

>  <r_i_glide_einternal>  (1) 
16.597944072006332

>  <r_i_glide_emodel>  (1) 
-14.328802625410539

>  <r_i_glide_emodel_strain>  (1) 
3.9810915161241951

>  <r_i_glide_energy>  (1) 
-23.242232978670184

>  <r_i_glide_erotb>  (1) 
0.41602518103618852

>  <r_i_glide_esite>  (1) 
-0.075953130318984569

>  <r_i_glide_evdw>  (1) 
-19.542271384915864

>  <r_i_glide_gscore>  (1) 
-3.7766185955253011

>  <r_i_glide_gscore_strain>  (1) 
0

>  <r_i_glide_hbond>  (1) 
0

>  <r_i_glide_ligand_efficiency>  (1) 
-0.096670474690800298

>  <r_i_glide_ligand_efficiency_ln>  (1) 
-0.80842686320445867

>  <r_i_glide_ligand_efficiency_sa>  (1) 
-0.32783001997305339

>  <r_i_glide_lipo>  (1) 
-1.6664458316951882

>  <r_i_glide_metal>  (1) 
-0

>  <r_i_glide_rewards>  (1) 
-0.91813700623837557

>  <r_lp_Energy>  (1) 
87.03259899999999

>  <s_epik_Chemistry_Notes>  (1) 
This compound has a N-S or N-O group and may undergo hydrolysis at high or low pH.

>  <s_epik_cmdline>  (1) 
J2VwaWtfcHl0aG9uJywgJy1waHQnLCAnMS4wJywgJy1waCcsICc3LjQnLCAnLXRuJywgJzgnLCAnLW1hJywgJzUwMCcsICctaW1hZScsICc8aW5maWxlLm1hZT4nLCAnLW9tYWUnLCAnPG91dGZpbGUubWFlPic=

>  <s_epik_input>  (1) 
W0NIMl0xW0NIMl1OKFtDSDNdKU9bQ0BIXTFDKFtDSDNdKShbQ0gzXSlPW0NIMl1bQ0gyXVtDQEBdMihDMzRbQ0gyXVtDSDJdNClDMyhbQ0gyXVtDSDJdW0NIMl1bQ0gyXTIpW0NIMl1bQ0gyXVtDSDJdW0NAQEhdKFtDQEhdKEYpW0NAQEhdKEYpTzUpW1MrXShbQ0gyXTYpW0NAQEhdKEYpW0NIMl1bQ0gyXVtDQEBIXShDNTY3KVtDSDJdNw==

>  <s_glide_docking_method>  (1) 
confgen

>  <s_i_glide_gridfile>  (1) 
gpcr_drd2_6luq_protein_autoprepared_prepared

>  <s_lp_Force_Field>  (1) 
S-OPLS

>  <s_lp_Variant>  (1) 
DiffSBDD_26_num_sample_50-1

>  <s_m_source_file>  (1) 
generated__ligand_DiffSBDD_2026-05-06_prepared.sdf

>  <GenAI_Model>  (1) 
DiffSBDD

>  <Protein>  (1) 
generic_title2

$$$$
DiffSBDD_10_num_sample_50
     RDKit          3D

  0  0  0  0  0  0  0  0  0  0999 V3000
M  V30 BEGIN CTAB
M  V30 COUNTS 72 73 0 0 1
M  V30 BEGIN ATOM
M  V30 1 C 13.863795 1.675326 -19.770896 0 CFG=2
M  V30 2 C 8.856517 6.129407 -12.079546 0
M  V30 3 C 7.395331 5.091229 -14.896094 0
M  V30 4 C 9.406384 3.625308 -17.685860 0 CFG=1
M  V30 5 C 12.704399 2.134187 -20.678525 0 CFG=2
M  V30 6 N 6.482463 6.548645 -11.891680 0
M  V30 7 N 10.195061 3.912391 -19.899288 0
M  V30 8 C 11.005446 2.937618 -19.223257 0 CFG=1
M  V30 9 S 15.476198 2.606742 -20.016259 0
M  V30 10 C 9.311101 7.524045 -11.672404 0
M  V30 11 S 16.798262 0.969295 -20.291658 0 CHG=-1
M  V30 12 C 14.682289 0.234529 -17.774112 0
M  V30 13 O 9.034844 6.617514 -7.114949 0
M  V30 14 O 15.484981 3.368609 -21.272890 0
M  V30 15 C 13.461085 0.857835 -20.982284 0 CFG=2
M  V30 16 C 6.907672 2.631510 -14.132584 0
M  V30 17 C 9.054003 4.237037 -19.055429 0 CFG=1
M  V30 18 N 9.434839 6.968314 -9.262137 0 CHG=1
M  V30 19 N 7.219576 4.453775 -12.552043 0
M  V30 20 C 10.172709 7.540383 -10.400934 0
M  V30 21 C 9.395422 1.129254 -18.405234 0
M  V30 22 C 13.638974 1.216701 -18.323072 0
M  V30 23 C 12.651550 3.228069 -21.735268 0
M  V30 24 C 8.240600 3.447090 -16.693735 0
M  V30 25 C 7.197416 4.088345 -13.776406 0
M  V30 26 O 12.590866 -0.230719 -20.769845 0
M  V30 27 C 7.565508 5.743287 -12.166490 0
M  V30 28 O 15.834827 3.272969 -18.753988 0
M  V30 29 F 7.964816 3.681373 -19.585275 0
M  V30 30 N 7.938549 1.722429 -13.662740 0
M  V30 31 C 9.854580 7.426131 -7.929353 0
M  V30 32 C 10.221734 2.378083 -18.029261 0 CFG=2
M  V30 33 O 11.434888 1.902460 -20.054012 0
M  V30 34 C 7.823312 4.809118 -16.155618 0
M  V30 35 H 9.638972 5.419649 -12.313272 0
M  V30 36 H 7.171845 6.114433 -14.632556 0
M  V30 37 H 10.114743 4.309303 -17.211513 0
M  V30 38 H 6.614093 7.398271 -11.350678 0
M  V30 39 H 9.854267 3.557429 -20.780801 0
M  V30 40 H 11.879727 3.461632 -18.830559 0
M  V30 41 H 8.455584 8.186849 -11.539400 0
M  V30 42 H 9.880957 7.941737 -12.500977 0
M  V30 43 H 14.388633 -0.127657 -16.789150 0
M  V30 44 H 14.793502 -0.631319 -18.428446 0
M  V30 45 H 15.658503 0.703830 -17.665309 0
M  V30 46 H 8.144890 6.969250 -7.091683 0
M  V30 47 H 14.116951 0.784975 -21.847971 0
M  V30 48 H 6.002404 2.356277 -13.590153 0
M  V30 49 H 6.634949 2.477419 -15.170967 0
M  V30 50 H 8.885916 5.313252 -19.008807 0
M  V30 51 H 9.466412 5.960266 -9.303445 0
M  V30 52 H 10.455283 8.569370 -10.177782 0
M  V30 53 H 11.095875 6.979758 -10.548414 0
M  V30 54 H 8.751221 1.303252 -19.266414 0
M  V30 55 H 10.045021 0.287772 -18.646210 0
M  V30 56 H 8.763964 0.812431 -17.575458 0
M  V30 57 H 13.594238 2.097197 -17.682123 0
M  V30 58 H 12.666679 0.732920 -18.244782 0
M  V30 59 H 13.413809 3.082146 -22.498889 0
M  V30 60 H 11.688764 3.204102 -22.245169 0
M  V30 61 H 12.780113 4.209335 -21.277937 0
M  V30 62 H 8.634847 2.811842 -15.908405 0
M  V30 63 H 7.398579 2.946005 -17.172241 0
M  V30 64 H 11.816057 0.140814 -20.365574 0
M  V30 65 H 8.075183 1.859662 -12.669689 0
M  V30 66 H 7.628695 0.767082 -13.775693 0
M  V30 67 H 9.654428 8.487213 -7.773810 0
M  V30 68 H 10.908865 7.212724 -7.748206 0
M  V30 69 H 10.912523 2.126495 -17.223567 0
M  V30 70 H 7.896731 5.624830 -16.859809 0
M  V30 71 H 5.561431 6.141933 -11.823828 0
M  V30 72 H 8.455098 7.255500 -9.370444 0
M  V30 END ATOM
M  V30 BEGIN BOND
M  V30 1 1 5 1
M  V30 2 1 8 7
M  V30 3 1 9 1
M  V30 4 1 10 2
M  V30 5 1 11 9
M  V30 6 2 14 9
M  V30 7 1 15 1
M  V30 8 1 15 5
M  V30 9 1 17 4
M  V30 10 1 17 7
M  V30 11 1 20 10
M  V30 12 1 20 18
M  V30 13 1 1 22 CFG=1
M  V30 14 1 22 12
M  V30 15 1 23 5
M  V30 16 1 24 4
M  V30 17 1 25 3
M  V30 18 1 25 16
M  V30 19 2 25 19
M  V30 20 1 26 15
M  V30 21 2 27 2
M  V30 22 1 27 6
M  V30 23 1 27 19
M  V30 24 2 28 9
M  V30 25 1 29 17
M  V30 26 1 30 16
M  V30 27 1 31 13
M  V30 28 1 31 18
M  V30 29 1 32 4
M  V30 30 1 32 8
M  V30 31 1 32 21
M  V30 32 1 5 33 CFG=1
M  V30 33 1 33 8
M  V30 34 2 34 3
M  V30 35 1 34 24
M  V30 36 1 35 2
M  V30 37 1 36 3
M  V30 38 1 4 37 CFG=1
M  V30 39 1 38 6
M  V30 40 1 39 7
M  V30 41 1 8 40 CFG=1
M  V30 42 1 41 10
M  V30 43 1 42 10
M  V30 44 1 43 12
M  V30 45 1 44 12
M  V30 46 1 45 12
M  V30 47 1 46 13
M  V30 48 1 15 47 CFG=3
M  V30 49 1 48 16
M  V30 50 1 49 16
M  V30 51 1 17 50 CFG=1
M  V30 52 1 51 18
M  V30 53 1 52 20
M  V30 54 1 53 20
M  V30 55 1 54 21
M  V30 56 1 55 21
M  V30 57 1 56 21
M  V30 58 1 57 22
M  V30 59 1 58 22
M  V30 60 1 59 23
M  V30 61 1 60 23
M  V30 62 1 61 23
M  V30 63 1 62 24
M  V30 64 1 63 24
M  V30 65 1 64 26
M  V30 66 1 65 30
M  V30 67 1 66 30
M  V30 68 1 67 31
M  V30 69 1 68 31
M  V30 70 1 32 69 CFG=1
M  V30 71 1 70 34
M  V30 72 1 71 6
M  V30 73 1 72 18
M  V30 END BOND
M  V30 END CTAB
M  END
>  <i_epik_Tot_Q>  (1) 
0

>  <i_epik_Tot_abs_Q>  (1) 
2

>  <i_i_glide_confnum>  (1) 
2882

>  <i_i_glide_lignum>  (1) 
21

>  <i_i_glide_posenum>  (1) 
255

>  <i_i_glide_rotatable_bonds>  (1) 
15

>  <i_lp_mmshare_version>  (1) 
72125

>  <i_m_source_file_index>  (1) 
11

>  <i_f3d_flags>  (1) 
0

>  <num_sample>  (1) 
50

>  <b_lp_Chiralities_Consistent>  (1) 
1

>  <r_epik_Charging_Adjusted_Penalty>  (1) 
0.33639934582642134

>  <r_epik_Ionization_Penalty>  (1) 
0.23315943830934333

>  <r_epik_Ionization_Penalty_Charging>  (1) 
0.10316865490585193

>  <r_epik_Ionization_Penalty_Neutral>  (1) 
0.12999078340349141

>  <r_epik_State_Penalty>  (1) 
0.23323069092056939

>  <r_glide_ring_energy>  (1) 
0

>  <r_i_docking_score>  (1) 
-3.7678486849634778

>  <r_i_glide_ecoul>  (1) 
-9.5971121228712946

>  <r_i_glide_eff_state_penalty>  (1) 
0.23323069092056939

>  <r_i_glide_einternal>  (1) 
22.973491049937046

>  <r_i_glide_emodel>  (1) 
-32.594025840722821

>  <r_i_glide_emodel_strain>  (1) 
1.7535894791419935

>  <r_i_glide_energy>  (1) 
-37.275227592761155

>  <r_i_glide_erotb>  (1) 
0.82510599487301828

>  <r_i_glide_esite>  (1) 
-0.27911036198131645

>  <r_i_glide_evdw>  (1) 
-27.678115469889864

>  <r_i_glide_gscore>  (1) 
-4.0010793758840473

>  <r_i_glide_gscore_strain>  (1) 
0

>  <r_i_glide_hbond>  (1) 
-0.46758456282313249

>  <r_i_glide_ligand_efficiency>  (1) 
-0.11081907896951405

>  <r_i_glide_ligand_efficiency_ln>  (1) 
-0.83242345908427029

>  <r_i_glide_ligand_efficiency_sa>  (1) 
-0.35901079603633912

>  <r_i_glide_lipo>  (1) 
-0.89828436506890263

>  <r_i_glide_metal>  (1) 
-0

>  <r_i_glide_rewards>  (1) 
-0.3577334889585253

>  <r_lp_Energy>  (1) 
25.793744999999998

>  <s_epik_Chemistry_Notes>  (1) 
This compound has an imine and may undergo hydrolysis. This compound contains an acetal/aminal-like group ( X-CH(R)-Y where X, Y are N, S, or O) that may be acid/base labile, releasing an aldehyde.

>  <s_epik_cmdline>  (1) 
J2VwaWtfcHl0aG9uJywgJy1waHQnLCAnMS4wJywgJy1waCcsICc3LjQnLCAnLXRuJywgJzgnLCAnLW1hJywgJzUwMCcsICctaW1hZScsICc8aW5maWxlLm1hZT4nLCAnLW9tYWUnLCAnPG91dGZpbGUubWFlPic=

>  <s_epik_input>  (1) 
W1NIXVMoPU8pKD1PKVtDQEBdMShbQ0gyXVtDSDNdKVtDQEBdKFtDSDNdKShbQ0BASF0xW09IXSlPW0NASF0oW0NAQEhdMltDSDNdKVtOSF1bQ0BASF0oRilbQ0BIXTJbQ0gyXS9bQ0hdPVtDSF1cQyhbQ0gyXVtOSDJdKT1OL0MoPU4vW0hdKS9bQ0gyXVtDSDJdW0NIMl1bTkhdW0NIMl1bT0hd

>  <s_glide_docking_method>  (1) 
confgen

>  <s_i_glide_gridfile>  (1) 
gpcr_drd2_6luq_protein_autoprepared_prepared

>  <s_lp_Force_Field>  (1) 
S-OPLS

>  <s_lp_Variant>  (1) 
DiffSBDD_10_num_sample_50-1

>  <s_m_source_file>  (1) 
generated__ligand_DiffSBDD_2026-05-06_prepared.sdf

>  <GenAI_Model>  (1) 
DiffSBDD

>  <Protein>  (1) 
generic_title2

$$$$
DiffSBDD_20_num_sample_50
     RDKit          3D

  0  0  0  0  0  0  0  0  0  0999 V3000
M  V30 BEGIN CTAB
M  V30 COUNTS 65 70 0 0 1
M  V30 BEGIN ATOM
M  V30 1 F 11.033243 8.838790 -5.262457 0
M  V30 2 F 9.399778 8.969300 -6.702189 0
M  V30 3 F 11.834856 6.482179 -6.528655 0
M  V30 4 C 7.219254 4.983111 -15.005011 0 CFG=1
M  V30 5 C 6.859998 5.086222 -20.751803 0
M  V30 6 C 8.375362 5.545412 -12.230849 0
M  V30 7 C 5.914810 8.127765 -21.842103 0
M  V30 8 C 7.238086 4.875761 -16.486952 0 CFG=1
M  V30 9 N 10.234691 6.927385 -9.397556 0
M  V30 10 C 10.307123 7.352009 -11.551997 0
M  V30 11 C 8.407896 7.626585 -21.904301 0
M  V30 12 C 7.034558 6.066616 -17.403993 0
M  V30 13 C 5.580366 9.386061 -22.165814 0
M  V30 14 N 7.495056 6.451942 -12.954683 0
M  V30 15 C 9.279823 6.290494 -11.294786 0
M  V30 16 C 6.433284 4.266348 -13.973216 0
M  V30 17 F 11.953064 8.281020 -7.726534 0
M  V30 18 C 9.336978 5.769326 -7.835241 0
M  V30 19 C 5.292034 7.173654 -20.865607 0 CFG=2
M  V30 20 C 8.546425 4.806567 -15.623101 0
M  V30 21 C 7.003470 7.230950 -22.375305 0 CFG=1
M  V30 22 C 9.434838 6.222658 -9.950846 0
M  V30 23 C 5.661376 7.447612 -19.417385 0
M  V30 24 C 11.117351 7.415214 -7.154248 0
M  V30 25 C 8.671703 5.326300 -9.127622 0
M  V30 26 C 6.612462 5.826997 -13.940756 0 CFG=2
M  V30 27 N 10.267123 6.743362 -8.134045 0
M  V30 28 C 6.174837 6.146719 -21.616801 0 CFG=1
M  V30 29 C 10.886992 7.723311 -10.279974 0
M  V30 30 S 5.518312 5.939681 -18.405174 0 CHG=1
M  V30 31 C 5.942584 4.617665 -19.606596 0
M  V30 32 C 10.266765 8.151474 -6.110343 0
M  V30 33 C 9.031645 8.757486 -22.731946 0
M  V30 34 H 7.133741 4.229386 -21.368099 0
M  V30 35 H 7.794833 5.458721 -20.334925 0
M  V30 36 H 7.785419 4.833061 -11.654213 0
M  V30 37 H 9.003606 4.982406 -12.920655 0
M  V30 38 H 6.964630 3.916796 -16.917590 0
M  V30 39 H 10.576568 7.769287 -12.507787 0
M  V30 40 H 8.407779 7.911365 -20.852958 0
M  V30 41 H 9.067234 6.760804 -21.974938 0
M  V30 42 H 7.902252 6.168322 -18.055540 0
M  V30 43 H 6.972006 6.969233 -16.798847 0
M  V30 44 H 4.748348 9.881172 -21.687343 0
M  V30 45 H 6.133611 9.934152 -22.914220 0
M  V30 46 H 6.953102 6.951526 -12.258686 0
M  V30 47 H 5.441238 3.911355 -14.234034 0
M  V30 48 H 6.986432 3.616764 -13.299596 0
M  V30 49 H 9.196295 5.457009 -6.809818 0
M  V30 50 H 4.234946 6.956207 -21.007285 0
M  V30 51 H 9.028793 3.838567 -15.512723 0
M  V30 52 H 9.212142 5.667476 -15.631458 0
M  V30 53 H 6.973244 7.035655 -23.447938 0
M  V30 54 H 5.062471 8.248898 -18.983967 0
M  V30 55 H 6.697718 7.769293 -19.376676 0
M  V30 56 H 7.900823 4.598594 -9.346346 0
M  V30 57 H 5.749986 6.402972 -14.270857 0
M  V30 58 H 5.532037 5.647070 -22.346253 0
M  V30 59 H 11.645552 8.426455 -9.975458 0
M  V30 60 H 5.007545 4.258479 -20.038498 0
M  V30 61 H 6.377361 3.766387 -19.084605 0
M  V30 62 H 9.680931 7.450752 -5.517184 0
M  V30 63 H 10.047131 8.969256 -22.395423 0
M  V30 64 H 9.083958 8.492327 -23.788295 0
M  V30 65 H 8.460201 9.681662 -22.650315 0
M  V30 END ATOM
M  V30 BEGIN BOND
M  V30 1 1 8 4
M  V30 2 1 12 8
M  V30 3 2 13 7
M  V30 4 1 14 6
M  V30 5 1 15 6
M  V30 6 1 15 10
M  V30 7 1 4 16 CFG=1
M  V30 8 1 19 7
M  V30 9 1 20 4
M  V30 10 1 20 8
M  V30 11 1 21 7
M  V30 12 1 21 11
M  V30 13 1 22 9
M  V30 14 2 22 15
M  V30 15 1 23 19
M  V30 16 1 24 3
M  V30 17 1 24 17
M  V30 18 2 25 18
M  V30 19 1 25 22
M  V30 20 1 26 4
M  V30 21 1 26 14
M  V30 22 1 26 16
M  V30 23 1 27 9
M  V30 24 1 27 18
M  V30 25 1 27 24
M  V30 26 1 28 5
M  V30 27 1 28 19
M  V30 28 1 28 21
M  V30 29 1 29 9
M  V30 30 2 29 10
M  V30 31 1 30 12 CFG=1
M  V30 32 1 30 23
M  V30 33 1 31 5
M  V30 34 1 31 30
M  V30 35 1 32 1
M  V30 36 1 32 2
M  V30 37 1 32 24
M  V30 38 1 33 11
M  V30 39 1 34 5
M  V30 40 1 35 5
M  V30 41 1 36 6
M  V30 42 1 37 6
M  V30 43 1 8 38 CFG=3
M  V30 44 1 39 10
M  V30 45 1 40 11
M  V30 46 1 41 11
M  V30 47 1 42 12
M  V30 48 1 43 12
M  V30 49 1 44 13
M  V30 50 1 45 13
M  V30 51 1 46 14
M  V30 52 1 47 16
M  V30 53 1 48 16
M  V30 54 1 49 18
M  V30 55 1 19 50 CFG=1
M  V30 56 1 51 20
M  V30 57 1 52 20
M  V30 58 1 21 53 CFG=3
M  V30 59 1 54 23
M  V30 60 1 55 23
M  V30 61 1 56 25
M  V30 62 1 26 57 CFG=3
M  V30 63 1 28 58 CFG=3
M  V30 64 1 59 29
M  V30 65 1 60 31
M  V30 66 1 61 31
M  V30 67 1 62 32
M  V30 68 1 63 33
M  V30 69 1 64 33
M  V30 70 1 65 33
M  V30 END BOND
M  V30 END CTAB
M  END
>  <i_epik_Tot_Q>  (1) 
1

>  <i_epik_Tot_abs_Q>  (1) 
1

>  <i_i_glide_confnum>  (1) 
83

>  <i_i_glide_lignum>  (1) 
58

>  <i_i_glide_posenum>  (1) 
382

>  <i_i_glide_rotatable_bonds>  (1) 
8

>  <i_lp_mmshare_version>  (1) 
72125

>  <i_m_source_file_index>  (1) 
21

>  <i_f3d_flags>  (1) 
0

>  <num_sample>  (1) 
50

>  <b_lp_Chiralities_Consistent>  (1) 
1

>  <r_epik_Charging_Adjusted_Penalty>  (1) 
0.77841525475286655

>  <r_epik_Ionization_Penalty>  (1) 
0.77841525475286644

>  <r_epik_Ionization_Penalty_Charging>  (1) 
0

>  <r_epik_Ionization_Penalty_Neutral>  (1) 
0.77841525475286644

>  <r_epik_State_Penalty>  (1) 
0.77841525475286655

>  <r_glide_ring_energy>  (1) 
0

>  <r_i_docking_score>  (1) 
-3.7665215809381927

>  <r_i_glide_ecoul>  (1) 
-1.4079117581152183

>  <r_i_glide_eff_state_penalty>  (1) 
0.77841525475286655

>  <r_i_glide_einternal>  (1) 
3.4265455485876268

>  <r_i_glide_emodel>  (1) 
-40.978458758421439

>  <r_i_glide_emodel_strain>  (1) 
1.3667764831332079

>  <r_i_glide_energy>  (1) 
-33.811566020775722

>  <r_i_glide_erotb>  (1) 
0.52280608296046926

>  <r_i_glide_esite>  (1) 
-0.11968324067462

>  <r_i_glide_evdw>  (1) 
-32.403654262660503

>  <r_i_glide_gscore>  (1) 
-4.5449368356910593

>  <r_i_glide_gscore_strain>  (1) 
0

>  <r_i_glide_hbond>  (1) 
0

>  <r_i_glide_ligand_efficiency>  (1) 
-0.11413701760418765

>  <r_i_glide_ligand_efficiency_ln>  (1) 
-0.83765489759563283

>  <r_i_glide_ligand_efficiency_sa>  (1) 
-0.36609840228876994

>  <r_i_glide_lipo>  (1) 
-1.7139492287592391

>  <r_i_glide_metal>  (1) 
-0

>  <r_i_glide_rewards>  (1) 
-1.4027409723673612

>  <r_lp_Energy>  (1) 
9.9394679999999997

>  <s_epik_cmdline>  (1) 
J2VwaWtfcHl0aG9uJywgJy1waHQnLCAnMS4wJywgJy1waCcsICc3LjQnLCAnLXRuJywgJzgnLCAnLW1hJywgJzUwMCcsICctaW1hZScsICc8aW5maWxlLm1hZT4nLCAnLW9tYWUnLCAnPG91dGZpbGUubWFlPic=

>  <s_epik_input>  (1) 
RltDSF0oRilDKEYpKEYpbjFbY0hdW2NIXWMobjEyKWMoW2NIXVtjSF0yKVtDSDJdW05IXVtDQEBIXTNbQ0gyXVtDQF0zNFtDQEhdKFtDSDJdNClbQ0gyXVtTK10oW0NIMl01KVtDSDJdW0NIMl1bQ0BASF0oW0NAQEhdNTYpW0NAQEhdKEM2PVtDSDJdKVtDSDJdW0NIM10=

>  <s_glide_docking_method>  (1) 
confgen

>  <s_i_glide_gridfile>  (1) 
gpcr_drd2_6luq_protein_autoprepared_prepared

>  <s_lp_Force_Field>  (1) 
S-OPLS

>  <s_lp_Variant>  (1) 
DiffSBDD_20_num_sample_50-2

>  <s_m_source_file>  (1) 
generated__ligand_DiffSBDD_2026-05-06_prepared.sdf

>  <GenAI_Model>  (1) 
DiffSBDD

>  <Protein>  (1) 
generic_title2

$$$$
DiffSBDD_10_num_sample_50
     RDKit          3D

  0  0  0  0  0  0  0  0  0  0999 V3000
M  V30 BEGIN CTAB
M  V30 COUNTS 71 72 0 0 1
M  V30 BEGIN ATOM
M  V30 1 C 5.997630 7.287566 -20.416329 0 CFG=2
M  V30 2 C 10.189906 6.521721 -8.754100 0
M  V30 3 C 8.926911 3.531258 -12.032458 0
M  V30 4 C 7.301412 4.469078 -15.413579 0 CFG=1
M  V30 5 C 5.534547 6.791004 -19.021242 0 CFG=2
M  V30 6 N 8.235777 5.291523 -8.056917 0
M  V30 7 N 7.977901 4.689534 -17.662939 0
M  V30 8 C 6.725381 5.367164 -17.505122 0 CFG=1
M  V30 9 S 4.955168 8.621436 -21.230236 0
M  V30 10 C 10.110859 7.579387 -7.666812 0
M  V30 11 S 4.234899 7.546156 -22.904301 0 CHG=-1
M  V30 12 C 7.715551 7.038054 -22.327567 0
M  V30 13 O 12.784168 9.769304 -5.640844 0
M  V30 14 O 3.788406 8.972000 -20.413657 0
M  V30 15 C 5.275396 5.962942 -20.268068 0 CFG=2
M  V30 16 C 7.777138 5.766419 -11.264199 0
M  V30 17 C 8.524962 4.416836 -16.347155 0 CFG=1
M  V30 18 N 11.040341 8.292148 -5.491458 0
M  V30 19 N 9.434829 4.569625 -9.908033 0
M  V30 20 C 11.252530 7.431991 -6.648951 0
M  V30 21 C 6.655668 7.014585 -15.461635 0
M  V30 22 C 7.467237 7.362657 -20.846266 0
M  V30 23 C 4.372667 7.239899 -18.144779 0
M  V30 24 C 7.624082 4.660014 -13.932858 0
M  V30 25 C 8.767714 4.624432 -10.998919 0
M  V30 26 O 6.080369 4.803592 -20.365110 0
M  V30 27 C 9.313581 5.507480 -8.886627 0
M  V30 28 O 5.833315 9.687970 -21.737563 0
M  V30 29 F 9.414202 5.369435 -16.067335 0
M  V30 30 N 6.402843 5.369375 -10.994202 0
M  V30 31 C 11.382384 9.684504 -5.730621 0
M  V30 32 C 6.420928 5.579926 -16.007817 0 CFG=2
M  V30 33 O 6.706037 6.548958 -18.237398 0
M  V30 34 C 8.419617 3.541470 -13.296011 0
M  V30 35 H 11.009354 6.611252 -9.451998 0
M  V30 36 H 9.500160 2.681049 -11.700370 0
M  V30 37 H 6.757480 3.527890 -15.521295 0
M  V30 38 H 7.905787 6.028307 -7.443330 0
M  V30 39 H 8.644256 5.257511 -18.165887 0
M  V30 40 H 5.965716 4.693800 -17.901998 0
M  V30 41 H 9.146840 7.527279 -7.158597 0
M  V30 42 H 10.142506 8.555752 -8.150311 0
M  V30 43 H 8.783431 7.046742 -22.547727 0
M  V30 44 H 7.329946 6.051808 -22.589370 0
M  V30 45 H 7.242209 7.766841 -22.985599 0
M  V30 46 H 13.140988 9.768712 -6.515198 0
M  V30 47 H 4.257557 5.838948 -20.631487 0
M  V30 48 H 8.002588 6.569349 -10.584241 0
M  V30 49 H 7.910906 6.300556 -12.189255 0
M  V30 50 H 9.043854 3.459084 -16.316184 0
M  V30 51 H 10.070203 8.213375 -5.223077 0
M  V30 52 H 12.224419 7.615205 -7.108683 0
M  V30 53 H 11.267567 6.403025 -6.286550 0
M  V30 54 H 7.665214 7.190196 -15.091941 0
M  V30 55 H 6.408698 7.798915 -16.174893 0
M  V30 56 H 6.013485 7.178218 -14.595893 0
M  V30 57 H 7.834703 8.366168 -20.641420 0
M  V30 58 H 8.068700 6.685154 -20.241820 0
M  V30 59 H 3.445468 7.370015 -18.691582 0
M  V30 60 H 4.162908 6.491628 -17.384305 0
M  V30 61 H 4.622690 8.169044 -17.642466 0
M  V30 62 H 6.682873 4.820047 -13.414780 0
M  V30 63 H 8.268603 5.530920 -13.899167 0
M  V30 64 H 6.877874 4.966969 -19.882287 0
M  V30 65 H 6.349748 5.076688 -10.028578 0
M  V30 66 H 5.850430 6.216527 -11.019628 0
M  V30 67 H 10.943768 10.302293 -4.946206 0
M  V30 68 H 11.034436 10.052110 -6.691646 0
M  V30 69 H 5.368662 5.369391 -15.840599 0
M  V30 70 H 8.597350 2.682447 -13.923930 0
M  V30 71 H 7.544436 4.597377 -8.295409 0
M  V30 END ATOM
M  V30 BEGIN BOND
M  V30 1 1 5 1
M  V30 2 1 8 7
M  V30 3 1 9 1
M  V30 4 1 10 2
M  V30 5 1 11 9
M  V30 6 2 14 9
M  V30 7 1 15 1
M  V30 8 1 15 5
M  V30 9 1 17 4
M  V30 10 1 17 7
M  V30 11 1 20 10
M  V30 12 1 20 18
M  V30 13 1 1 22 CFG=1
M  V30 14 1 22 12
M  V30 15 1 23 5
M  V30 16 1 24 4
M  V30 17 1 25 3
M  V30 18 1 25 16
M  V30 19 2 25 19
M  V30 20 1 26 15
M  V30 21 2 27 2
M  V30 22 1 27 6
M  V30 23 1 27 19
M  V30 24 2 28 9
M  V30 25 1 29 17
M  V30 26 1 30 16
M  V30 27 1 31 13
M  V30 28 1 31 18
M  V30 29 1 32 4
M  V30 30 1 32 8
M  V30 31 1 32 21
M  V30 32 1 5 33 CFG=1
M  V30 33 1 33 8
M  V30 34 2 34 3
M  V30 35 1 34 24
M  V30 36 1 35 2
M  V30 37 1 36 3
M  V30 38 1 4 37 CFG=1
M  V30 39 1 38 6
M  V30 40 1 39 7
M  V30 41 1 8 40 CFG=3
M  V30 42 1 41 10
M  V30 43 1 42 10
M  V30 44 1 43 12
M  V30 45 1 44 12
M  V30 46 1 45 12
M  V30 47 1 46 13
M  V30 48 1 15 47 CFG=3
M  V30 49 1 48 16
M  V30 50 1 49 16
M  V30 51 1 17 50 CFG=3
M  V30 52 1 51 18
M  V30 53 1 52 20
M  V30 54 1 53 20
M  V30 55 1 54 21
M  V30 56 1 55 21
M  V30 57 1 56 21
M  V30 58 1 57 22
M  V30 59 1 58 22
M  V30 60 1 59 23
M  V30 61 1 60 23
M  V30 62 1 61 23
M  V30 63 1 62 24
M  V30 64 1 63 24
M  V30 65 1 64 26
M  V30 66 1 65 30
M  V30 67 1 66 30
M  V30 68 1 67 31
M  V30 69 1 68 31
M  V30 70 1 32 69 CFG=3
M  V30 71 1 70 34
M  V30 72 1 71 6
M  V30 END BOND
M  V30 END CTAB
M  END
>  <i_epik_Tot_Q>  (1) 
-1

>  <i_epik_Tot_abs_Q>  (1) 
1

>  <i_i_glide_confnum>  (1) 
2217

>  <i_i_glide_lignum>  (1) 
39

>  <i_i_glide_posenum>  (1) 
368

>  <i_i_glide_rotatable_bonds>  (1) 
15

>  <i_lp_mmshare_version>  (1) 
72125

>  <i_m_source_file_index>  (1) 
11

>  <i_f3d_flags>  (1) 
0

>  <num_sample>  (1) 
50

>  <b_lp_Chiralities_Consistent>  (1) 
1

>  <r_epik_Charging_Adjusted_Penalty>  (1) 
1.239197207418439

>  <r_epik_Ionization_Penalty>  (1) 
1.2496715491914541

>  <r_epik_Ionization_Penalty_Charging>  (1) 
1.1069707349969355e-11

>  <r_epik_Ionization_Penalty_Neutral>  (1) 
1.2496715491803843

>  <r_epik_State_Penalty>  (1) 
1.2391972074073692

>  <r_glide_ring_energy>  (1) 
0

>  <r_i_docking_score>  (1) 
-3.752581842167265

>  <r_i_glide_ecoul>  (1) 
-3.9548206506631498

>  <r_i_glide_eff_state_penalty>  (1) 
1.2391972074073692

>  <r_i_glide_einternal>  (1) 
12.798988993703531

>  <r_i_glide_emodel>  (1) 
-40.203636557723051

>  <r_i_glide_emodel_strain>  (1) 
3.7380354064513881

>  <r_i_glide_energy>  (1) 
-39.522848313820333

>  <r_i_glide_erotb>  (1) 
0.82803537691766171

>  <r_i_glide_esite>  (1) 
-0.042094869417561805

>  <r_i_glide_evdw>  (1) 
-35.568027663157181

>  <r_i_glide_gscore>  (1) 
-4.9917790495746344

>  <r_i_glide_gscore_strain>  (1) 
0

>  <r_i_glide_hbond>  (1) 
-0.18664276407434577

>  <r_i_glide_ligand_efficiency>  (1) 
-0.11037005418139015

>  <r_i_glide_ligand_efficiency_ln>  (1) 
-0.8290505852901513

>  <r_i_glide_ligand_efficiency_sa>  (1) 
-0.35755613003366682

>  <r_i_glide_lipo>  (1) 
-1.8992497729159246

>  <r_i_glide_metal>  (1) 
-0

>  <r_i_glide_rewards>  (1) 
-1.3202025393271324

>  <r_lp_Energy>  (1) 
22.583292999999998

>  <s_epik_Chemistry_Notes>  (1) 
This compound has an imine and may undergo hydrolysis. This compound contains an acetal/aminal-like group ( X-CH(R)-Y where X, Y are N, S, or O) that may be acid/base labile, releasing an aldehyde.

>  <s_epik_cmdline>  (1) 
J2VwaWtfcHl0aG9uJywgJy1waHQnLCAnMS4wJywgJy1waCcsICc3LjQnLCAnLXRuJywgJzgnLCAnLW1hJywgJzUwMCcsICctaW1hZScsICc8aW5maWxlLm1hZT4nLCAnLW9tYWUnLCAnPG91dGZpbGUubWFlPic=

>  <s_epik_input>  (1) 
W1NIXVMoPU8pKD1PKVtDQEBdMShbQ0gyXVtDSDNdKVtDQEBdKFtDSDNdKShbQ0BASF0xW09IXSlPW0NASF0oW0NAQEhdMltDSDNdKVtOSF1bQ0BASF0oRilbQ0BIXTJbQ0gyXS9bQ0hdPVtDSF1cQyhbQ0gyXVtOSDJdKT1OXEMoPU5cW0hdKVxbQ0gyXVtDSDJdW0NIMl1bTkhdW0NIMl1bT0hd

>  <s_glide_docking_method>  (1) 
confgen

>  <s_i_glide_gridfile>  (1) 
gpcr_drd2_6luq_protein_autoprepared_prepared

>  <s_lp_Force_Field>  (1) 
S-OPLS

>  <s_lp_Variant>  (1) 
DiffSBDD_10_num_sample_50-19

>  <s_m_source_file>  (1) 
generated__ligand_DiffSBDD_2026-05-06_prepared.sdf

>  <GenAI_Model>  (1) 
DiffSBDD

>  <Protein>  (1) 
generic_title2

$$$$
DiffSBDD_10_num_sample_50
     RDKit          3D

  0  0  0  0  0  0  0  0  0  0999 V3000
M  V30 BEGIN CTAB
M  V30 COUNTS 72 73 0 0 1
M  V30 BEGIN ATOM
M  V30 1 C 6.424830 6.550363 -21.302707 0 CFG=2
M  V30 2 C 9.677753 7.278651 -9.654393 0
M  V30 3 C 7.234919 6.255403 -12.313876 0
M  V30 4 C 5.739960 6.131006 -15.446764 0 CFG=1
M  V30 5 C 6.141827 5.585426 -20.145795 0 CFG=2
M  V30 6 N 10.234862 6.256607 -11.776963 0
M  V30 7 N 6.983339 5.211530 -17.288382 0
M  V30 8 C 5.754496 5.770554 -17.772683 0 CFG=1
M  V30 9 S 5.930665 5.948296 -22.999042 0
M  V30 10 C 10.716860 8.382359 -9.704916 0
M  V30 11 S 3.834938 5.769932 -22.730098 0 CHG=-1
M  V30 12 C 5.054267 8.725581 -21.256390 0
M  V30 13 O 10.634796 7.540164 -5.491911 0
M  V30 14 O 6.151779 7.036901 -23.960496 0
M  V30 15 C 7.542800 5.710110 -20.704846 0 CFG=2
M  V30 16 C 6.345384 4.356284 -10.831834 0
M  V30 17 C 7.017070 5.349513 -15.841521 0 CFG=1
M  V30 18 N 11.526401 7.512928 -7.493141 0 CHG=1
M  V30 19 N 8.527261 5.368772 -10.462460 0
M  V30 20 C 11.920986 8.092480 -8.795123 0
M  V30 21 C 5.589165 8.170130 -16.938572 0
M  V30 22 C 6.445490 8.078628 -21.202890 0
M  V30 23 C 5.360244 4.271548 -20.231194 0
M  V30 24 C 5.891448 7.089703 -14.246420 0
M  V30 25 C 7.452777 5.344896 -11.151151 0
M  V30 26 O 8.392215 6.357920 -19.777291 0
M  V30 27 C 9.501516 6.347937 -10.604918 0
M  V30 28 O 6.481258 4.608214 -23.257438 0
M  V30 29 F 8.139474 5.968373 -15.490681 0
M  V30 30 N 6.234783 3.369230 -11.891681 0
M  V30 31 C 10.789046 8.408816 -6.588697 0
M  V30 32 C 5.167888 6.723009 -16.729204 0 CFG=2
M  V30 33 O 5.868312 6.406485 -19.003396 0
M  V30 34 C 6.110138 6.236814 -13.039000 0
M  V30 35 H 9.043306 7.258098 -8.778584 0
M  V30 36 H 8.038177 6.929707 -12.560292 0
M  V30 37 H 5.035166 5.369113 -15.137273 0
M  V30 38 H 10.952238 6.925737 -12.013460 0
M  V30 39 H 7.793575 5.655894 -17.698890 0
M  V30 40 H 5.036055 4.969463 -17.891558 0
M  V30 41 H 10.223330 9.305099 -9.401467 0
M  V30 42 H 11.065955 8.543984 -10.720141 0
M  V30 43 H 5.113669 9.797994 -21.077891 0
M  V30 44 H 4.591144 8.582645 -22.231694 0
M  V30 45 H 4.387459 8.297886 -20.507117 0
M  V30 46 H 9.710328 7.412594 -5.318405 0
M  V30 47 H 7.990457 4.874682 -21.239125 0
M  V30 48 H 6.569068 3.846126 -9.894284 0
M  V30 49 H 5.400431 4.879307 -10.687043 0
M  V30 50 H 7.046421 4.369265 -15.364154 0
M  V30 51 H 12.352568 7.194709 -7.008823 0
M  V30 52 H 12.525395 8.988218 -8.647774 0
M  V30 53 H 12.566224 7.371150 -9.296250 0
M  V30 54 H 6.634748 8.287308 -16.691659 0
M  V30 55 H 5.425869 8.524120 -17.955476 0
M  V30 56 H 5.036394 8.829338 -16.271175 0
M  V30 57 H 6.930283 8.383423 -20.279923 0
M  V30 58 H 7.071382 8.474473 -22.003789 0
M  V30 59 H 5.506130 3.760985 -21.180006 0
M  V30 60 H 5.687017 3.581802 -19.452257 0
M  V30 61 H 4.293003 4.460092 -20.116350 0
M  V30 62 H 5.027174 7.723270 -14.087975 0
M  V30 63 H 6.735062 7.765227 -14.388699 0
M  V30 64 H 7.858486 7.007055 -19.340925 0
M  V30 65 H 5.498091 2.712356 -11.678873 0
M  V30 66 H 5.981348 3.813631 -12.760272 0
M  V30 67 H 9.824516 8.715556 -6.995447 0
M  V30 68 H 11.375052 9.286455 -6.311180 0
M  V30 69 H 4.079852 6.657866 -16.758638 0
M  V30 70 H 5.303435 5.573454 -12.777231 0
M  V30 71 H 10.058754 5.530107 -12.459042 0
M  V30 72 H 10.940426 6.710974 -7.679640 0
M  V30 END ATOM
M  V30 BEGIN BOND
M  V30 1 1 5 1
M  V30 2 1 8 7
M  V30 3 1 9 1
M  V30 4 1 10 2
M  V30 5 1 11 9
M  V30 6 2 14 9
M  V30 7 1 15 1
M  V30 8 1 15 5
M  V30 9 1 17 4
M  V30 10 1 17 7
M  V30 11 1 20 10
M  V30 12 1 20 18
M  V30 13 1 1 22 CFG=1
M  V30 14 1 22 12
M  V30 15 1 23 5
M  V30 16 1 24 4
M  V30 17 1 25 3
M  V30 18 1 25 16
M  V30 19 2 25 19
M  V30 20 1 26 15
M  V30 21 2 27 2
M  V30 22 1 27 6
M  V30 23 1 27 19
M  V30 24 2 28 9
M  V30 25 1 29 17
M  V30 26 1 30 16
M  V30 27 1 31 13
M  V30 28 1 31 18
M  V30 29 1 32 4
M  V30 30 1 32 8
M  V30 31 1 32 21
M  V30 32 1 5 33 CFG=1
M  V30 33 1 33 8
M  V30 34 2 34 3
M  V30 35 1 34 24
M  V30 36 1 35 2
M  V30 37 1 36 3
M  V30 38 1 4 37 CFG=1
M  V30 39 1 38 6
M  V30 40 1 39 7
M  V30 41 1 8 40 CFG=3
M  V30 42 1 41 10
M  V30 43 1 42 10
M  V30 44 1 43 12
M  V30 45 1 44 12
M  V30 46 1 45 12
M  V30 47 1 46 13
M  V30 48 1 15 47 CFG=3
M  V30 49 1 48 16
M  V30 50 1 49 16
M  V30 51 1 17 50 CFG=1
M  V30 52 1 51 18
M  V30 53 1 52 20
M  V30 54 1 53 20
M  V30 55 1 54 21
M  V30 56 1 55 21
M  V30 57 1 56 21
M  V30 58 1 57 22
M  V30 59 1 58 22
M  V30 60 1 59 23
M  V30 61 1 60 23
M  V30 62 1 61 23
M  V30 63 1 62 24
M  V30 64 1 63 24
M  V30 65 1 64 26
M  V30 66 1 65 30
M  V30 67 1 66 30
M  V30 68 1 67 31
M  V30 69 1 68 31
M  V30 70 1 32 69 CFG=1
M  V30 71 1 70 34
M  V30 72 1 71 6
M  V30 73 1 72 18
M  V30 END BOND
M  V30 END CTAB
M  END
>  <i_epik_Tot_Q>  (1) 
0

>  <i_epik_Tot_abs_Q>  (1) 
2

>  <i_i_glide_confnum>  (1) 
2922

>  <i_i_glide_lignum>  (1) 
22

>  <i_i_glide_posenum>  (1) 
198

>  <i_i_glide_rotatable_bonds>  (1) 
15

>  <i_lp_mmshare_version>  (1) 
72125

>  <i_m_source_file_index>  (1) 
11

>  <i_f3d_flags>  (1) 
0

>  <num_sample>  (1) 
50

>  <b_lp_Chiralities_Consistent>  (1) 
1

>  <r_epik_Charging_Adjusted_Penalty>  (1) 
0.33639934582642134

>  <r_epik_Ionization_Penalty>  (1) 
0.23315943830934333

>  <r_epik_Ionization_Penalty_Charging>  (1) 
0.10316865490585193

>  <r_epik_Ionization_Penalty_Neutral>  (1) 
0.12999078340349141

>  <r_epik_State_Penalty>  (1) 
0.23323069092056939

>  <r_glide_ring_energy>  (1) 
0

>  <r_i_docking_score>  (1) 
-3.7503991727403188

>  <r_i_glide_ecoul>  (1) 
-0.96725009950252383

>  <r_i_glide_eff_state_penalty>  (1) 
0.23323069092056939

>  <r_i_glide_einternal>  (1) 
4.3597038641770958

>  <r_i_glide_emodel>  (1) 
-40.723466456613821

>  <r_i_glide_emodel_strain>  (1) 
1.7192850627641576

>  <r_i_glide_energy>  (1) 
-31.251735200757402

>  <r_i_glide_erotb>  (1) 
0.82510599487301828

>  <r_i_glide_esite>  (1) 
-0.067756856766005499

>  <r_i_glide_evdw>  (1) 
-30.284485101254877

>  <r_i_glide_gscore>  (1) 
-3.9836298636608882

>  <r_i_glide_gscore_strain>  (1) 
0

>  <r_i_glide_hbond>  (1) 
-0.098008323015975701

>  <r_i_glide_ligand_efficiency>  (1) 
-0.11030585802177408

>  <r_i_glide_ligand_efficiency_ln>  (1) 
-0.82856837239193515

>  <r_i_glide_ligand_efficiency_sa>  (1) 
-0.35734815939737791

>  <r_i_glide_lipo>  (1) 
-1.6155011007290585

>  <r_i_glide_metal>  (1) 
-0

>  <r_i_glide_rewards>  (1) 
-1.368157808034745

>  <r_lp_Energy>  (1) 
22.791024

>  <s_epik_Chemistry_Notes>  (1) 
This compound has an imine and may undergo hydrolysis. This compound contains an acetal/aminal-like group ( X-CH(R)-Y where X, Y are N, S, or O) that may be acid/base labile, releasing an aldehyde.

>  <s_epik_cmdline>  (1) 
J2VwaWtfcHl0aG9uJywgJy1waHQnLCAnMS4wJywgJy1waCcsICc3LjQnLCAnLXRuJywgJzgnLCAnLW1hJywgJzUwMCcsICctaW1hZScsICc8aW5maWxlLm1hZT4nLCAnLW9tYWUnLCAnPG91dGZpbGUubWFlPic=

>  <s_epik_input>  (1) 
W1NIXVMoPU8pKD1PKVtDQEBdMShbQ0gyXVtDSDNdKVtDQEBdKFtDSDNdKShbQ0BASF0xW09IXSlPW0NASF0oW0NAQEhdMltDSDNdKVtOSF1bQ0BASF0oRilbQ0BIXTJbQ0gyXVxbQ0hdPVtDSF1cQyhbQ0gyXVtOSDJdKT1OL0MoPU4vW0hdKS9bQ0gyXVtDSDJdW0NIMl1bTkhdW0NIMl1bT0hd

>  <s_glide_docking_method>  (1) 
confgen

>  <s_i_glide_gridfile>  (1) 
gpcr_drd2_6luq_protein_autoprepared_prepared

>  <s_lp_Force_Field>  (1) 
S-OPLS

>  <s_lp_Variant>  (1) 
DiffSBDD_10_num_sample_50-2

>  <s_m_source_file>  (1) 
generated__ligand_DiffSBDD_2026-05-06_prepared.sdf

>  <GenAI_Model>  (1) 
DiffSBDD

>  <Protein>  (1) 
generic_title2

$$$$
DiffSBDD_14_num_sample_50
     RDKit          3D

  0  0  0  0  0  0  0  0  0  0999 V3000
M  V30 BEGIN CTAB
M  V30 COUNTS 69 73 0 0 1
M  V30 BEGIN ATOM
M  V30 1 C 11.553362 7.902475 -5.442617 0 CFG=2
M  V30 2 C 6.850390 4.168585 -11.295865 0 CFG=1
M  V30 3 C 13.007400 7.544589 -3.259767 0
M  V30 4 C 11.281923 10.276187 -5.218815 0
M  V30 5 C 9.658507 6.923115 -8.359386 0
M  V30 6 C 6.566580 5.843502 -18.695629 0
M  V30 7 O 6.892039 5.455388 -19.978047 0
M  V30 8 C 6.539417 4.723437 -12.644899 0
M  V30 9 O 7.971907 6.177167 -11.623240 0
M  V30 10 C 8.036865 5.560990 -15.187050 0
M  V30 11 N 7.835628 6.332302 -13.970827 0
M  V30 12 N 8.649925 6.038258 -8.469256 0
M  V30 13 C 10.083435 7.612844 -5.824348 0 CFG=2
M  V30 14 C 11.722109 8.023300 -3.901460 0 CFG=1
M  V30 15 C 8.569774 5.012966 -9.507767 0
M  V30 16 C 4.706054 6.160984 -20.653051 0
M  V30 17 O 4.564633 6.945994 -19.483864 0
M  V30 18 C 12.365571 9.296549 -7.463740 0
M  V30 19 O 10.636313 6.924887 -9.100214 0
M  V30 20 C 9.812645 6.169360 -5.539422 0
M  V30 21 C 7.483895 5.343555 -10.559673 0 CFG=2
M  V30 22 C 7.412789 5.501532 -17.630272 0
M  V30 23 O 5.647870 3.767841 -10.691204 0
M  V30 24 C 6.188947 6.125568 -21.014783 0
M  V30 25 C 12.005935 9.227584 -6.010315 0
M  V30 26 S 11.435123 9.769277 -3.497951 0
M  V30 27 C 5.062424 6.980061 -17.137097 0
M  V30 28 C 9.520749 7.978916 -7.237387 0
M  V30 29 C 13.396894 9.635989 -6.406894 0
M  V30 30 C 7.094592 5.905123 -16.320306 0
M  V30 31 C 5.911777 6.640405 -16.073324 0
M  V30 32 C 7.816346 5.495627 -12.827083 0 CFG=2
M  V30 33 C 5.387421 6.591017 -18.448087 0
M  V30 34 H 12.108424 7.059966 -5.845910 0
M  V30 35 H 7.559885 3.369521 -11.492000 0
M  V30 36 H 12.974400 6.472920 -3.084780 0
M  V30 37 H 13.836071 7.770320 -3.891601 0
M  V30 38 H 13.172395 8.012194 -2.289847 0
M  V30 39 H 11.676066 11.272321 -5.402089 0
M  V30 40 H 10.235445 10.265045 -5.491487 0
M  V30 41 H 6.409092 3.961940 -13.415384 0
M  V30 42 H 5.688424 5.407134 -12.643646 0
M  V30 43 H 9.060064 5.743839 -15.520358 0
M  V30 44 H 7.974337 4.487153 -15.007005 0
M  V30 45 H 7.013710 6.910495 -14.040889 0
M  V30 46 H 7.863442 6.124983 -7.837917 0
M  V30 47 H 9.490648 8.156497 -5.109122 0
M  V30 48 H 11.034974 7.368591 -3.395072 0
M  V30 49 H 8.212581 4.169392 -8.932032 0
M  V30 50 H 9.522827 4.737702 -9.955092 0
M  V30 51 H 4.115219 6.609051 -21.452708 0
M  V30 52 H 4.309636 5.160290 -20.479120 0
M  V30 53 H 12.544138 8.369016 -8.006264 0
M  V30 54 H 11.834851 10.061019 -8.023819 0
M  V30 55 H 10.433327 5.574204 -6.204471 0
M  V30 56 H 10.029805 5.857805 -4.522948 0
M  V30 57 H 8.772842 5.929011 -5.744636 0
M  V30 58 H 6.642361 5.781968 -10.044445 0
M  V30 59 H 8.316049 4.937570 -17.820248 0
M  V30 60 H 5.403825 4.420987 -10.045177 0
M  V30 61 H 6.577916 7.136479 -21.136926 0
M  V30 62 H 6.335496 5.597630 -21.957696 0
M  V30 63 H 4.163706 7.549033 -16.949662 0
M  V30 64 H 9.859018 8.947844 -7.592013 0
M  V30 65 H 8.450925 8.133077 -7.096202 0
M  V30 66 H 13.661631 10.674899 -6.291465 0
M  V30 67 H 14.234500 8.975534 -6.286356 0
M  V30 68 H 5.659189 6.949470 -15.068945 0
M  V30 69 H 8.674796 4.818312 -12.877728 0
M  V30 END ATOM
M  V30 BEGIN BOND
M  V30 1 1 7 6
M  V30 2 1 8 2
M  V30 3 1 11 10
M  V30 4 1 12 5
M  V30 5 1 13 1
M  V30 6 1 14 1
M  V30 7 1 14 3
M  V30 8 1 15 12
M  V30 9 1 17 16
M  V30 10 2 19 5
M  V30 11 1 20 13
M  V30 12 1 21 2
M  V30 13 1 21 9
M  V30 14 1 21 15
M  V30 15 1 22 6
M  V30 16 1 23 2
M  V30 17 1 24 7
M  V30 18 1 24 16
M  V30 19 1 25 1
M  V30 20 1 25 4
M  V30 21 1 25 18
M  V30 22 1 26 4
M  V30 23 1 26 14
M  V30 24 1 28 5
M  V30 25 1 28 13
M  V30 26 1 29 18
M  V30 27 1 29 25
M  V30 28 1 30 10
M  V30 29 2 30 22
M  V30 30 2 31 27
M  V30 31 1 31 30
M  V30 32 1 32 8
M  V30 33 1 32 9
M  V30 34 1 32 11
M  V30 35 2 33 6
M  V30 36 1 33 17
M  V30 37 1 33 27
M  V30 38 1 1 34 CFG=3
M  V30 39 1 2 35 CFG=3
M  V30 40 1 36 3
M  V30 41 1 37 3
M  V30 42 1 38 3
M  V30 43 1 39 4
M  V30 44 1 40 4
M  V30 45 1 41 8
M  V30 46 1 42 8
M  V30 47 1 43 10
M  V30 48 1 44 10
M  V30 49 1 45 11
M  V30 50 1 46 12
M  V30 51 1 13 47 CFG=1
M  V30 52 1 14 48 CFG=1
M  V30 53 1 49 15
M  V30 54 1 50 15
M  V30 55 1 51 16
M  V30 56 1 52 16
M  V30 57 1 53 18
M  V30 58 1 54 18
M  V30 59 1 55 20
M  V30 60 1 56 20
M  V30 61 1 57 20
M  V30 62 1 21 58 CFG=1
M  V30 63 1 59 22
M  V30 64 1 60 23
M  V30 65 1 61 24
M  V30 66 1 62 24
M  V30 67 1 63 27
M  V30 68 1 64 28
M  V30 69 1 65 28
M  V30 70 1 66 29
M  V30 71 1 67 29
M  V30 72 1 68 31
M  V30 73 1 32 69 CFG=3
M  V30 END BOND
M  V30 END CTAB
M  END
>  <i_epik_Tot_Q>  (1) 
0

>  <i_epik_Tot_abs_Q>  (1) 
0

>  <i_i_glide_confnum>  (1) 
2465

>  <i_i_glide_lignum>  (1) 
50

>  <i_i_glide_posenum>  (1) 
177

>  <i_i_glide_rotatable_bonds>  (1) 
10

>  <i_lp_mmshare_version>  (1) 
72125

>  <i_m_source_file_index>  (1) 
15

>  <i_f3d_flags>  (1) 
0

>  <num_sample>  (1) 
50

>  <b_lp_Chiralities_Consistent>  (1) 
1

>  <r_epik_Charging_Adjusted_Penalty>  (1) 
0.31292197521915999

>  <r_epik_Ionization_Penalty>  (1) 
0.31292203413354946

>  <r_epik_Ionization_Penalty_Charging>  (1) 
0

>  <r_epik_Ionization_Penalty_Neutral>  (1) 
0.31292203413354946

>  <r_epik_State_Penalty>  (1) 
0.31292197521915999

>  <r_glide_ring_energy>  (1) 
0.80130478001726202

>  <r_i_docking_score>  (1) 
-3.7486994756121055

>  <r_i_glide_ecoul>  (1) 
-3.7191042783082446

>  <r_i_glide_eff_state_penalty>  (1) 
0.31292197521915999

>  <r_i_glide_einternal>  (1) 
65.269013664657805

>  <r_i_glide_emodel>  (1) 
26.008550405034413

>  <r_i_glide_emodel_strain>  (1) 
5.5164079017665983

>  <r_i_glide_energy>  (1) 
-4.5739788227096572

>  <r_i_glide_erotb>  (1) 
0.80225646669221395

>  <r_i_glide_esite>  (1) 
-0.18298491890304383

>  <r_i_glide_evdw>  (1) 
-0.85487454440141253

>  <r_i_glide_gscore>  (1) 
-4.0616214508312654

>  <r_i_glide_gscore_strain>  (1) 
0.37910197544164959

>  <r_i_glide_hbond>  (1) 
-0.12455441482486443

>  <r_i_glide_ligand_efficiency>  (1) 
-0.11359695380642744

>  <r_i_glide_ligand_efficiency_ln>  (1) 
-0.8336913536490338

>  <r_i_glide_ligand_efficiency_sa>  (1) 
-0.36436612911706612

>  <r_i_glide_lipo>  (1) 
-3.5091363853823174

>  <r_i_glide_metal>  (1) 
-0

>  <r_i_glide_rewards>  (1) 
-0.82569480488859692

>  <r_lp_Energy>  (1) 
13.089316999999999

>  <r_lp_tautomer_probability>  (1) 
1

>  <s_epik_Chemistry_Notes>  (1) 
This compound contains an acetal/aminal-like group ( X-CH(R)-Y where X, Y are N, S, or O) that may be acid/base labile, releasing an aldehyde.

>  <s_epik_cmdline>  (1) 
J2VwaWtfcHl0aG9uJywgJy1waHQnLCAnMS4wJywgJy1waCcsICc3LjQnLCAnLXRuJywgJzgnLCAnLW1hJywgJzUwMCcsICctaW1hZScsICc8aW5maWxlLm1hZT4nLCAnLW9tYWUnLCAnPG91dGZpbGUubWFlPic=

>  <s_epik_input>  (1) 
W0NIMl0xU1tDQEhdKFtDSDNdKVtDQEhdKEMxMltDSDJdW0NIMl0yKVtDQEhdKFtDSDNdKVtDSDJdQyg9TylbTkhdW0NIMl1bQ0BIXTNPW0NAQEhdKFtDSDJdW0NAQEhdM1tPSF0pW05IXVtDSDJdYyhbY0hdNClbY0hdW2NIXWMoYzQ1KU9bQ0gyXVtDSDJdTzU=

>  <s_glide_docking_method>  (1) 
confgen

>  <s_i_glide_gridfile>  (1) 
gpcr_drd2_6luq_protein_autoprepared_prepared

>  <s_lp_Force_Field>  (1) 
S-OPLS

>  <s_lp_Variant>  (1) 
DiffSBDD_14_num_sample_50-1

>  <s_m_source_file>  (1) 
generated__ligand_DiffSBDD_2026-05-06_prepared.sdf

>  <GenAI_Model>  (1) 
DiffSBDD

>  <Protein>  (1) 
generic_title2

$$$$
DiffSBDD_10_num_sample_50
     RDKit          3D

  0  0  0  0  0  0  0  0  0  0999 V3000
M  V30 BEGIN CTAB
M  V30 COUNTS 73 74 0 0 1
M  V30 BEGIN ATOM
M  V30 1 C 10.955963 8.155418 -8.772161 0 CFG=2
M  V30 2 C 8.483024 0.956644 -18.156546 0
M  V30 3 C 8.235164 3.827568 -16.719313 0
M  V30 4 C 8.528364 5.359781 -13.313881 0 CFG=1
M  V30 5 C 9.990847 6.958094 -9.058843 0 CFG=2
M  V30 6 N 8.668900 2.362775 -20.112210 0
M  V30 7 N 7.919288 6.010299 -11.148836 0
M  V30 8 C 9.307038 5.647297 -11.058195 0 CFG=1
M  V30 9 S 11.824461 8.139632 -7.151600 0
M  V30 10 C 7.462660 -0.008601 -18.734648 0
M  V30 11 S 10.634984 9.241890 -5.881146 0 CHG=-1
M  V30 12 C 13.005534 8.092781 -10.230318 0
M  V30 13 O 5.957960 -0.230706 -14.710188 0
M  V30 14 O 11.835121 6.755828 -6.652792 0
M  V30 15 C 9.485958 8.342452 -8.731243 0 CFG=2
M  V30 16 C 10.776517 4.544575 -16.702069 0
M  V30 17 C 7.607830 6.321613 -12.534373 0 CFG=1
M  V30 18 N 5.927830 0.490186 -16.796584 0 CHG=1
M  V30 19 N 9.919241 2.864457 -18.227743 0
M  V30 20 C 6.032211 0.311900 -18.262954 0
M  V30 21 C 10.959160 6.328944 -12.882749 0
M  V30 22 C 11.794918 8.882547 -9.814218 0
M  V30 23 C 9.581402 5.798872 -8.151921 0
M  V30 24 C 8.636473 5.602241 -14.844579 0
M  V30 25 C 9.658631 3.689215 -17.278200 0
M  V30 26 O 9.034818 8.969596 -9.891666 0
M  V30 27 C 8.992506 2.014053 -18.819624 0
M  V30 28 O 13.037053 8.969301 -7.261048 0
M  V30 29 F 7.893404 7.602010 -12.768262 0
M  V30 30 N 12.081061 4.237578 -17.324007 0 CHG=1
M  V30 31 C 5.953420 -0.758502 -16.021452 0
M  V30 32 C 9.835095 5.342528 -12.485070 0 CFG=2
M  V30 33 O 10.102955 6.636666 -10.458279 0
M  V30 34 C 7.809717 4.632714 -15.692486 0
M  V30 35 H 8.801904 0.762804 -17.140621 0
M  V30 36 H 7.505273 3.207865 -17.213442 0
M  V30 37 H 8.079330 4.371100 -13.197048 0
M  V30 38 H 8.057462 1.793536 -20.678705 0
M  V30 39 H 7.621738 6.754643 -10.506795 0
M  V30 40 H 9.381317 4.735445 -10.466713 0
M  V30 41 H 7.745883 -1.022354 -18.449480 0
M  V30 42 H 7.495361 0.005569 -19.824562 0
M  V30 43 H 13.362013 8.413472 -11.210612 0
M  V30 44 H 13.822129 8.132256 -9.513359 0
M  V30 45 H 12.634982 7.069360 -10.291005 0
M  V30 46 H 5.609007 -0.898184 -14.117623 0
M  V30 47 H 8.908262 8.510698 -7.821552 0
M  V30 48 H 10.585652 5.600872 -16.890354 0
M  V30 49 H 10.922003 4.322531 -15.646701 0
M  V30 50 H 6.547002 6.170084 -12.746686 0
M  V30 51 H 5.062831 0.960660 -16.572572 0
M  V30 52 H 5.330357 -0.454717 -18.595663 0
M  V30 53 H 5.714812 1.245057 -18.727460 0
M  V30 54 H 10.639315 7.365553 -12.778336 0
M  V30 55 H 11.844649 6.187570 -12.271232 0
M  V30 56 H 11.312019 6.171254 -13.894780 0
M  V30 57 H 11.196249 8.969330 -10.691525 0
M  V30 58 H 12.044263 9.892037 -9.494411 0
M  V30 59 H 9.506431 6.108120 -7.107462 0
M  V30 60 H 8.596192 5.418073 -8.433514 0
M  V30 61 H 10.302910 4.986485 -8.247759 0
M  V30 62 H 9.651982 5.768829 -15.090489 0
M  V30 63 H 8.189031 6.570016 -15.068876 0
M  V30 64 H 8.123672 8.650525 -9.953592 0
M  V30 65 H 12.810916 4.801059 -16.912298 0
M  V30 66 H 12.281613 3.256606 -17.177692 0
M  V30 67 H 6.841689 -1.341210 -16.252729 0
M  V30 68 H 5.065455 -1.362699 -16.198633 0
M  V30 69 H 10.235956 4.328865 -12.484566 0
M  V30 70 H 6.759896 4.595811 -15.433960 0
M  V30 71 H 9.130713 3.126665 -20.585088 0
M  V30 72 H 6.692130 1.072783 -16.486722 0
M  V30 73 H 12.028256 4.410356 -18.317315 0
M  V30 END ATOM
M  V30 BEGIN BOND
M  V30 1 1 5 1
M  V30 2 1 8 7
M  V30 3 1 9 1
M  V30 4 1 10 2
M  V30 5 1 11 9
M  V30 6 2 14 9
M  V30 7 1 15 1
M  V30 8 1 15 5
M  V30 9 1 17 4
M  V30 10 1 17 7
M  V30 11 1 20 10
M  V30 12 1 20 18
M  V30 13 1 1 22 CFG=3
M  V30 14 1 22 12
M  V30 15 1 23 5
M  V30 16 1 24 4
M  V30 17 1 25 3
M  V30 18 1 25 16
M  V30 19 2 25 19
M  V30 20 1 26 15
M  V30 21 2 27 2
M  V30 22 1 27 6
M  V30 23 1 27 19
M  V30 24 2 28 9
M  V30 25 1 29 17
M  V30 26 1 30 16
M  V30 27 1 31 13
M  V30 28 1 31 18
M  V30 29 1 32 4
M  V30 30 1 32 8
M  V30 31 1 32 21
M  V30 32 1 5 33 CFG=3
M  V30 33 1 33 8
M  V30 34 2 34 3
M  V30 35 1 34 24
M  V30 36 1 35 2
M  V30 37 1 36 3
M  V30 38 1 4 37 CFG=3
M  V30 39 1 38 6
M  V30 40 1 39 7
M  V30 41 1 8 40 CFG=1
M  V30 42 1 41 10
M  V30 43 1 42 10
M  V30 44 1 43 12
M  V30 45 1 44 12
M  V30 46 1 45 12
M  V30 47 1 46 13
M  V30 48 1 15 47 CFG=1
M  V30 49 1 48 16
M  V30 50 1 49 16
M  V30 51 1 17 50 CFG=1
M  V30 52 1 51 18
M  V30 53 1 52 20
M  V30 54 1 53 20
M  V30 55 1 54 21
M  V30 56 1 55 21
M  V30 57 1 56 21
M  V30 58 1 57 22
M  V30 59 1 58 22
M  V30 60 1 59 23
M  V30 61 1 60 23
M  V30 62 1 61 23
M  V30 63 1 62 24
M  V30 64 1 63 24
M  V30 65 1 64 26
M  V30 66 1 65 30
M  V30 67 1 66 30
M  V30 68 1 67 31
M  V30 69 1 68 31
M  V30 70 1 32 69 CFG=1
M  V30 71 1 70 34
M  V30 72 1 71 6
M  V30 73 1 72 18
M  V30 74 1 73 30
M  V30 END BOND
M  V30 END CTAB
M  END
>  <i_epik_Tot_Q>  (1) 
1

>  <i_epik_Tot_abs_Q>  (1) 
3

>  <i_i_glide_confnum>  (1) 
5023

>  <i_i_glide_lignum>  (1) 
29

>  <i_i_glide_posenum>  (1) 
94

>  <i_i_glide_rotatable_bonds>  (1) 
15

>  <i_lp_mmshare_version>  (1) 
72125

>  <i_m_source_file_index>  (1) 
11

>  <i_f3d_flags>  (1) 
0

>  <num_sample>  (1) 
50

>  <b_lp_Chiralities_Consistent>  (1) 
1

>  <r_epik_Charging_Adjusted_Penalty>  (1) 
2.168687317063887

>  <r_epik_Ionization_Penalty>  (1) 
1.1047352072338965

>  <r_epik_Ionization_Penalty_Charging>  (1) 
1.0999234457570315

>  <r_epik_Ionization_Penalty_Neutral>  (1) 
0.0048117614768649203

>  <r_epik_State_Penalty>  (1) 
1.0687638713068555

>  <r_glide_ring_energy>  (1) 
0

>  <r_i_docking_score>  (1) 
-3.7460043117463231

>  <r_i_glide_ecoul>  (1) 
-17.915793977911548

>  <r_i_glide_eff_state_penalty>  (1) 
1.0687638713068555

>  <r_i_glide_einternal>  (1) 
11.555030639948644

>  <r_i_glide_emodel>  (1) 
-44.346271230750176

>  <r_i_glide_emodel_strain>  (1) 
3.2361599273110784

>  <r_i_glide_energy>  (1) 
-34.774090745096018

>  <r_i_glide_erotb>  (1) 
0.82219216958862984

>  <r_i_glide_esite>  (1) 
-0.063695677823057184

>  <r_i_glide_evdw>  (1) 
-16.858296767184473

>  <r_i_glide_gscore>  (1) 
-4.8147681830531788

>  <r_i_glide_gscore_strain>  (1) 
0

>  <r_i_glide_hbond>  (1) 
-0.42206138609022992

>  <r_i_glide_ligand_efficiency>  (1) 
-0.11017659740430362

>  <r_i_glide_ligand_efficiency_ln>  (1) 
-0.82759742432668615

>  <r_i_glide_ligand_efficiency_sa>  (1) 
-0.35692940517558019

>  <r_i_glide_lipo>  (1) 
-0.9243913600645367

>  <r_i_glide_metal>  (1) 
-0

>  <r_i_glide_rewards>  (1) 
-0.69652799361802864

>  <r_lp_Energy>  (1) 
21.645868

>  <s_epik_Chemistry_Notes>  (1) 
This compound has an imine and may undergo hydrolysis. This compound contains an acetal/aminal-like group ( X-CH(R)-Y where X, Y are N, S, or O) that may be acid/base labile, releasing an aldehyde.

>  <s_epik_cmdline>  (1) 
J2VwaWtfcHl0aG9uJywgJy1waHQnLCAnMS4wJywgJy1waCcsICc3LjQnLCAnLXRuJywgJzgnLCAnLW1hJywgJzUwMCcsICctaW1hZScsICc8aW5maWxlLm1hZT4nLCAnLW9tYWUnLCAnPG91dGZpbGUubWFlPic=

>  <s_epik_input>  (1) 
W1NIXVMoPU8pKD1PKVtDQEBdMShbQ0gyXVtDSDNdKVtDQEBdKFtDSDNdKShbQ0BASF0xW09IXSlPW0NASF0oW0NAQEhdMltDSDNdKVtOSF1bQ0BASF0oRilbQ0BIXTJbQ0gyXS9bQ0hdPVtDSF1cQyhbQ0gyXVtOSDJdKT1OL0MoPU4vW0hdKS9bQ0gyXVtDSDJdW0NIMl1bTkhdW0NIMl1bT0hd

>  <s_glide_docking_method>  (1) 
confgen

>  <s_i_glide_gridfile>  (1) 
gpcr_drd2_6luq_protein_autoprepared_prepared

>  <s_lp_Force_Field>  (1) 
S-OPLS

>  <s_lp_Variant>  (1) 
DiffSBDD_10_num_sample_50-9

>  <s_m_source_file>  (1) 
generated__ligand_DiffSBDD_2026-05-06_prepared.sdf

>  <GenAI_Model>  (1) 
DiffSBDD

>  <Protein>  (1) 
generic_title2

$$$$
DiffSBDD_14_num_sample_50
     RDKit          3D

  0  0  0  0  0  0  0  0  0  0999 V3000
M  V30 BEGIN CTAB
M  V30 COUNTS 70 74 0 0 1
M  V30 BEGIN ATOM
M  V30 1 C 8.348012 4.304969 -19.652423 0 CFG=2
M  V30 2 C 7.551231 7.004593 -13.364819 0 CFG=1
M  V30 3 C 8.614833 6.826415 -19.983018 0
M  V30 4 C 7.416849 4.302085 -21.972281 0
M  V30 5 C 8.469922 4.175442 -16.358399 0
M  V30 6 C 11.034577 7.159356 -6.023731 0
M  V30 7 O 10.882383 6.170123 -5.085366 0
M  V30 8 C 7.988363 8.009364 -12.311083 0
M  V30 9 O 9.185069 6.050688 -11.918127 0
M  V30 10 C 10.791819 7.589903 -9.831732 0
M  V30 11 N 9.435576 7.849630 -10.348648 0 CHG=1
M  V30 12 N 8.098723 4.541552 -15.119003 0
M  V30 13 C 7.670254 3.236937 -18.726908 0 CFG=2
M  V30 14 C 7.633949 5.671725 -19.740576 0 CFG=1
M  V30 15 C 9.038398 5.018124 -14.110209 0
M  V30 16 C 12.176331 7.679769 -3.570338 0
M  V30 17 O 11.650765 8.761072 -4.313907 0
M  V30 18 C 9.969349 3.826593 -21.679812 0
M  V30 19 O 9.634591 4.211334 -16.752832 0
M  V30 20 C 6.394339 2.609972 -19.331618 0
M  V30 21 C 8.272627 5.700448 -12.957499 0 CFG=2
M  V30 22 C 10.807778 6.872950 -7.390261 0
M  V30 23 O 6.145265 6.855897 -13.380684 0
M  V30 24 C 11.311260 6.427520 -3.748114 0
M  V30 25 C 8.566056 3.820360 -21.090578 0
M  V30 26 S 6.464461 5.574366 -21.109530 0
M  V30 27 C 11.634676 9.446407 -6.609066 0
M  V30 28 C 7.346074 3.698330 -17.280241 0
M  V30 29 C 9.288503 2.519679 -21.395809 0
M  V30 30 C 11.008097 7.878646 -8.361866 0
M  V30 31 C 11.435225 9.147754 -7.969496 0
M  V30 32 C 9.329552 7.428326 -11.883056 0 CFG=2
M  V30 33 C 11.433476 8.461270 -5.635206 0
M  V30 34 H 9.337111 4.482889 -19.230833 0
M  V30 35 H 7.863670 7.337609 -14.353183 0
M  V30 36 H 9.306853 6.943558 -19.147976 0
M  V30 37 H 9.199393 6.676900 -20.888792 0
M  V30 38 H 8.068778 7.759747 -20.098448 0
M  V30 39 H 7.801364 4.715510 -22.905657 0
M  V30 40 H 6.757982 3.472696 -22.226491 0
M  V30 41 H 8.133496 9.018574 -12.693149 0
M  V30 42 H 7.274700 8.029362 -11.491490 0
M  V30 43 H 11.036058 6.569191 -10.018626 0
M  V30 44 H 11.505255 8.173721 -10.415093 0
M  V30 45 H 9.221875 8.828854 -10.241903 0
M  V30 46 H 7.123434 4.485379 -14.861948 0
M  V30 47 H 8.384046 2.417957 -18.623934 0
M  V30 48 H 7.074463 5.911200 -18.837015 0
M  V30 49 H 9.766215 5.703644 -14.543940 0
M  V30 50 H 9.599671 4.174361 -13.712648 0
M  V30 51 H 12.225852 7.955098 -2.516944 0
M  V30 52 H 13.199502 7.492491 -3.888612 0
M  V30 53 H 10.090696 4.105146 -22.725318 0
M  V30 54 H 10.799564 4.105749 -21.034247 0
M  V30 55 H 5.616736 3.356102 -19.495731 0
M  V30 56 H 6.589771 2.109414 -20.279548 0
M  V30 57 H 5.971046 1.857402 -18.665164 0
M  V30 58 H 7.566489 4.992449 -12.519328 0
M  V30 59 H 10.496727 5.881281 -7.690307 0
M  V30 60 H 5.844244 6.676573 -12.501201 0
M  V30 61 H 10.437987 6.461938 -3.110030 0
M  V30 62 H 11.891545 5.579845 -3.393257 0
M  V30 63 H 11.953543 10.436532 -6.315316 0
M  V30 64 H 6.867698 2.867910 -16.758680 0
M  V30 65 H 6.623080 4.506232 -17.301132 0
M  V30 66 H 9.675100 1.934733 -20.562836 0
M  V30 67 H 8.941805 1.940955 -22.250931 0
M  V30 68 H 11.604104 9.909163 -8.716542 0
M  V30 69 H 10.165887 7.767352 -12.494843 0
M  V30 70 H 8.730060 7.355328 -9.808656 0
M  V30 END ATOM
M  V30 BEGIN BOND
M  V30 1 1 7 6
M  V30 2 1 8 2
M  V30 3 1 11 10
M  V30 4 1 12 5
M  V30 5 1 13 1
M  V30 6 1 14 1
M  V30 7 1 14 3
M  V30 8 1 15 12
M  V30 9 1 17 16
M  V30 10 2 19 5
M  V30 11 1 20 13
M  V30 12 1 21 2
M  V30 13 1 21 9
M  V30 14 1 21 15
M  V30 15 1 22 6
M  V30 16 1 23 2
M  V30 17 1 24 7
M  V30 18 1 24 16
M  V30 19 1 25 1
M  V30 20 1 25 4
M  V30 21 1 25 18
M  V30 22 1 26 4
M  V30 23 1 26 14
M  V30 24 1 28 5
M  V30 25 1 28 13
M  V30 26 1 29 18
M  V30 27 1 29 25
M  V30 28 1 30 10
M  V30 29 2 30 22
M  V30 30 2 31 27
M  V30 31 1 31 30
M  V30 32 1 32 8
M  V30 33 1 32 9
M  V30 34 1 32 11
M  V30 35 2 33 6
M  V30 36 1 33 17
M  V30 37 1 33 27
M  V30 38 1 1 34 CFG=1
M  V30 39 1 2 35 CFG=3
M  V30 40 1 36 3
M  V30 41 1 37 3
M  V30 42 1 38 3
M  V30 43 1 39 4
M  V30 44 1 40 4
M  V30 45 1 41 8
M  V30 46 1 42 8
M  V30 47 1 43 10
M  V30 48 1 44 10
M  V30 49 1 45 11
M  V30 50 1 46 12
M  V30 51 1 13 47 CFG=1
M  V30 52 1 14 48 CFG=1
M  V30 53 1 49 15
M  V30 54 1 50 15
M  V30 55 1 51 16
M  V30 56 1 52 16
M  V30 57 1 53 18
M  V30 58 1 54 18
M  V30 59 1 55 20
M  V30 60 1 56 20
M  V30 61 1 57 20
M  V30 62 1 21 58 CFG=1
M  V30 63 1 59 22
M  V30 64 1 60 23
M  V30 65 1 61 24
M  V30 66 1 62 24
M  V30 67 1 63 27
M  V30 68 1 64 28
M  V30 69 1 65 28
M  V30 70 1 66 29
M  V30 71 1 67 29
M  V30 72 1 68 31
M  V30 73 1 32 69 CFG=3
M  V30 74 1 70 11
M  V30 END BOND
M  V30 END CTAB
M  END
>  <i_epik_Tot_Q>  (1) 
1

>  <i_epik_Tot_abs_Q>  (1) 
1

>  <i_i_glide_confnum>  (1) 
1298

>  <i_i_glide_lignum>  (1) 
51

>  <i_i_glide_posenum>  (1) 
272

>  <i_i_glide_rotatable_bonds>  (1) 
10

>  <i_lp_mmshare_version>  (1) 
72125

>  <i_m_source_file_index>  (1) 
15

>  <i_f3d_flags>  (1) 
0

>  <num_sample>  (1) 
50

>  <b_lp_Chiralities_Consistent>  (1) 
1

>  <r_epik_Charging_Adjusted_Penalty>  (1) 
1.0556351429747846

>  <r_epik_Ionization_Penalty>  (1) 
0.52782311309915253

>  <r_epik_Ionization_Penalty_Charging>  (1) 
0.52781757148739228

>  <r_epik_Ionization_Penalty_Neutral>  (1) 
5.5416117603015013e-06

>  <r_epik_State_Penalty>  (1) 
0.52781757148739217

>  <r_glide_ring_energy>  (1) 
0.80130509604263411

>  <r_i_docking_score>  (1) 
-3.7377343213389294

>  <r_i_glide_ecoul>  (1) 
-4.0377559741174354

>  <r_i_glide_eff_state_penalty>  (1) 
0.52781757148739217

>  <r_i_glide_einternal>  (1) 
6.0394671273070522

>  <r_i_glide_emodel>  (1) 
-39.730202492637417

>  <r_i_glide_emodel_strain>  (1) 
2.8448506348638603

>  <r_i_glide_energy>  (1) 
-32.377962798259233

>  <r_i_glide_erotb>  (1) 
0.79916653529319603

>  <r_i_glide_esite>  (1) 
-0.13853504237253095

>  <r_i_glide_evdw>  (1) 
-28.340206824141799

>  <r_i_glide_gscore>  (1) 
-4.2655518928263216

>  <r_i_glide_gscore_strain>  (1) 
0

>  <r_i_glide_hbond>  (1) 
-0.11766779903936322

>  <r_i_glide_ligand_efficiency>  (1) 
-0.11326467640420998

>  <r_i_glide_ligand_efficiency_ln>  (1) 
-0.8312527601132097

>  <r_i_glide_ligand_efficiency_sa>  (1) 
-0.36330033794237176

>  <r_i_glide_lipo>  (1) 
-2.1279386889964402

>  <r_i_glide_metal>  (1) 
-0

>  <r_i_glide_rewards>  (1) 
-0.65790316038647723

>  <r_lp_Energy>  (1) 
8.7074730000000002

>  <r_lp_tautomer_probability>  (1) 
1

>  <s_epik_Chemistry_Notes>  (1) 
This compound contains an acetal/aminal-like group ( X-CH(R)-Y where X, Y are N, S, or O) that may be acid/base labile, releasing an aldehyde.

>  <s_epik_cmdline>  (1) 
J2VwaWtfcHl0aG9uJywgJy1waHQnLCAnMS4wJywgJy1waCcsICc3LjQnLCAnLXRuJywgJzgnLCAnLW1hJywgJzUwMCcsICctaW1hZScsICc8aW5maWxlLm1hZT4nLCAnLW9tYWUnLCAnPG91dGZpbGUubWFlPic=

>  <s_epik_input>  (1) 
W0NIMl0xU1tDQEhdKFtDSDNdKVtDQEhdKEMxMltDSDJdW0NIMl0yKVtDQEhdKFtDSDNdKVtDSDJdQyg9TylbTkhdW0NIMl1bQ0BIXTNPW0NAQEhdKFtDSDJdW0NAQEhdM1tPSF0pW05IXVtDSDJdYyhbY0hdNClbY0hdW2NIXWMoYzQ1KU9bQ0gyXVtDSDJdTzU=

>  <s_glide_docking_method>  (1) 
confgen

>  <s_i_glide_gridfile>  (1) 
gpcr_drd2_6luq_protein_autoprepared_prepared

>  <s_lp_Force_Field>  (1) 
S-OPLS

>  <s_lp_Variant>  (1) 
DiffSBDD_14_num_sample_50-2

>  <s_m_source_file>  (1) 
generated__ligand_DiffSBDD_2026-05-06_prepared.sdf

>  <GenAI_Model>  (1) 
DiffSBDD

>  <Protein>  (1) 
generic_title2

$$$$
DiffSBDD_10_num_sample_50
     RDKit          3D

  0  0  0  0  0  0  0  0  0  0999 V3000
M  V30 BEGIN CTAB
M  V30 COUNTS 73 74 0 0 1
M  V30 BEGIN ATOM
M  V30 1 C 14.269524 5.246832 -18.013861 0 CFG=2
M  V30 2 C 8.856682 5.564910 -12.179438 0
M  V30 3 C 7.850492 4.202892 -14.960942 0
M  V30 4 C 9.125161 3.908674 -18.435723 0 CFG=1
M  V30 5 C 13.564427 4.677191 -19.270458 0 CFG=2
M  V30 6 N 6.466557 5.705401 -11.853574 0
M  V30 7 N 11.174337 2.859427 -18.928226 0
M  V30 8 C 11.212664 4.091077 -19.646369 0 CFG=1
M  V30 9 S 15.975295 6.000258 -18.259980 0
M  V30 10 C 9.161218 6.995673 -11.757444 0
M  V30 11 S 17.034842 4.969307 -16.734814 0 CHG=-1
M  V30 12 C 14.058951 5.806656 -15.491666 0
M  V30 13 O 8.634839 6.169286 -7.155516 0
M  V30 14 O 16.581985 5.581767 -19.531675 0
M  V30 15 C 14.293287 3.762402 -18.290944 0 CFG=2
M  V30 16 C 7.184805 1.833711 -14.179489 0
M  V30 17 C 10.249082 3.051558 -17.833064 0 CFG=2
M  V30 18 N 9.034863 6.569287 -9.302774 0 CHG=1
M  V30 19 N 7.393077 3.716646 -12.618708 0
M  V30 20 C 9.859016 7.116291 -10.396080 0
M  V30 21 C 9.887313 6.277715 -19.330819 0
M  V30 22 C 13.459552 5.922853 -16.894231 0
M  V30 23 C 14.030546 4.894320 -20.703496 0
M  V30 24 C 8.256397 4.675368 -17.409443 0
M  V30 25 C 7.470889 3.298725 -13.830171 0
M  V30 26 O 13.500258 2.992302 -17.409053 0
M  V30 27 C 7.616675 5.032868 -12.212503 0
M  V30 28 O 15.936447 7.423552 -17.891670 0
M  V30 29 F 9.819335 1.868534 -17.393966 0
M  V30 30 N 7.157134 0.960688 -12.992255 0 CHG=1
M  V30 31 C 9.498521 6.940875 -7.955270 0
M  V30 32 C 9.816774 4.748021 -19.534146 0 CFG=2
M  V30 33 O 12.167949 4.954884 -19.100749 0
M  V30 34 C 7.853573 3.794089 -16.245459 0
M  V30 35 H 9.704821 4.958567 -12.470179 0
M  V30 36 H 8.128721 5.211804 -14.698699 0
M  V30 37 H 8.460399 3.213265 -18.951750 0
M  V30 38 H 6.502175 6.627450 -11.433447 0
M  V30 39 H 12.085970 2.656401 -18.518140 0
M  V30 40 H 11.454241 3.897725 -20.689784 0
M  V30 41 H 8.250036 7.594950 -11.748395 0
M  V30 42 H 9.793241 7.438827 -12.527127 0
M  V30 43 H 13.386129 6.231830 -14.747660 0
M  V30 44 H 14.234937 4.766123 -15.219785 0
M  V30 45 H 15.004271 6.336271 -15.406186 0
M  V30 46 H 7.775052 6.597967 -7.092251 0
M  V30 47 H 15.227642 3.285671 -18.581416 0
M  V30 48 H 6.234862 1.759409 -14.706662 0
M  V30 49 H 7.965785 1.444827 -14.834241 0
M  V30 50 H 10.751776 3.567812 -17.012916 0
M  V30 51 H 8.948981 5.567348 -9.383910 0
M  V30 52 H 10.056663 8.170753 -10.197747 0
M  V30 53 H 10.821374 6.613214 -10.411483 0
M  V30 54 H 10.382519 6.543932 -18.396846 0
M  V30 55 H 10.441252 6.750887 -20.142017 0
M  V30 56 H 8.891113 6.720673 -19.316195 0
M  V30 57 H 13.323871 6.973800 -17.150913 0
M  V30 58 H 12.460453 5.492077 -16.841721 0
M  V30 59 H 14.974562 4.384227 -20.887140 0
M  V30 60 H 13.322706 4.492155 -21.424575 0
M  V30 61 H 14.149777 5.959329 -20.903370 0
M  V30 62 H 7.358172 5.056595 -17.896342 0
M  V30 63 H 8.793439 5.535003 -17.008489 0
M  V30 64 H 13.888134 3.046238 -16.546774 0
M  V30 65 H 6.906496 0.017827 -13.258009 0
M  V30 66 H 8.067117 0.969435 -12.549565 0
M  V30 67 H 9.382501 8.007253 -7.758714 0
M  V30 68 H 10.535079 6.642296 -7.793713 0
M  V30 69 H 9.298412 4.559207 -20.475139 0
M  V30 70 H 7.561104 2.786357 -16.494949 0
M  V30 71 H 5.575103 5.234781 -11.808513 0
M  V30 72 H 8.100095 7.002037 -9.405459 0
M  V30 73 H 6.477376 1.325687 -12.340756 0
M  V30 END ATOM
M  V30 BEGIN BOND
M  V30 1 1 5 1
M  V30 2 1 8 7
M  V30 3 1 9 1
M  V30 4 1 10 2
M  V30 5 1 11 9
M  V30 6 2 14 9
M  V30 7 1 15 1
M  V30 8 1 15 5
M  V30 9 1 17 4
M  V30 10 1 17 7
M  V30 11 1 20 10
M  V30 12 1 20 18
M  V30 13 1 1 22 CFG=1
M  V30 14 1 22 12
M  V30 15 1 23 5
M  V30 16 1 24 4
M  V30 17 1 25 3
M  V30 18 1 25 16
M  V30 19 2 25 19
M  V30 20 1 26 15
M  V30 21 2 27 2
M  V30 22 1 27 6
M  V30 23 1 27 19
M  V30 24 2 28 9
M  V30 25 1 29 17
M  V30 26 1 30 16
M  V30 27 1 31 13
M  V30 28 1 31 18
M  V30 29 1 32 4
M  V30 30 1 32 8
M  V30 31 1 32 21
M  V30 32 1 5 33 CFG=3
M  V30 33 1 33 8
M  V30 34 2 34 3
M  V30 35 1 34 24
M  V30 36 1 35 2
M  V30 37 1 36 3
M  V30 38 1 4 37 CFG=3
M  V30 39 1 38 6
M  V30 40 1 39 7
M  V30 41 1 8 40 CFG=3
M  V30 42 1 41 10
M  V30 43 1 42 10
M  V30 44 1 43 12
M  V30 45 1 44 12
M  V30 46 1 45 12
M  V30 47 1 46 13
M  V30 48 1 15 47 CFG=3
M  V30 49 1 48 16
M  V30 50 1 49 16
M  V30 51 1 17 50 CFG=1
M  V30 52 1 51 18
M  V30 53 1 52 20
M  V30 54 1 53 20
M  V30 55 1 54 21
M  V30 56 1 55 21
M  V30 57 1 56 21
M  V30 58 1 57 22
M  V30 59 1 58 22
M  V30 60 1 59 23
M  V30 61 1 60 23
M  V30 62 1 61 23
M  V30 63 1 62 24
M  V30 64 1 63 24
M  V30 65 1 64 26
M  V30 66 1 65 30
M  V30 67 1 66 30
M  V30 68 1 67 31
M  V30 69 1 68 31
M  V30 70 1 32 69 CFG=3
M  V30 71 1 70 34
M  V30 72 1 71 6
M  V30 73 1 72 18
M  V30 74 1 73 30
M  V30 END BOND
M  V30 END CTAB
M  END
>  <i_epik_Tot_Q>  (1) 
1

>  <i_epik_Tot_abs_Q>  (1) 
3

>  <i_i_glide_confnum>  (1) 
3523

>  <i_i_glide_lignum>  (1) 
34

>  <i_i_glide_posenum>  (1) 
336

>  <i_i_glide_rotatable_bonds>  (1) 
15

>  <i_lp_mmshare_version>  (1) 
72125

>  <i_m_source_file_index>  (1) 
11

>  <i_f3d_flags>  (1) 
0

>  <num_sample>  (1) 
50

>  <b_lp_Chiralities_Consistent>  (1) 
1

>  <r_epik_Charging_Adjusted_Penalty>  (1) 
2.168687317063887

>  <r_epik_Ionization_Penalty>  (1) 
1.1047352072338965

>  <r_epik_Ionization_Penalty_Charging>  (1) 
1.0999234457570315

>  <r_epik_Ionization_Penalty_Neutral>  (1) 
0.0048117614768649203

>  <r_epik_State_Penalty>  (1) 
1.0687638713068555

>  <r_glide_ring_energy>  (1) 
0

>  <r_i_docking_score>  (1) 
-3.734455253804204

>  <r_i_glide_ecoul>  (1) 
-14.646597783619614

>  <r_i_glide_eff_state_penalty>  (1) 
1.0687638713068555

>  <r_i_glide_einternal>  (1) 
8.7202146850862565

>  <r_i_glide_emodel>  (1) 
-57.34347759182748

>  <r_i_glide_emodel_strain>  (1) 
0.46717904079898176

>  <r_i_glide_energy>  (1) 
-40.590786537357353

>  <r_i_glide_erotb>  (1) 
0.82219216958862984

>  <r_i_glide_esite>  (1) 
-0.24320242089446992

>  <r_i_glide_evdw>  (1) 
-25.944188753737741

>  <r_i_glide_gscore>  (1) 
-4.8032191251110596

>  <r_i_glide_gscore_strain>  (1) 
0

>  <r_i_glide_hbond>  (1) 
-0.49656239583149769

>  <r_i_glide_ligand_efficiency>  (1) 
-0.10983691922953541

>  <r_i_glide_ligand_efficiency_ln>  (1) 
-0.82504591348716927

>  <r_i_glide_ligand_efficiency_sa>  (1) 
-0.3558289797519647

>  <r_i_glide_lipo>  (1) 
-0.81630724035251478

>  <r_i_glide_metal>  (1) 
-0

>  <r_i_glide_rewards>  (1) 
-0.57514013239137785

>  <r_lp_Energy>  (1) 
23.104900000000001

>  <s_epik_Chemistry_Notes>  (1) 
This compound has an imine and may undergo hydrolysis. This compound contains an acetal/aminal-like group ( X-CH(R)-Y where X, Y are N, S, or O) that may be acid/base labile, releasing an aldehyde.

>  <s_epik_cmdline>  (1) 
J2VwaWtfcHl0aG9uJywgJy1waHQnLCAnMS4wJywgJy1waCcsICc3LjQnLCAnLXRuJywgJzgnLCAnLW1hJywgJzUwMCcsICctaW1hZScsICc8aW5maWxlLm1hZT4nLCAnLW9tYWUnLCAnPG91dGZpbGUubWFlPic=

>  <s_epik_input>  (1) 
W1NIXVMoPU8pKD1PKVtDQEBdMShbQ0gyXVtDSDNdKVtDQEBdKFtDSDNdKShbQ0BASF0xW09IXSlPW0NASF0oW0NAQEhdMltDSDNdKVtOSF1bQ0BASF0oRilbQ0BIXTJbQ0gyXVxbQ0hdPVtDSF1cQyhbQ0gyXVtOSDJdKT1OL0MoPU4vW0hdKS9bQ0gyXVtDSDJdW0NIMl1bTkhdW0NIMl1bT0hd

>  <s_glide_docking_method>  (1) 
confgen

>  <s_i_glide_gridfile>  (1) 
gpcr_drd2_6luq_protein_autoprepared_prepared

>  <s_lp_Force_Field>  (1) 
S-OPLS

>  <s_lp_Variant>  (1) 
DiffSBDD_10_num_sample_50-14

>  <s_m_source_file>  (1) 
generated__ligand_DiffSBDD_2026-05-06_prepared.sdf

>  <GenAI_Model>  (1) 
DiffSBDD

>  <Protein>  (1) 
generic_title2

$$$$
DiffSBDD_36_num_sample_50
     RDKit          3D

  0  0  0  0  0  0  0  0  0  0999 V3000
M  V30 BEGIN CTAB
M  V30 COUNTS 76 79 0 0 1
M  V30 BEGIN ATOM
M  V30 1 C 7.310772 0.978443 -15.784767 0
M  V30 2 O 9.938945 8.569167 -11.002595 0
M  V30 3 C 6.937203 5.718418 -11.655350 0
M  V30 4 S 11.036524 7.806581 -10.274489 0
M  V30 5 C 8.994549 2.420441 -17.018763 0 CFG=2
M  V30 6 C 6.843136 2.228971 -15.024438 0
M  V30 7 C 9.729730 7.302007 -7.871836 0 CFG=1
M  V30 8 C 8.013609 3.142167 -14.642552 0 CFG=1
M  V30 9 F 6.887887 1.827370 -17.907717 0
M  V30 10 O 9.034940 8.507976 -8.115467 0
M  V30 11 C 5.386230 4.064696 -12.781997 0
M  V30 12 C 9.374838 2.993493 -18.396592 0
M  V30 13 C 7.882400 1.365184 -17.149129 0 CFG=2
M  V30 14 C 9.159702 6.248384 -12.596355 0
M  V30 15 C 11.878222 9.073675 -9.168554 0
M  V30 16 C 8.184886 4.964020 -9.043795 0
M  V30 17 C 13.514672 9.369327 -7.091724 0
M  V30 18 O 12.219845 7.369278 -7.491681 0
M  V30 19 C 6.239349 3.200054 -11.902604 0
M  V30 20 C 8.642959 3.558239 -16.020451 0
M  V30 21 C 13.996235 7.830050 -9.081764 0
M  V30 22 C 10.146390 6.583486 -9.190656 0 CFG=1
M  V30 23 C 6.824355 4.449513 -12.529186 0
M  V30 24 C 12.878262 8.424602 -8.173086 0
M  V30 25 C 8.355058 6.248747 -11.291655 0 CFG=2
M  V30 26 C 7.808907 4.435820 -13.742690 0 CFG=1
M  V30 27 C 10.744554 8.715793 -5.956858 0
M  V30 28 C 9.121380 5.680913 -10.018147 0 CFG=2
M  V30 29 C 10.987527 6.267514 -5.945266 0
M  V30 30 C 9.201517 4.874082 -13.244299 0
M  V30 31 C 10.926218 7.488829 -6.869333 0
M  V30 32 H 8.056263 0.432587 -15.197988 0
M  V30 33 H 6.470547 0.298304 -15.925070 0
M  V30 34 H 6.324117 5.611822 -10.760913 0
M  V30 35 H 6.430676 6.514223 -12.201977 0
M  V30 36 H 9.874530 1.898669 -16.656764 0
M  V30 37 H 6.227416 1.888437 -14.201963 0
M  V30 38 H 6.234908 2.814516 -15.686798 0
M  V30 39 H 8.991020 6.702698 -7.346898 0
M  V30 40 H 8.634787 2.470279 -14.061394 0
M  V30 41 H 8.295197 8.282023 -8.688354 0
M  V30 42 H 5.108217 3.759010 -13.781823 0
M  V30 43 H 4.634858 4.646375 -12.267182 0
M  V30 44 H 8.533913 3.521904 -18.851661 0
M  V30 45 H 10.200927 3.700952 -18.320982 0
M  V30 46 H 9.671509 2.204393 -19.088456 0
M  V30 47 H 8.261714 0.478243 -17.656397 0
M  V30 48 H 8.670138 6.949015 -13.277027 0
M  V30 49 H 10.177493 6.598954 -12.471830 0
M  V30 50 H 11.137619 9.679886 -8.676407 0
M  V30 51 H 12.402723 9.763020 -9.827110 0
M  V30 52 H 7.452587 5.649806 -8.625011 0
M  V30 53 H 7.641227 4.169318 -9.542024 0
M  V30 54 H 8.728231 4.507337 -8.216912 0
M  V30 55 H 14.436727 9.769321 -7.492678 0
M  V30 56 H 12.860999 10.149040 -6.691572 0
M  V30 57 H 13.911887 8.969313 -6.187717 0
M  V30 58 H 6.626094 2.250679 -12.259787 0
M  V30 59 H 5.952604 3.223010 -10.854233 0
M  V30 60 H 7.946129 4.236002 -16.510934 0
M  V30 61 H 9.549552 4.144711 -15.890676 0
M  V30 62 H 14.656605 8.575003 -9.514616 0
M  V30 63 H 14.634383 7.040473 -8.691665 0
M  V30 64 H 13.502592 7.369137 -9.891680 0
M  V30 65 H 10.897083 5.875643 -8.852369 0
M  V30 66 H 8.135611 7.287076 -11.091626 0
M  V30 67 H 7.442016 5.215280 -14.411153 0
M  V30 68 H 9.768021 8.651716 -5.491714 0
M  V30 69 H 11.495878 8.764998 -5.168537 0
M  V30 70 H 10.750027 9.660422 -6.496553 0
M  V30 71 H 9.747290 4.879724 -10.415616 0
M  V30 72 H 10.068266 6.160344 -5.370598 0
M  V30 73 H 11.139783 5.370076 -6.539747 0
M  V30 74 H 11.812356 6.330420 -5.233147 0
M  V30 75 H 9.918933 4.956204 -14.052522 0
M  V30 76 H 9.614821 4.130806 -12.559421 0
M  V30 END ATOM
M  V30 BEGIN BOND
M  V30 1 2 4 2
M  V30 2 1 6 1
M  V30 3 1 8 6
M  V30 4 1 10 7
M  V30 5 1 12 5
M  V30 6 1 13 1
M  V30 7 1 13 5
M  V30 8 1 13 9
M  V30 9 1 4 15 CFG=1
M  V30 10 1 19 11
M  V30 11 1 20 5
M  V30 12 1 20 8
M  V30 13 1 22 4
M  V30 14 1 22 7
M  V30 15 1 23 3
M  V30 16 1 23 11
M  V30 17 1 23 19
M  V30 18 1 24 15
M  V30 19 1 24 17
M  V30 20 1 24 18
M  V30 21 1 24 21
M  V30 22 1 25 3
M  V30 23 1 25 14
M  V30 24 1 26 8
M  V30 25 1 26 23
M  V30 26 1 28 16
M  V30 27 1 28 22
M  V30 28 1 28 25
M  V30 29 1 30 14
M  V30 30 1 30 26
M  V30 31 1 31 7
M  V30 32 1 31 18
M  V30 33 1 31 27
M  V30 34 1 31 29
M  V30 35 1 32 1
M  V30 36 1 33 1
M  V30 37 1 34 3
M  V30 38 1 35 3
M  V30 39 1 5 36 CFG=1
M  V30 40 1 37 6
M  V30 41 1 38 6
M  V30 42 1 7 39 CFG=1
M  V30 43 1 8 40 CFG=1
M  V30 44 1 41 10
M  V30 45 1 42 11
M  V30 46 1 43 11
M  V30 47 1 44 12
M  V30 48 1 45 12
M  V30 49 1 46 12
M  V30 50 1 13 47 CFG=3
M  V30 51 1 48 14
M  V30 52 1 49 14
M  V30 53 1 50 15
M  V30 54 1 51 15
M  V30 55 1 52 16
M  V30 56 1 53 16
M  V30 57 1 54 16
M  V30 58 1 55 17
M  V30 59 1 56 17
M  V30 60 1 57 17
M  V30 61 1 58 19
M  V30 62 1 59 19
M  V30 63 1 60 20
M  V30 64 1 61 20
M  V30 65 1 62 21
M  V30 66 1 63 21
M  V30 67 1 64 21
M  V30 68 1 22 65 CFG=1
M  V30 69 1 25 66 CFG=1
M  V30 70 1 26 67 CFG=3
M  V30 71 1 68 27
M  V30 72 1 69 27
M  V30 73 1 70 27
M  V30 74 1 28 71 CFG=3
M  V30 75 1 72 29
M  V30 76 1 73 29
M  V30 77 1 74 29
M  V30 78 1 75 30
M  V30 79 1 76 30
M  V30 END BOND
M  V30 END CTAB
M  END
>  <i_epik_Tot_Q>  (1) 
0

>  <i_epik_Tot_abs_Q>  (1) 
0

>  <i_i_glide_confnum>  (1) 
1

>  <i_i_glide_lignum>  (1) 
91

>  <i_i_glide_posenum>  (1) 
269

>  <i_i_glide_rotatable_bonds>  (1) 
4

>  <i_lp_mmshare_version>  (1) 
72125

>  <i_m_source_file_index>  (1) 
37

>  <i_f3d_flags>  (1) 
0

>  <num_sample>  (1) 
50

>  <b_lp_Chiralities_Consistent>  (1) 
1

>  <r_epik_Charging_Adjusted_Penalty>  (1) 
0

>  <r_epik_Ionization_Penalty>  (1) 
1.4246355220095789e-06

>  <r_epik_Ionization_Penalty_Charging>  (1) 
0

>  <r_epik_Ionization_Penalty_Neutral>  (1) 
1.4246355220095789e-06

>  <r_epik_State_Penalty>  (1) 
-0

>  <r_glide_ring_energy>  (1) 
2.004899065166172

>  <r_i_docking_score>  (1) 
-3.7321024438129964

>  <r_i_glide_ecoul>  (1) 
-5.5631048530364851

>  <r_i_glide_eff_state_penalty>  (1) 
-0

>  <r_i_glide_einternal>  (1) 
22.362603150786029

>  <r_i_glide_emodel>  (1) 
4.2294086997621569

>  <r_i_glide_emodel_strain>  (1) 
7.4027547372666049

>  <r_i_glide_energy>  (1) 
-10.030729086300449

>  <r_i_glide_erotb>  (1) 
0.28908081276348274

>  <r_i_glide_esite>  (1) 
0

>  <r_i_glide_evdw>  (1) 
-4.4676242332639635

>  <r_i_glide_gscore>  (1) 
-3.7321024438129964

>  <r_i_glide_gscore_strain>  (1) 
0.85068868431665123

>  <r_i_glide_hbond>  (1) 
-0.16

>  <r_i_glide_ligand_efficiency>  (1) 
-0.12039040141332247

>  <r_i_glide_ligand_efficiency_ln>  (1) 
-0.84170347628379105

>  <r_i_glide_ligand_efficiency_sa>  (1) 
-0.37819207773344465

>  <r_i_glide_lipo>  (1) 
-2.2143788456501947

>  <r_i_glide_metal>  (1) 
-0

>  <r_i_glide_rewards>  (1) 
-1.4396461556242643

>  <r_lp_Energy>  (1) 
32.420203000000001

>  <r_lp_tautomer_probability>  (1) 
1

>  <s_epik_cmdline>  (1) 
J2VwaWtfcHl0aG9uJywgJy1waHQnLCAnMS4wJywgJy1waCcsICc3LjQnLCAnLXRuJywgJzgnLCAnLW1hJywgJzUwMCcsICctaW1hZScsICc8aW5maWxlLm1hZT4nLCAnLW9tYWUnLCAnPG91dGZpbGUubWFlPic=

>  <s_epik_input>  (1) 
W0NIM11bQ0BASF0xW0NASF0oRilbQ0gyXVtDSDJdW0NAQEhdKFtDSDJdMSlbQ0BASF0yW0NIMl1bQ0gyXVtDQEBIXShbQ0gyXUMyM1tDSDJdW0NIMl0zKVtDQEhdKFtDSDNdKVtDQEhdKFtDQEhdKFtPSF0pQyhPNCkoW0NIM10pW0NIM10pUyg9TylbQ0gyXUM0KFtDSDNdKVtDSDNd

>  <s_glide_docking_method>  (1) 
confgen

>  <s_i_glide_gridfile>  (1) 
gpcr_drd2_6luq_protein_autoprepared_prepared

>  <s_lp_Force_Field>  (1) 
S-OPLS

>  <s_lp_Variant>  (1) 
DiffSBDD_36_num_sample_50-1

>  <s_m_source_file>  (1) 
generated__ligand_DiffSBDD_2026-05-06_prepared.sdf

>  <GenAI_Model>  (1) 
DiffSBDD

>  <Protein>  (1) 
generic_title2

$$$$
DiffSBDD_31_num_sample_50
     RDKit          3D

  0  0  0  0  0  0  0  0  0  0999 V3000
M  V30 BEGIN CTAB
M  V30 COUNTS 71 76 0 0 1
M  V30 BEGIN ATOM
M  V30 1 C 9.523875 4.657031 -21.783188 0
M  V30 2 C 7.480117 5.702980 -20.134180 0
M  V30 3 C 8.837609 4.862110 -8.134460 0
M  V30 4 C 6.641024 6.775926 -12.226890 0
M  V30 5 C 8.309721 5.619226 -10.870699 0
M  V30 6 C 7.477493 4.584018 -15.936688 0
M  V30 7 C 9.791155 7.628149 -10.416296 0 CFG=2
M  V30 8 C 5.098519 6.524564 -20.018158 0
M  V30 9 F 10.501521 4.157257 -22.574925 0
M  V30 10 C 8.330908 3.935805 -21.597901 0
M  V30 11 C 6.387334 6.264973 -19.263663 0
M  V30 12 C 7.739560 4.896168 -13.341061 0
M  V30 13 C 5.859644 7.105984 -15.932309 0
M  V30 14 C 5.291785 6.169275 -16.999299 0
M  V30 15 C 7.569355 5.278585 -17.315215 0
M  V30 16 C 7.312266 4.455315 -20.776252 0
M  V30 17 F 9.034934 8.476942 -11.116579 0
M  V30 18 C 9.700365 5.897703 -21.146138 0
M  V30 19 C 8.683281 6.419375 -20.324168 0
M  V30 20 C 9.336973 5.970723 -8.686829 0
M  V30 21 N 6.275646 5.600293 -17.935981 0
M  V30 22 C 6.295209 7.369299 -13.576123 0
M  V30 23 C 11.189743 7.456861 -11.037943 0
M  V30 24 C 7.958970 6.016699 -12.304202 0 CFG=1
M  V30 25 O 11.207051 6.807631 -12.291202 0
M  V30 26 C 5.889640 7.689335 -19.487913 0
M  V30 27 C 6.896630 3.691071 -12.952687 0
M  V30 28 C 9.114343 6.340360 -10.029792 0
M  V30 29 C 10.020663 8.143988 -8.911621 0 CFG=2
M  V30 30 O 11.150961 8.969306 -8.708866 0
M  V30 31 C 8.380983 3.529057 -13.154047 0
M  V30 32 C 7.496397 5.559664 -14.733177 0 CFG=2
M  V30 33 N 6.254547 6.392928 -14.679631 0 CFG=2 CHG=1
M  V30 34 C 10.138917 6.933717 -7.902246 0
M  V30 35 H 9.034739 4.649629 -7.107657 0
M  V30 36 H 8.235934 4.169314 -8.682650 0
M  V30 37 H 5.837128 6.123525 -11.882494 0
M  V30 38 H 6.700150 7.579545 -11.492395 0
M  V30 39 H 7.838713 4.722045 -10.516034 0
M  V30 40 H 6.635213 3.895981 -15.891673 0
M  V30 41 H 8.367650 3.960334 -15.874550 0
M  V30 42 H 5.096702 6.387362 -21.098402 0
M  V30 43 H 4.179920 6.237115 -19.525989 0
M  V30 44 H 8.194637 2.982857 -22.086725 0
M  V30 45 H 5.041906 7.784429 -15.682824 0
M  V30 46 H 6.634895 7.757562 -16.322766 0
M  V30 47 H 4.786990 5.369305 -16.480156 0
M  V30 48 H 4.478407 6.673947 -17.514437 0
M  V30 49 H 8.092350 4.582274 -17.971791 0
M  V30 50 H 8.196095 6.167597 -17.265366 0
M  V30 51 H 6.395770 3.898574 -20.638548 0
M  V30 52 H 10.616303 6.452204 -21.289338 0
M  V30 53 H 8.822879 7.371674 -19.838731 0
M  V30 54 H 5.292919 7.776801 -13.480554 0
M  V30 55 H 7.033437 8.143089 -13.819938 0
M  V30 56 H 11.862051 6.969310 -10.345166 0
M  V30 57 H 11.659763 8.426359 -11.091652 0
M  V30 58 H 8.729713 6.674421 -12.692234 0
M  V30 59 H 10.640969 7.282850 -12.879469 0
M  V30 60 H 5.434805 8.251681 -18.675780 0
M  V30 61 H 6.413236 8.298988 -20.221814 0
M  V30 62 H 6.512365 3.629181 -11.937802 0
M  V30 63 H 6.246586 3.248542 -13.703565 0
M  V30 64 H 9.139353 8.724200 -8.628690 0
M  V30 65 H 11.934044 8.453463 -8.820043 0
M  V30 66 H 8.634809 2.906810 -14.003298 0
M  V30 67 H 8.987086 3.349550 -12.266938 0
M  V30 68 H 8.335481 6.230106 -14.907258 0
M  V30 69 H 9.706992 7.153216 -6.924993 0
M  V30 70 H 11.156902 6.561094 -7.789617 0
M  V30 71 H 5.503043 5.754630 -14.458078 0
M  V30 END ATOM
M  V30 BEGIN BOND
M  V30 1 1 9 1
M  V30 2 1 10 1
M  V30 3 1 11 2
M  V30 4 1 11 8
M  V30 5 1 14 13
M  V30 6 1 15 6
M  V30 7 1 16 2
M  V30 8 2 16 10
M  V30 9 1 7 17 CFG=3
M  V30 10 2 18 1
M  V30 11 2 19 2
M  V30 12 1 19 18
M  V30 13 2 20 3
M  V30 14 1 21 11
M  V30 15 1 21 14
M  V30 16 1 21 15
M  V30 17 1 22 4
M  V30 18 1 23 7
M  V30 19 1 24 4
M  V30 20 1 24 5
M  V30 21 1 24 12
M  V30 22 1 25 23
M  V30 23 1 26 8
M  V30 24 1 26 11
M  V30 25 1 27 12
M  V30 26 2 28 5
M  V30 27 1 28 7
M  V30 28 1 28 20
M  V30 29 1 29 7
M  V30 30 1 30 29
M  V30 31 1 31 12
M  V30 32 1 31 27
M  V30 33 1 32 6
M  V30 34 1 32 12
M  V30 35 1 33 13
M  V30 36 1 33 22
M  V30 37 1 33 32
M  V30 38 1 34 20
M  V30 39 1 34 29
M  V30 40 1 35 3
M  V30 41 1 36 3
M  V30 42 1 37 4
M  V30 43 1 38 4
M  V30 44 1 39 5
M  V30 45 1 40 6
M  V30 46 1 41 6
M  V30 47 1 42 8
M  V30 48 1 43 8
M  V30 49 1 44 10
M  V30 50 1 45 13
M  V30 51 1 46 13
M  V30 52 1 47 14
M  V30 53 1 48 14
M  V30 54 1 49 15
M  V30 55 1 50 15
M  V30 56 1 51 16
M  V30 57 1 52 18
M  V30 58 1 53 19
M  V30 59 1 54 22
M  V30 60 1 55 22
M  V30 61 1 56 23
M  V30 62 1 57 23
M  V30 63 1 24 58 CFG=3
M  V30 64 1 59 25
M  V30 65 1 60 26
M  V30 66 1 61 26
M  V30 67 1 62 27
M  V30 68 1 63 27
M  V30 69 1 29 64 CFG=1
M  V30 70 1 65 30
M  V30 71 1 66 31
M  V30 72 1 67 31
M  V30 73 1 32 68 CFG=3
M  V30 74 1 69 34
M  V30 75 1 70 34
M  V30 76 1 33 71 CFG=1
M  V30 END BOND
M  V30 END CTAB
M  END
>  <i_epik_Tot_Q>  (1) 
1

>  <i_epik_Tot_abs_Q>  (1) 
1

>  <i_i_glide_confnum>  (1) 
114

>  <i_i_glide_lignum>  (1) 
79

>  <i_i_glide_posenum>  (1) 
347

>  <i_i_glide_rotatable_bonds>  (1) 
6

>  <i_lp_mmshare_version>  (1) 
72125

>  <i_m_source_file_index>  (1) 
32

>  <i_f3d_flags>  (1) 
0

>  <num_sample>  (1) 
50

>  <b_lp_Chiralities_Consistent>  (1) 
1

>  <r_epik_Charging_Adjusted_Penalty>  (1) 
0.0036996964664751512

>  <r_epik_Ionization_Penalty>  (1) 
0.0040620325304727405

>  <r_epik_Ionization_Penalty_Charging>  (1) 
0.0036996964664751512

>  <r_epik_Ionization_Penalty_Neutral>  (1) 
0.00036233606399758918

>  <r_epik_State_Penalty>  (1) 
-0

>  <r_glide_ring_energy>  (1) 
0

>  <r_i_docking_score>  (1) 
-3.727916356214406

>  <r_i_glide_ecoul>  (1) 
-0.68248748699282968

>  <r_i_glide_eff_state_penalty>  (1) 
-0

>  <r_i_glide_einternal>  (1) 
2.9642834496023553

>  <r_i_glide_emodel>  (1) 
-23.487350656300134

>  <r_i_glide_emodel_strain>  (1) 
0.39606004119936244

>  <r_i_glide_energy>  (1) 
-21.848699860219487

>  <r_i_glide_erotb>  (1) 
0.36352394052346937

>  <r_i_glide_esite>  (1) 
-0.093013059251427388

>  <r_i_glide_evdw>  (1) 
-21.166212373226656

>  <r_i_glide_gscore>  (1) 
-3.727916356214406

>  <r_i_glide_gscore_strain>  (1) 
0

>  <r_i_glide_hbond>  (1) 
0

>  <r_i_glide_ligand_efficiency>  (1) 
-0.10964459871218842

>  <r_i_glide_ligand_efficiency_ln>  (1) 
-0.82360128759971807

>  <r_i_glide_ligand_efficiency_sa>  (1) 
-0.35520593593433958

>  <r_i_glide_lipo>  (1) 
-1.8300467351642282

>  <r_i_glide_metal>  (1) 
-0

>  <r_i_glide_rewards>  (1) 
-1.007696760611962

>  <r_lp_Energy>  (1) 
28.935495999999997

>  <r_lp_tautomer_probability>  (1) 
1

>  <s_epik_cmdline>  (1) 
J2VwaWtfcHl0aG9uJywgJy1waHQnLCAnMS4wJywgJy1waCcsICc3LjQnLCAnLXRuJywgJzgnLCAnLW1hJywgJzUwMCcsICctaW1hZScsICc8aW5maWxlLm1hZT4nLCAnLW9tYWUnLCAnPG91dGZpbGUubWFlPic=

>  <s_epik_input>  (1) 
RmMxW2NIXVtjSF1jKFtjSF1bY0hdMSlDMihbQ0gyXVtDSDJdMilOKFtDSDJdW0NIMl0zKVtDSDJdW0NIMl1OKFtDQEhdM0M0NVtDSDJdW0NIMl01KVtDSDJdW0NIMl1bQ0BIXTQvW0NIXT1DKFxbQ0BdNihGKVtDSDJdW09IXSlDKD1bQ0gyXSlbQ0gyXVtDQEhdNltPSF0=

>  <s_glide_docking_method>  (1) 
confgen

>  <s_i_glide_gridfile>  (1) 
gpcr_drd2_6luq_protein_autoprepared_prepared

>  <s_lp_Force_Field>  (1) 
S-OPLS

>  <s_lp_Variant>  (1) 
DiffSBDD_31_num_sample_50-2

>  <s_m_source_file>  (1) 
generated__ligand_DiffSBDD_2026-05-06_prepared.sdf

>  <GenAI_Model>  (1) 
DiffSBDD

>  <Protein>  (1) 
generic_title2

$$$$
DiffSBDD_29_num_sample_50
     RDKit          3D

  0  0  0  0  0  0  0  0  0  0999 V3000
M  V30 BEGIN CTAB
M  V30 COUNTS 63 66 0 0 1
M  V30 BEGIN ATOM
M  V30 1 C 7.433929 5.387343 -16.150514 0
M  V30 2 O 14.517925 7.129631 -18.790845 0
M  V30 3 C 17.080231 9.366498 -17.985507 0
M  V30 4 C 8.498712 4.586468 -15.452590 0
M  V30 5 O 17.139170 5.805785 -19.288072 0
M  V30 6 N 11.312046 5.365286 -18.057129 0
M  V30 7 C 17.248353 7.838116 -18.050836 0
M  V30 8 C 14.906582 9.958537 -19.281701 0
M  V30 9 C 14.114845 8.969694 -21.465947 0
M  V30 10 C 5.533803 6.838234 -16.323606 0
M  V30 11 C 10.652099 5.190326 -16.757441 0
M  V30 12 C 10.341031 5.909736 -19.015829 0
M  V30 13 C 17.539458 5.178158 -20.499111 0
M  V30 14 C 15.411151 7.443450 -19.856563 0 CFG=1
M  V30 15 C 7.511084 5.369300 -17.490014 0
M  V30 16 C 9.147642 4.965992 -19.230551 0
M  V30 17 C 9.402094 4.273227 -16.774990 0 CFG=2
M  V30 18 C 15.190395 8.894175 -20.368043 0 CFG=2
M  V30 19 C 6.433094 6.128445 -15.508774 0
M  V30 20 C 13.401277 6.329666 -19.145485 0
M  V30 21 N 6.684655 6.035160 -18.336486 0
M  V30 22 C 16.875492 7.202400 -19.400664 0 CFG=2
M  V30 23 C 15.608654 9.802031 -17.921808 0
M  V30 24 N 8.541627 4.595389 -17.952123 0
M  V30 25 C 5.698644 6.761066 -17.731031 0
M  V30 26 N 6.234850 6.199267 -12.905616 0
M  V30 27 C 12.490204 6.225365 -17.911694 0
M  V30 28 C 6.324101 6.168255 -14.058002 0
M  V30 29 C 17.814281 3.699279 -20.222735 0
M  V30 30 H 17.598310 9.853566 -18.812342 0
M  V30 31 H 17.574051 9.715869 -17.078498 0
M  V30 32 H 9.030292 5.147346 -14.682427 0
M  V30 33 H 8.070464 3.678912 -15.026085 0
M  V30 34 H 18.292415 7.600912 -17.843344 0
M  V30 35 H 16.678628 7.362586 -17.252705 0
M  V30 36 H 15.153410 10.938462 -19.692671 0
M  V30 37 H 13.834839 9.993302 -19.091677 0
M  V30 38 H 13.124773 8.732865 -21.078586 0
M  V30 39 H 14.064339 9.972724 -21.891750 0
M  V30 40 H 14.329115 8.281161 -22.283538 0
M  V30 41 H 4.739816 7.429783 -15.891754 0
M  V30 42 H 10.359561 6.169300 -16.379614 0
M  V30 43 H 11.362290 4.793182 -16.030501 0
M  V30 44 H 10.813818 6.066912 -19.984261 0
M  V30 45 H 9.985037 6.887941 -18.691667 0
M  V30 46 H 16.767685 5.270713 -21.262848 0
M  V30 47 H 18.443506 5.649516 -20.887181 0
M  V30 48 H 15.230337 6.771400 -20.695793 0
M  V30 49 H 9.498878 4.048232 -19.702589 0
M  V30 50 H 8.434432 5.403435 -19.928864 0
M  V30 51 H 9.705302 3.226574 -16.811135 0
M  V30 52 H 16.115018 9.194618 -20.862051 0
M  V30 53 H 13.739767 5.340376 -19.456838 0
M  V30 54 H 12.871466 6.779700 -19.982693 0
M  V30 55 H 17.555316 7.618639 -20.146402 0
M  V30 56 H 15.535531 10.755810 -17.397976 0
M  V30 57 H 15.047249 9.101748 -17.303962 0
M  V30 58 H 5.027214 7.294827 -18.387296 0
M  V30 59 H 12.183931 7.228422 -17.610595 0
M  V30 60 H 13.102287 5.845301 -17.092523 0
M  V30 61 H 18.117785 3.182897 -21.133609 0
M  V30 62 H 18.613870 3.581748 -19.491669 0
M  V30 63 H 16.925171 3.201202 -19.835650 0
M  V30 END ATOM
M  V30 BEGIN BOND
M  V30 1 1 4 1
M  V30 2 1 7 3
M  V30 3 1 11 6
M  V30 4 1 12 6
M  V30 5 1 13 5
M  V30 6 1 14 2
M  V30 7 1 15 1
M  V30 8 1 16 12
M  V30 9 1 17 4
M  V30 10 1 17 11
M  V30 11 1 18 8
M  V30 12 1 18 9
M  V30 13 1 18 14
M  V30 14 2 19 1
M  V30 15 1 19 10
M  V30 16 1 20 2
M  V30 17 2 21 15
M  V30 18 1 22 5
M  V30 19 1 22 7
M  V30 20 1 22 14
M  V30 21 1 23 3
M  V30 22 1 23 8
M  V30 23 1 24 15
M  V30 24 1 24 16
M  V30 25 1 24 17
M  V30 26 2 25 10
M  V30 27 1 25 21
M  V30 28 1 27 6
M  V30 29 1 27 20
M  V30 30 1 28 19
M  V30 31 3 28 26
M  V30 32 1 29 13
M  V30 33 1 30 3
M  V30 34 1 31 3
M  V30 35 1 32 4
M  V30 36 1 33 4
M  V30 37 1 34 7
M  V30 38 1 35 7
M  V30 39 1 36 8
M  V30 40 1 37 8
M  V30 41 1 38 9
M  V30 42 1 39 9
M  V30 43 1 40 9
M  V30 44 1 41 10
M  V30 45 1 42 11
M  V30 46 1 43 11
M  V30 47 1 44 12
M  V30 48 1 45 12
M  V30 49 1 46 13
M  V30 50 1 47 13
M  V30 51 1 14 48 CFG=3
M  V30 52 1 49 16
M  V30 53 1 50 16
M  V30 54 1 17 51 CFG=3
M  V30 55 1 18 52 CFG=3
M  V30 56 1 53 20
M  V30 57 1 54 20
M  V30 58 1 22 55 CFG=3
M  V30 59 1 56 23
M  V30 60 1 57 23
M  V30 61 1 58 25
M  V30 62 1 59 27
M  V30 63 1 60 27
M  V30 64 1 61 29
M  V30 65 1 62 29
M  V30 66 1 63 29
M  V30 END BOND
M  V30 END CTAB
M  END
>  <i_epik_Tot_Q>  (1) 
0

>  <i_epik_Tot_abs_Q>  (1) 
0

>  <i_i_glide_confnum>  (1) 
172

>  <i_i_glide_lignum>  (1) 
71

>  <i_i_glide_posenum>  (1) 
390

>  <i_i_glide_rotatable_bonds>  (1) 
6

>  <i_lp_mmshare_version>  (1) 
72125

>  <i_m_source_file_index>  (1) 
30

>  <i_f3d_flags>  (1) 
0

>  <num_sample>  (1) 
50

>  <b_lp_Chiralities_Consistent>  (1) 
1

>  <r_epik_Charging_Adjusted_Penalty>  (1) 
0.33209033116494396

>  <r_epik_Ionization_Penalty>  (1) 
0.33211857123964

>  <r_epik_Ionization_Penalty_Charging>  (1) 
0

>  <r_epik_Ionization_Penalty_Neutral>  (1) 
0.33211857123964

>  <r_epik_State_Penalty>  (1) 
0.33209033116494396

>  <r_glide_ring_energy>  (1) 
0.17809710789905059

>  <r_i_docking_score>  (1) 
-3.722571683674023

>  <r_i_glide_ecoul>  (1) 
-0.74958816617868129

>  <r_i_glide_eff_state_penalty>  (1) 
0.33209033116494396

>  <r_i_glide_einternal>  (1) 
0.58997900095396716

>  <r_i_glide_emodel>  (1) 
-35.870584689344767

>  <r_i_glide_emodel_strain>  (1) 
0

>  <r_i_glide_energy>  (1) 
-29.442154903995672

>  <r_i_glide_erotb>  (1) 
0.61650785367983663

>  <r_i_glide_esite>  (1) 
0

>  <r_i_glide_evdw>  (1) 
-28.692566737816989

>  <r_i_glide_gscore>  (1) 
-4.0546620148389669

>  <r_i_glide_gscore_strain>  (1) 
0

>  <r_i_glide_hbond>  (1) 
0

>  <r_i_glide_ligand_efficiency>  (1) 
-0.12836454081634563

>  <r_i_glide_ligand_efficiency_ln>  (1) 
-0.85237451928818653

>  <r_i_glide_ligand_efficiency_sa>  (1) 
-0.3943765385714964

>  <r_i_glide_lipo>  (1) 
-1.9172946622706908

>  <r_i_glide_metal>  (1) 
-0

>  <r_i_glide_rewards>  (1) 
-1.2068086444304611

>  <r_lp_Energy>  (1) 
50.742739

>  <s_epik_cmdline>  (1) 
J2VwaWtfcHl0aG9uJywgJy1waHQnLCAnMS4wJywgJy1waCcsICc3LjQnLCAnLXRuJywgJzgnLCAnLW1hJywgJzUwMCcsICctaW1hZScsICc8aW5maWxlLm1hZT4nLCAnLW9tYWUnLCAnPG91dGZpbGUubWFlPic=

>  <s_epik_input>  (1) 
TiNDYzFbY0hdW2NIXW5jKGMxMilOM1tDQEhdKFtDSDJdMilbQ0gyXU4oW0NIMl1bQ0gyXTMpW0NIMl1bQ0gyXU9bQ0BIXTRbQ0BASF0oW0NIM10pW0NIMl1bQ0gyXVtDSDJdW0NIMl1bQ0BIXTRPW0NIMl1bQ0gzXQ==

>  <s_glide_docking_method>  (1) 
confgen

>  <s_i_glide_gridfile>  (1) 
gpcr_drd2_6luq_protein_autoprepared_prepared

>  <s_lp_Force_Field>  (1) 
S-OPLS

>  <s_lp_Variant>  (1) 
DiffSBDD_29_num_sample_50-1

>  <s_m_source_file>  (1) 
generated__ligand_DiffSBDD_2026-05-06_prepared.sdf

>  <GenAI_Model>  (1) 
DiffSBDD

>  <Protein>  (1) 
generic_title2

$$$$
DiffSBDD_43_num_sample_50
     RDKit          3D

  0  0  0  0  0  0  0  0  0  0999 V3000
M  V30 BEGIN CTAB
M  V30 COUNTS 58 58 0 0 1
M  V30 BEGIN ATOM
M  V30 1 C 6.710590 5.675637 -11.875893 0
M  V30 2 C 11.146142 6.942522 -6.206856 0
M  V30 3 N 6.826843 -0.003264 -18.697782 0
M  V30 4 O 6.926952 0.600886 -13.799134 0
M  V30 5 C 9.021946 5.416142 -10.725390 0
M  V30 6 C 10.097390 6.512148 -8.579736 0 CFG=2
M  V30 7 C 7.202090 2.933266 -13.010846 0 CFG=1
M  V30 8 O 8.942631 7.673745 -6.735489 0
M  V30 9 O 11.249495 10.169547 -4.757430 0
M  V30 10 N 8.243503 3.736914 -12.368878 0
M  V30 11 C 11.486651 9.310070 -5.523423 0
M  V30 12 F 6.749830 3.571331 -14.089438 0
M  V30 13 O 7.067865 6.555463 -12.691824 0
M  V30 14 C 7.861744 -2.155200 -17.882891 0
M  V30 15 C 6.100619 0.136794 -17.438913 0 CFG=2
M  V30 16 C 7.856826 1.611162 -13.446819 0
M  V30 17 C 7.787022 4.705469 -11.348349 0 CFG=2
M  V30 18 C 8.939863 5.681395 -9.202446 0
M  V30 19 O 6.368207 0.912399 -15.157775 0
M  V30 20 C 9.882044 6.673161 -7.047578 0 CFG=2
M  V30 21 F 6.287105 -2.023758 -19.621553 0
M  V30 22 C 6.934373 0.148555 -16.154888 0
M  V30 23 C 11.725349 8.338420 -6.374898 0
M  V30 24 O 5.534181 5.458275 -11.505798 0 CHG=-1
M  V30 25 C 8.121764 -0.484984 -15.972490 0
M  V30 26 C 8.822686 -1.334873 -17.018697 0
M  V30 27 C 10.340353 7.857949 -9.313211 0
M  V30 28 C 11.551712 7.828466 -10.257285 0
M  V30 29 F 5.096517 -0.737005 -17.381647 0
M  V30 30 C 7.282723 -1.344803 -19.048700 0 CFG=1
M  V30 31 H 10.895099 6.787700 -5.155652 0
M  V30 32 H 11.911915 6.205385 -6.447092 0
M  V30 33 H 6.229396 0.309990 -19.449200 0
M  V30 34 H 9.198416 6.349220 -11.256512 0
M  V30 35 H 9.904945 4.809270 -10.908063 0
M  V30 36 H 10.999218 5.912276 -8.679944 0
M  V30 37 H 6.355614 2.747439 -12.346568 0
M  V30 38 H 8.088270 7.430333 -7.092043 0
M  V30 39 H 8.918086 3.106092 -11.963209 0
M  V30 40 H 8.388603 -3.022611 -18.281584 0
M  V30 41 H 7.069021 -2.569311 -17.257249 0
M  V30 42 H 5.608482 1.105924 -17.488915 0
M  V30 43 H 8.568510 1.777034 -14.253814 0
M  V30 44 H 8.431203 1.203678 -12.620163 0
M  V30 45 H 7.307151 4.136850 -10.553757 0
M  V30 46 H 8.884720 4.719825 -8.691047 0
M  V30 47 H 8.001644 6.169301 -8.967432 0
M  V30 48 H 9.461345 5.741209 -6.675037 0
M  V30 49 H 12.348660 8.500994 -7.241052 0
M  V30 50 H 8.632420 -0.399276 -15.026512 0
M  V30 51 H 9.491584 -0.716776 -17.619698 0
M  V30 52 H 9.457648 -2.026852 -16.467831 0
M  V30 53 H 9.443012 8.159586 -9.855060 0
M  V30 54 H 10.499914 8.663426 -8.602416 0
M  V30 55 H 11.738293 8.816201 -10.671748 0
M  V30 56 H 12.458505 7.530167 -9.731240 0
M  V30 57 H 11.396796 7.144446 -11.090779 0
M  V30 58 H 8.047483 -1.228662 -19.819664 0
M  V30 END ATOM
M  V30 BEGIN BOND
M  V30 1 1 10 7
M  V30 2 2 11 9
M  V30 3 1 12 7
M  V30 4 2 13 1
M  V30 5 1 15 3
M  V30 6 1 16 4
M  V30 7 1 16 7
M  V30 8 1 17 1
M  V30 9 1 17 5
M  V30 10 1 17 10
M  V30 11 1 18 5
M  V30 12 1 18 6
M  V30 13 1 19 4
M  V30 14 1 20 2
M  V30 15 1 20 6
M  V30 16 1 20 8
M  V30 17 1 22 15
M  V30 18 1 22 19
M  V30 19 1 23 2
M  V30 20 2 23 11
M  V30 21 1 24 1
M  V30 22 2 25 22
M  V30 23 1 26 14
M  V30 24 1 26 25
M  V30 25 1 27 6
M  V30 26 1 28 27
M  V30 27 1 29 15
M  V30 28 1 30 3
M  V30 29 1 30 14
M  V30 30 1 30 21
M  V30 31 1 31 2
M  V30 32 1 32 2
M  V30 33 1 33 3
M  V30 34 1 34 5
M  V30 35 1 35 5
M  V30 36 1 6 36 CFG=1
M  V30 37 1 7 37 CFG=1
M  V30 38 1 38 8
M  V30 39 1 39 10
M  V30 40 1 40 14
M  V30 41 1 41 14
M  V30 42 1 15 42 CFG=3
M  V30 43 1 43 16
M  V30 44 1 44 16
M  V30 45 1 17 45 CFG=1
M  V30 46 1 46 18
M  V30 47 1 47 18
M  V30 48 1 20 48 CFG=1
M  V30 49 1 49 23
M  V30 50 1 50 25
M  V30 51 1 51 26
M  V30 52 1 52 26
M  V30 53 1 53 27
M  V30 54 1 54 27
M  V30 55 1 55 28
M  V30 56 1 56 28
M  V30 57 1 57 28
M  V30 58 1 30 58 CFG=3
M  V30 END BOND
M  V30 END CTAB
M  END
>  <i_epik_Tot_Q>  (1) 
-1

>  <i_epik_Tot_abs_Q>  (1) 
1

>  <i_i_glide_confnum>  (1) 
2098

>  <i_i_glide_lignum>  (1) 
106

>  <i_i_glide_posenum>  (1) 
187

>  <i_i_glide_rotatable_bonds>  (1) 
15

>  <i_lp_mmshare_version>  (1) 
72125

>  <i_m_source_file_index>  (1) 
44

>  <i_f3d_flags>  (1) 
0

>  <num_sample>  (1) 
50

>  <b_lp_Chiralities_Consistent>  (1) 
1

>  <r_epik_Charging_Adjusted_Penalty>  (1) 
0.10859487374936995

>  <r_epik_Ionization_Penalty>  (1) 
0.10861046635066096

>  <r_epik_Ionization_Penalty_Charging>  (1) 
0.0014700329650535538

>  <r_epik_Ionization_Penalty_Neutral>  (1) 
0.10714043338560741

>  <r_epik_State_Penalty>  (1) 
0.1071248407843164

>  <r_glide_ring_energy>  (1) 
0

>  <r_i_docking_score>  (1) 
-3.7202667708041579

>  <r_i_glide_ecoul>  (1) 
-2.749325390934112

>  <r_i_glide_eff_state_penalty>  (1) 
0.1071248407843164

>  <r_i_glide_einternal>  (1) 
14.110351756187608

>  <r_i_glide_emodel>  (1) 
-38.016315322655984

>  <r_i_glide_emodel_strain>  (1) 
1.0790893327712148

>  <r_i_glide_energy>  (1) 
-38.445470749001409

>  <r_i_glide_erotb>  (1) 
1.1463316203487632

>  <r_i_glide_esite>  (1) 
-0.053648401352655223

>  <r_i_glide_evdw>  (1) 
-35.696145358067298

>  <r_i_glide_gscore>  (1) 
-3.8273916115884745

>  <r_i_glide_gscore_strain>  (1) 
0

>  <r_i_glide_hbond>  (1) 
-0.16

>  <r_i_glide_ligand_efficiency>  (1) 
-0.1240088923601386

>  <r_i_glide_ligand_efficiency_ln>  (1) 
-0.84528514587981562

>  <r_i_glide_ligand_efficiency_sa>  (1) 
-0.38532446136875581

>  <r_i_glide_lipo>  (1) 
-1.5332264789428649

>  <r_i_glide_metal>  (1) 
-0

>  <r_i_glide_rewards>  (1) 
-1.0296422750982357

>  <r_lp_Energy>  (1) 
14.872098999999999

>  <s_epik_cmdline>  (1) 
J2VwaWtfcHl0aG9uJywgJy1waHQnLCAnMS4wJywgJy1waCcsICc3LjQnLCAnLXRuJywgJzgnLCAnLW1hJywgJzUwMCcsICctaW1hZScsICc8aW5maWxlLm1hZT4nLCAnLW9tYWUnLCAnPG91dGZpbGUubWFlPic=

>  <s_epik_input>  (1) 
Tz1DPVtDSF1bQ0gyXVtDQEBIXShbT0hdKVtDQEhdKFtDSDJdW0NIM10pW0NIMl1bQ0gyXVtDQEBIXShDKD1PKVtPSF0pW05IXVtDQEBIXShGKVtDSDJdT09DMT1bQ0hdW0NIMl1bQ0gyXVtDQEBIXShGKVtOSF1bQ0BIXTFG

>  <s_glide_docking_method>  (1) 
confgen

>  <s_i_glide_gridfile>  (1) 
gpcr_drd2_6luq_protein_autoprepared_prepared

>  <s_lp_Force_Field>  (1) 
S-OPLS

>  <s_lp_Variant>  (1) 
DiffSBDD_43_num_sample_50-1

>  <s_m_source_file>  (1) 
generated__ligand_DiffSBDD_2026-05-06_prepared.sdf

>  <GenAI_Model>  (1) 
DiffSBDD

>  <Protein>  (1) 
generic_title2

$$$$
DiffSBDD_4_num_sample_50
     RDKit          3D

  0  0  0  0  0  0  0  0  0  0999 V3000
M  V30 BEGIN CTAB
M  V30 COUNTS 43 44 0 0 1
M  V30 BEGIN ATOM
M  V30 1 C 10.887309 5.369245 -17.526391 0
M  V30 2 C 5.878324 7.505205 -14.846155 0
M  V30 3 C 7.793175 4.958043 -12.851114 0
M  V30 4 C 5.453396 4.850593 -21.821340 0
M  V30 5 C 5.554942 6.710175 -16.130072 0
M  V30 6 O 11.729114 4.551650 -17.891736 0
M  V30 7 N 6.634820 5.760529 -16.470670 0
M  V30 8 O 5.069157 6.261203 -18.850257 0
M  V30 9 C 7.418627 5.699923 -14.132897 0 CFG=2
M  V30 10 C 6.233048 6.547814 -13.705332 0 CFG=1
M  V30 11 C 9.522787 4.910254 -17.026047 0
M  V30 12 C 7.024838 4.873499 -15.358642 0
M  V30 13 O 6.779018 5.369302 -10.691664 0
M  V30 14 C 6.261735 5.966123 -18.956259 0
M  V30 15 O 6.901093 5.877581 -20.146240 0
M  V30 16 C 6.694181 7.127334 -12.369471 0
M  V30 17 C 7.510799 5.982415 -11.730036 0 CFG=2
M  V30 18 C 7.175000 5.641683 -17.785110 0
M  V30 19 C 8.457406 5.245551 -18.060998 0
M  V30 20 C 6.202067 6.110427 -21.362693 0
M  V30 21 H 11.049892 6.446921 -17.532846 0
M  V30 22 H 6.719127 8.171314 -15.042599 0
M  V30 23 H 5.034842 8.137706 -14.572776 0
M  V30 24 H 8.830704 4.621996 -12.855687 0
M  V30 25 H 7.162184 4.074578 -12.737999 0
M  V30 26 H 4.952250 5.024174 -22.773583 0
M  V30 27 H 4.694521 4.551129 -21.097842 0
M  V30 28 H 6.139841 4.014004 -21.953263 0
M  V30 29 H 4.614344 6.169312 -16.030298 0
M  V30 30 H 5.415400 7.482702 -16.883521 0
M  V30 31 H 8.237564 6.364651 -14.398819 0
M  V30 32 H 5.375536 5.900900 -13.509018 0
M  V30 33 H 9.350026 5.424785 -16.084810 0
M  V30 34 H 9.551507 3.834830 -16.849285 0
M  V30 35 H 7.747143 4.101134 -15.597240 0
M  V30 36 H 6.145203 4.289528 -15.091665 0
M  V30 37 H 6.635687 6.036017 -10.024206 0
M  V30 38 H 7.347646 7.984346 -12.539048 0
M  V30 39 H 5.862821 7.468213 -11.750152 0
M  V30 40 H 8.439817 6.375938 -11.315318 0
M  V30 41 H 8.778273 5.161145 -19.088539 0
M  V30 42 H 6.930563 6.395497 -22.121859 0
M  V30 43 H 5.515384 6.952114 -21.260207 0
M  V30 END ATOM
M  V30 BEGIN BOND
M  V30 1 1 5 2
M  V30 2 2 6 1
M  V30 3 1 7 5
M  V30 4 1 9 3
M  V30 5 1 10 2
M  V30 6 1 10 9
M  V30 7 1 11 1
M  V30 8 1 12 7
M  V30 9 1 12 9
M  V30 10 2 14 8
M  V30 11 1 15 14
M  V30 12 1 16 10
M  V30 13 1 17 3
M  V30 14 1 17 13
M  V30 15 1 17 16
M  V30 16 1 18 7
M  V30 17 1 18 14
M  V30 18 1 19 11
M  V30 19 2 19 18
M  V30 20 1 20 4
M  V30 21 1 20 15
M  V30 22 1 21 1
M  V30 23 1 22 2
M  V30 24 1 23 2
M  V30 25 1 24 3
M  V30 26 1 25 3
M  V30 27 1 26 4
M  V30 28 1 27 4
M  V30 29 1 28 4
M  V30 30 1 29 5
M  V30 31 1 30 5
M  V30 32 1 9 31 CFG=3
M  V30 33 1 10 32 CFG=1
M  V30 34 1 33 11
M  V30 35 1 34 11
M  V30 36 1 35 12
M  V30 37 1 36 12
M  V30 38 1 37 13
M  V30 39 1 38 16
M  V30 40 1 39 16
M  V30 41 1 17 40 CFG=1
M  V30 42 1 41 19
M  V30 43 1 42 20
M  V30 44 1 43 20
M  V30 END BOND
M  V30 END CTAB
M  END
>  <i_epik_Tot_Q>  (1) 
0

>  <i_epik_Tot_abs_Q>  (1) 
0

>  <i_i_glide_confnum>  (1) 
16

>  <i_i_glide_lignum>  (1) 
12

>  <i_i_glide_posenum>  (1) 
149

>  <i_i_glide_rotatable_bonds>  (1) 
7

>  <i_lp_mmshare_version>  (1) 
72125

>  <i_m_source_file_index>  (1) 
5

>  <i_f3d_flags>  (1) 
0

>  <num_sample>  (1) 
50

>  <b_lp_Chiralities_Consistent>  (1) 
1

>  <r_epik_Charging_Adjusted_Penalty>  (1) 
0.41067984158451698

>  <r_epik_Ionization_Penalty>  (1) 
6.7674502354530413e-05

>  <r_epik_Ionization_Penalty_Charging>  (1) 
2.6319130011581777e-09

>  <r_epik_Ionization_Penalty_Neutral>  (1) 
6.7671870441529249e-05

>  <r_epik_State_Penalty>  (1) 
0.41067983895260396

>  <r_glide_ring_energy>  (1) 
0

>  <r_i_docking_score>  (1) 
-3.7142677791454912

>  <r_i_glide_ecoul>  (1) 
-2.5991151708542755

>  <r_i_glide_eff_state_penalty>  (1) 
0.41067983895260396

>  <r_i_glide_einternal>  (1) 
3.7702414282761119

>  <r_i_glide_emodel>  (1) 
-28.030509880308259

>  <r_i_glide_emodel_strain>  (1) 
0

>  <r_i_glide_energy>  (1) 
-23.309594677977973

>  <r_i_glide_erotb>  (1) 
0.91336080097250838

>  <r_i_glide_esite>  (1) 
0

>  <r_i_glide_evdw>  (1) 
-20.710479507123697

>  <r_i_glide_gscore>  (1) 
-4.1249476180980951

>  <r_i_glide_gscore_strain>  (1) 
0

>  <r_i_glide_hbond>  (1) 
-0.15923431353451187

>  <r_i_glide_ligand_efficiency>  (1) 
-0.18571338895727457

>  <r_i_glide_ligand_efficiency_ln>  (1) 
-0.92955872036988307

>  <r_i_glide_ligand_efficiency_sa>  (1) 
-0.50410369462316806

>  <r_i_glide_lipo>  (1) 
-1.232317175900167

>  <r_i_glide_metal>  (1) 
-0

>  <r_i_glide_rewards>  (1) 
-2.2213656786515976

>  <r_lp_Energy>  (1) 
25.184904

>  <r_lp_tautomer_probability>  (1) 
0.5

>  <s_epik_Chemistry_Notes>  (1) 
This compound has an ester and may undergo hydrolysis at high or low pH. This compound has an imine and may undergo hydrolysis.

>  <s_epik_cmdline>  (1) 
J2VwaWtfcHl0aG9uJywgJy1waHQnLCAnMS4wJywgJy1waCcsICc3LjQnLCAnLXRuJywgJzgnLCAnLW1hJywgJzUwMCcsICctaW1hZScsICc8aW5maWxlLm1hZT4nLCAnLW9tYWUnLCAnPG91dGZpbGUubWFlPic=

>  <s_epik_input>  (1) 
W0NIM11bQ0gyXU9DKD1PKUMoPVtDSF1cW0NIMl1bQ0hdPU8pXE4oW0NIMl0xKVtDSDJdW0NIMl1bQ0BASF0oW0NASF0xMilbQ0gyXVtDQEhdKFtDSDJdMilbT0hd

>  <s_glide_docking_method>  (1) 
confgen

>  <s_i_glide_gridfile>  (1) 
gpcr_drd2_6luq_protein_autoprepared_prepared

>  <s_lp_Force_Field>  (1) 
S-OPLS

>  <s_lp_Variant>  (1) 
DiffSBDD_4_num_sample_50-1

>  <s_m_source_file>  (1) 
generated__ligand_DiffSBDD_2026-05-06_prepared.sdf

>  <GenAI_Model>  (1) 
DiffSBDD

>  <Protein>  (1) 
generic_title2

$$$$
DiffSBDD_44_num_sample_50
     RDKit          3D

  0  0  0  0  0  0  0  0  0  0999 V3000
M  V30 BEGIN CTAB
M  V30 COUNTS 61 64 0 0 1
M  V30 BEGIN ATOM
M  V30 1 C 9.005978 -0.356871 -19.394800 0
M  V30 2 C 6.641334 5.648221 -12.614631 0 CFG=1
M  V30 3 C 8.419931 7.305155 -11.891661 0
M  V30 4 C 8.460233 0.944857 -17.337299 0 CFG=1
M  V30 5 C 10.384763 0.327852 -19.395015 0
M  V30 6 C 9.429460 5.030004 -10.103787 0
M  V30 7 C 8.440823 -0.463436 -17.965413 0 CFG=2
M  V30 8 O 8.634656 -2.810082 -17.491675 0
M  V30 9 N 7.834813 2.305806 -15.222851 0
M  V30 10 C 10.399779 1.646717 -18.594112 0 CFG=2
M  V30 11 C 6.006804 6.794317 -13.453057 0
M  V30 12 O 10.784462 6.969297 -11.315745 0
M  V30 13 C 7.794785 1.025418 -15.938973 0
M  V30 14 C 7.586524 4.725779 -14.874339 0 CFG=2
M  V30 15 O 7.434856 3.634166 -17.014223 0
M  V30 16 C 8.684839 4.893662 -11.204699 0
M  V30 17 C 9.581471 7.808122 -11.376768 0
M  V30 18 C 9.161794 -1.552098 -17.139906 0
M  V30 19 C 10.151936 7.369372 -10.288149 0
M  V30 20 O 9.792757 1.452790 -17.313349 0
M  V30 21 C 9.633916 6.308617 -9.377906 0
M  V30 22 C 9.772650 2.831011 -19.353531 0
M  V30 23 F 11.681859 1.972627 -18.432487 0
M  V30 24 C 7.617156 3.498526 -15.805650 0
M  V30 25 C 6.768369 4.439478 -13.586635 0
M  V30 26 C 6.964041 5.926646 -15.621198 0
M  V30 27 C 7.971507 5.992143 -11.890563 0
M  V30 28 C 6.804541 7.154276 -14.722781 0
M  V30 29 C 5.640619 5.267703 -11.498776 0
M  V30 30 H 9.071781 -1.343279 -19.855136 0
M  V30 31 H 8.316982 0.219554 -20.013656 0
M  V30 32 H 7.806334 8.024415 -12.396003 0
M  V30 33 H 7.851911 1.544052 -18.008295 0
M  V30 34 H 11.119702 -0.342823 -18.955818 0
M  V30 35 H 10.718723 0.500088 -20.418703 0
M  V30 36 H 9.880389 4.155351 -9.664948 0
M  V30 37 H 7.390903 -0.752372 -18.040939 0
M  V30 38 H 8.054364 -3.075800 -16.786494 0
M  V30 39 H 7.986254 2.275471 -14.225651 0
M  V30 40 H 5.788983 7.671447 -12.843301 0
M  V30 41 H 5.034827 6.454097 -13.792233 0
M  V30 42 H 6.750218 0.723013 -16.024360 0
M  V30 43 H 8.248970 0.319429 -15.249300 0
M  V30 44 H 8.616088 4.963500 -14.603256 0
M  V30 45 H 8.561823 3.895432 -11.588489 0
M  V30 46 H 9.019204 -1.442299 -16.068793 0
M  V30 47 H 10.239255 -1.540979 -17.293847 0
M  V30 48 H 10.362161 6.151935 -8.582052 0
M  V30 49 H 8.699059 6.601907 -8.901149 0
M  V30 50 H 8.741085 2.648113 -19.649596 0
M  V30 51 H 9.786066 3.732426 -18.740440 0
M  V30 52 H 10.329673 3.044886 -20.265834 0
M  V30 53 H 5.763635 4.143680 -13.894965 0
M  V30 54 H 7.145427 3.564276 -13.063588 0
M  V30 55 H 7.573064 6.169300 -16.491503 0
M  V30 56 H 5.980999 5.652954 -16.009293 0
M  V30 57 H 7.790217 7.546889 -14.486023 0
M  V30 58 H 6.289571 7.943991 -15.270637 0
M  V30 59 H 4.687449 4.928169 -11.896315 0
M  V30 60 H 6.015704 4.457269 -10.872985 0
M  V30 61 H 5.442406 6.115460 -10.840195 0
M  V30 END ATOM
M  V30 BEGIN BOND
M  V30 1 1 5 1
M  V30 2 1 7 1
M  V30 3 1 7 4
M  V30 4 1 10 5
M  V30 5 1 11 2
M  V30 6 1 13 4
M  V30 7 1 13 9
M  V30 8 2 16 6
M  V30 9 1 17 3
M  V30 10 1 17 12
M  V30 11 1 18 7
M  V30 12 1 18 8
M  V30 13 1 19 12
M  V30 14 2 19 17
M  V30 15 1 20 4
M  V30 16 1 20 10
M  V30 17 1 21 6
M  V30 18 1 21 19
M  V30 19 1 22 10
M  V30 20 1 10 23 CFG=1
M  V30 21 1 24 9
M  V30 22 1 24 14
M  V30 23 2 24 15
M  V30 24 1 25 2
M  V30 25 1 25 14
M  V30 26 1 26 14
M  V30 27 1 27 2
M  V30 28 2 27 3
M  V30 29 1 27 16
M  V30 30 1 28 11
M  V30 31 1 28 26
M  V30 32 1 2 29 CFG=1
M  V30 33 1 30 1
M  V30 34 1 31 1
M  V30 35 1 32 3
M  V30 36 1 4 33 CFG=3
M  V30 37 1 34 5
M  V30 38 1 35 5
M  V30 39 1 36 6
M  V30 40 1 7 37 CFG=3
M  V30 41 1 38 8
M  V30 42 1 39 9
M  V30 43 1 40 11
M  V30 44 1 41 11
M  V30 45 1 42 13
M  V30 46 1 43 13
M  V30 47 1 14 44 CFG=1
M  V30 48 1 45 16
M  V30 49 1 46 18
M  V30 50 1 47 18
M  V30 51 1 48 21
M  V30 52 1 49 21
M  V30 53 1 50 22
M  V30 54 1 51 22
M  V30 55 1 52 22
M  V30 56 1 53 25
M  V30 57 1 54 25
M  V30 58 1 55 26
M  V30 59 1 56 26
M  V30 60 1 57 28
M  V30 61 1 58 28
M  V30 62 1 59 29
M  V30 63 1 60 29
M  V30 64 1 61 29
M  V30 END BOND
M  V30 END CTAB
M  END
>  <i_epik_Tot_Q>  (1) 
0

>  <i_epik_Tot_abs_Q>  (1) 
0

>  <i_i_glide_confnum>  (1) 
164

>  <i_i_glide_lignum>  (1) 
111

>  <i_i_glide_posenum>  (1) 
92

>  <i_i_glide_rotatable_bonds>  (1) 
7

>  <i_lp_mmshare_version>  (1) 
72125

>  <i_m_source_file_index>  (1) 
45

>  <i_f3d_flags>  (1) 
0

>  <num_sample>  (1) 
50

>  <b_lp_Chiralities_Consistent>  (1) 
1

>  <r_epik_Charging_Adjusted_Penalty>  (1) 
0

>  <r_epik_Ionization_Penalty>  (1) 
7.6933096193548639e-08

>  <r_epik_Ionization_Penalty_Charging>  (1) 
0

>  <r_epik_Ionization_Penalty_Neutral>  (1) 
7.6933096193548639e-08

>  <r_epik_State_Penalty>  (1) 
-0

>  <r_glide_ring_energy>  (1) 
0

>  <r_i_docking_score>  (1) 
-3.7014760519685499

>  <r_i_glide_ecoul>  (1) 
-4.5391335767647778

>  <r_i_glide_eff_state_penalty>  (1) 
-0

>  <r_i_glide_einternal>  (1) 
5.8644560720998093

>  <r_i_glide_emodel>  (1) 
-27.234159893032803

>  <r_i_glide_emodel_strain>  (1) 
6.0200454844137425

>  <r_i_glide_energy>  (1) 
-30.800920693279224

>  <r_i_glide_erotb>  (1) 
0.71709703680073922

>  <r_i_glide_esite>  (1) 
0

>  <r_i_glide_evdw>  (1) 
-26.261787116514444

>  <r_i_glide_gscore>  (1) 
-3.7014760519685499

>  <r_i_glide_gscore_strain>  (1) 
0.50501137110343564

>  <r_i_glide_hbond>  (1) 
-0.32000000000000001

>  <r_i_glide_ligand_efficiency>  (1) 
-0.12763710524029481

>  <r_i_glide_ligand_efficiency_ln>  (1) 
-0.84754415456669752

>  <r_i_glide_ligand_efficiency_sa>  (1) 
-0.39214162601159308

>  <r_i_glide_lipo>  (1) 
-1.1452900998177671

>  <r_i_glide_metal>  (1) 
-0

>  <r_i_glide_rewards>  (1) 
-1.464334967714519

>  <r_lp_Energy>  (1) 
41.791146999999995

>  <r_lp_tautomer_probability>  (1) 
1

>  <s_epik_cmdline>  (1) 
J2VwaWtfcHl0aG9uJywgJy1waHQnLCAnMS4wJywgJy1waCcsICc3LjQnLCAnLXRuJywgJzgnLCAnLW1hJywgJzUwMCcsICctaW1hZScsICc8aW5maWxlLm1hZT4nLCAnLW9tYWUnLCAnPG91dGZpbGUubWFlPic=

>  <s_epik_input>  (1) 
W0NIM11bQ0BdMShGKVtDSDJdW0NIMl1bQ0BIXShbQ0gyXVtPSF0pW0NASF0oTzEpW0NIMl1bTkhdQyg9TylbQ0BIXShbQ0gyXTIpW0NIMl1bQ0gyXVtDSDJdW0NAXTIoW0NIM10pQyg9W0NIXTMpW0NIXT1bQ0hdW0NIMl1DKE80KT1DMzQ=

>  <s_glide_docking_method>  (1) 
confgen

>  <s_i_glide_gridfile>  (1) 
gpcr_drd2_6luq_protein_autoprepared_prepared

>  <s_lp_Force_Field>  (1) 
S-OPLS

>  <s_lp_Variant>  (1) 
DiffSBDD_44_num_sample_50-2

>  <s_m_source_file>  (1) 
generated__ligand_DiffSBDD_2026-05-06_prepared.sdf

>  <GenAI_Model>  (1) 
DiffSBDD

>  <Protein>  (1) 
generic_title2

$$$$
DiffSBDD_10_num_sample_50
     RDKit          3D

  0  0  0  0  0  0  0  0  0  0999 V3000
M  V30 BEGIN CTAB
M  V30 COUNTS 73 74 0 0 1
M  V30 BEGIN ATOM
M  V30 1 C 14.225622 4.575481 -18.043269 0 CFG=2
M  V30 2 C 8.357040 3.877438 -11.973235 0
M  V30 3 C 7.674865 2.633708 -15.381398 0
M  V30 4 C 9.402751 2.156455 -18.659360 0 CFG=1
M  V30 5 C 13.693902 3.726525 -19.224475 0 CFG=2
M  V30 6 N 6.300274 4.563385 -13.044975 0
M  V30 7 N 11.671022 1.447601 -18.810930 0
M  V30 8 C 11.570077 2.588351 -19.660977 0 CFG=1
M  V30 9 S 15.790364 5.580446 -18.358464 0
M  V30 10 C 8.747308 5.253355 -11.456949 0
M  V30 11 S 16.949229 4.969319 -16.691631 0 CHG=-1
M  V30 12 C 13.812582 5.653486 -15.710192 0
M  V30 13 O 9.434864 7.917243 -7.617915 0
M  V30 14 O 16.521105 5.109762 -19.543696 0
M  V30 15 C 14.511268 3.091066 -18.106557 0 CFG=2
M  V30 16 C 6.651403 0.401407 -14.564745 0
M  V30 17 C 10.557326 1.503140 -17.886625 0 CFG=2
M  V30 18 N 9.034841 6.569297 -9.336952 0 CHG=1
M  V30 19 N 6.931010 2.327406 -13.091660 0
M  V30 20 C 8.843527 5.227221 -9.921651 0
M  V30 21 C 9.830930 4.471525 -19.882575 0
M  V30 22 C 13.243223 5.260028 -17.080011 0
M  V30 23 C 14.191310 3.884615 -20.657949 0
M  V30 24 C 8.402792 2.945577 -17.782990 0
M  V30 25 C 7.082563 1.838595 -14.262319 0
M  V30 26 O 13.793849 2.319152 -17.161473 0
M  V30 27 C 7.239435 3.618492 -12.679755 0
M  V30 28 O 15.493033 7.011476 -18.192002 0
M  V30 29 F 10.240445 0.271358 -17.491663 0
M  V30 30 N 6.115749 -0.230697 -13.337539 0 CHG=1
M  V30 31 C 9.242356 6.546200 -7.878414 0
M  V30 32 C 10.078281 2.949727 -19.801392 0 CFG=2
M  V30 33 O 12.261633 3.684393 -19.126660 0
M  V30 34 C 7.808739 2.149073 -16.633812 0
M  V30 35 H 9.034895 3.067170 -11.737179 0
M  V30 36 H 7.995052 3.635918 -15.136576 0
M  V30 37 H 8.842661 1.349490 -19.136040 0
M  V30 38 H 6.391550 5.534725 -12.781836 0
M  V30 39 H 12.532958 1.486209 -18.268148 0
M  V30 40 H 11.975988 2.335089 -20.637412 0
M  V30 41 H 8.026177 6.008446 -11.770967 0
M  V30 42 H 9.705967 5.531296 -11.895985 0
M  V30 43 H 13.029207 6.069740 -15.077835 0
M  V30 44 H 14.234861 4.790530 -15.195180 0
M  V30 45 H 14.588994 6.412359 -15.792199 0
M  V30 46 H 8.654131 8.237807 -7.185741 0
M  V30 47 H 15.524140 2.743705 -18.298216 0
M  V30 48 H 5.873602 0.400922 -15.329646 0
M  V30 49 H 7.497667 -0.182699 -14.929965 0
M  V30 50 H 10.841649 2.097508 -17.018723 0
M  V30 51 H 8.160553 7.109486 -9.491685 0
M  V30 52 H 9.663746 4.575148 -9.616919 0
M  V30 53 H 7.929458 4.805003 -9.500461 0
M  V30 54 H 10.125892 4.987084 -18.968520 0
M  V30 55 H 10.396098 4.912076 -20.704344 0
M  V30 56 H 8.777930 4.688032 -20.062138 0
M  V30 57 H 12.850297 6.148464 -17.575657 0
M  V30 58 H 12.386914 4.607795 -16.906713 0
M  V30 59 H 15.202479 3.494626 -20.760998 0
M  V30 60 H 13.583015 3.343279 -21.377273 0
M  V30 61 H 14.179839 4.937114 -20.943326 0
M  V30 62 H 7.577792 3.294577 -18.404967 0
M  V30 63 H 8.883086 3.833658 -17.371500 0
M  V30 64 H 14.084416 2.573415 -16.296742 0
M  V30 65 H 5.711420 -1.164107 -13.491700 0
M  V30 66 H 6.857082 -0.299421 -12.657346 0
M  V30 67 H 10.130002 5.972783 -7.608676 0
M  V30 68 H 8.373516 6.156634 -7.345159 0
M  V30 69 H 9.744368 2.514023 -20.744255 0
M  V30 70 H 7.483013 1.146798 -16.866693 0
M  V30 71 H 5.461781 4.314093 -13.548370 0
M  V30 72 H 9.802122 7.049415 -9.779552 0
M  V30 73 H 5.399239 0.371421 -12.960700 0
M  V30 END ATOM
M  V30 BEGIN BOND
M  V30 1 1 5 1
M  V30 2 1 8 7
M  V30 3 1 9 1
M  V30 4 1 10 2
M  V30 5 1 11 9
M  V30 6 2 14 9
M  V30 7 1 15 1
M  V30 8 1 15 5
M  V30 9 1 17 4
M  V30 10 1 17 7
M  V30 11 1 20 10
M  V30 12 1 20 18
M  V30 13 1 1 22 CFG=1
M  V30 14 1 22 12
M  V30 15 1 23 5
M  V30 16 1 24 4
M  V30 17 1 25 3
M  V30 18 1 25 16
M  V30 19 2 25 19
M  V30 20 1 26 15
M  V30 21 2 27 2
M  V30 22 1 27 6
M  V30 23 1 27 19
M  V30 24 2 28 9
M  V30 25 1 29 17
M  V30 26 1 30 16
M  V30 27 1 31 13
M  V30 28 1 31 18
M  V30 29 1 32 4
M  V30 30 1 32 8
M  V30 31 1 32 21
M  V30 32 1 5 33 CFG=3
M  V30 33 1 33 8
M  V30 34 2 34 3
M  V30 35 1 34 24
M  V30 36 1 35 2
M  V30 37 1 36 3
M  V30 38 1 4 37 CFG=3
M  V30 39 1 38 6
M  V30 40 1 39 7
M  V30 41 1 8 40 CFG=3
M  V30 42 1 41 10
M  V30 43 1 42 10
M  V30 44 1 43 12
M  V30 45 1 44 12
M  V30 46 1 45 12
M  V30 47 1 46 13
M  V30 48 1 15 47 CFG=3
M  V30 49 1 48 16
M  V30 50 1 49 16
M  V30 51 1 17 50 CFG=1
M  V30 52 1 51 18
M  V30 53 1 52 20
M  V30 54 1 53 20
M  V30 55 1 54 21
M  V30 56 1 55 21
M  V30 57 1 56 21
M  V30 58 1 57 22
M  V30 59 1 58 22
M  V30 60 1 59 23
M  V30 61 1 60 23
M  V30 62 1 61 23
M  V30 63 1 62 24
M  V30 64 1 63 24
M  V30 65 1 64 26
M  V30 66 1 65 30
M  V30 67 1 66 30
M  V30 68 1 67 31
M  V30 69 1 68 31
M  V30 70 1 32 69 CFG=3
M  V30 71 1 70 34
M  V30 72 1 71 6
M  V30 73 1 72 18
M  V30 74 1 73 30
M  V30 END BOND
M  V30 END CTAB
M  END
>  <i_epik_Tot_Q>  (1) 
1

>  <i_epik_Tot_abs_Q>  (1) 
3

>  <i_i_glide_confnum>  (1) 
15

>  <i_i_glide_lignum>  (1) 
34

>  <i_i_glide_posenum>  (1) 
344

>  <i_i_glide_rotatable_bonds>  (1) 
15

>  <i_lp_mmshare_version>  (1) 
72125

>  <i_m_source_file_index>  (1) 
11

>  <i_f3d_flags>  (1) 
0

>  <num_sample>  (1) 
50

>  <b_lp_Chiralities_Consistent>  (1) 
1

>  <r_epik_Charging_Adjusted_Penalty>  (1) 
2.168687317063887

>  <r_epik_Ionization_Penalty>  (1) 
1.1047352072338965

>  <r_epik_Ionization_Penalty_Charging>  (1) 
1.0999234457570315

>  <r_epik_Ionization_Penalty_Neutral>  (1) 
0.0048117614768649203

>  <r_epik_State_Penalty>  (1) 
1.0687638713068555

>  <r_glide_ring_energy>  (1) 
0

>  <r_i_docking_score>  (1) 
-3.7006555572418787

>  <r_i_glide_ecoul>  (1) 
-14.802322555587738

>  <r_i_glide_eff_state_penalty>  (1) 
1.0687638713068555

>  <r_i_glide_einternal>  (1) 
10.336736739682573

>  <r_i_glide_emodel>  (1) 
-58.914266886237456

>  <r_i_glide_emodel_strain>  (1) 
0.27068420681364103

>  <r_i_glide_energy>  (1) 
-42.925197826412749

>  <r_i_glide_erotb>  (1) 
0.82219216958862984

>  <r_i_glide_esite>  (1) 
-0.29485890259445763

>  <r_i_glide_evdw>  (1) 
-28.122875270825009

>  <r_i_glide_gscore>  (1) 
-4.7694194285487344

>  <r_i_glide_gscore_strain>  (1) 
0

>  <r_i_glide_hbond>  (1) 
-0.50360962876341697

>  <r_i_glide_ligand_efficiency>  (1) 
-0.10884281050711409

>  <r_i_glide_ligand_efficiency_ln>  (1) 
-0.81757861246717567

>  <r_i_glide_ligand_efficiency_sa>  (1) 
-0.35260845340305569

>  <r_i_glide_lipo>  (1) 
-0.79959549512183992

>  <r_i_glide_metal>  (1) 
-0

>  <r_i_glide_rewards>  (1) 
-0.36705542477823799

>  <r_lp_Energy>  (1) 
23.104900000000001

>  <s_epik_Chemistry_Notes>  (1) 
This compound has an imine and may undergo hydrolysis. This compound contains an acetal/aminal-like group ( X-CH(R)-Y where X, Y are N, S, or O) that may be acid/base labile, releasing an aldehyde.

>  <s_epik_cmdline>  (1) 
J2VwaWtfcHl0aG9uJywgJy1waHQnLCAnMS4wJywgJy1waCcsICc3LjQnLCAnLXRuJywgJzgnLCAnLW1hJywgJzUwMCcsICctaW1hZScsICc8aW5maWxlLm1hZT4nLCAnLW9tYWUnLCAnPG91dGZpbGUubWFlPic=

>  <s_epik_input>  (1) 
W1NIXVMoPU8pKD1PKVtDQEBdMShbQ0gyXVtDSDNdKVtDQEBdKFtDSDNdKShbQ0BASF0xW09IXSlPW0NASF0oW0NAQEhdMltDSDNdKVtOSF1bQ0BASF0oRilbQ0BIXTJbQ0gyXVxbQ0hdPVtDSF1cQyhbQ0gyXVtOSDJdKT1OL0MoPU4vW0hdKS9bQ0gyXVtDSDJdW0NIMl1bTkhdW0NIMl1bT0hd

>  <s_glide_docking_method>  (1) 
confgen

>  <s_i_glide_gridfile>  (1) 
gpcr_drd2_6luq_protein_autoprepared_prepared

>  <s_lp_Force_Field>  (1) 
S-OPLS

>  <s_lp_Variant>  (1) 
DiffSBDD_10_num_sample_50-14

>  <s_m_source_file>  (1) 
generated__ligand_DiffSBDD_2026-05-06_prepared.sdf

>  <GenAI_Model>  (1) 
DiffSBDD

>  <Protein>  (1) 
generic_title2

$$$$
DiffSBDD_10_num_sample_50
     RDKit          3D

  0  0  0  0  0  0  0  0  0  0999 V3000
M  V30 BEGIN CTAB
M  V30 COUNTS 71 72 0 0 1
M  V30 BEGIN ATOM
M  V30 1 C 5.943332 6.897075 -19.579378 0 CFG=2
M  V30 2 C 10.986387 6.185592 -7.369680 0
M  V30 3 C 9.025748 4.169756 -10.975843 0
M  V30 4 C 7.051177 5.178771 -14.108052 0 CFG=1
M  V30 5 C 5.233683 6.689293 -18.204984 0 CFG=2
M  V30 6 N 8.634852 6.338929 -7.077390 0
M  V30 7 N 7.229547 4.841404 -16.441501 0
M  V30 8 C 6.199525 5.811993 -16.213370 0 CFG=1
M  V30 9 S 5.057662 8.029678 -20.783875 0
M  V30 10 C 11.342844 7.139247 -6.273846 0
M  V30 11 S 4.474918 6.643274 -22.282846 0 CHG=-1
M  V30 12 C 7.876022 6.168988 -21.119673 0
M  V30 13 O 11.034887 10.169274 -4.122460 0
M  V30 14 O 3.834772 8.569561 -20.184314 0
M  V30 15 C 5.224605 5.606396 -19.279694 0 CFG=2
M  V30 16 C 9.077129 6.734600 -10.408189 0
M  V30 17 C 7.979151 4.655791 -15.216220 0 CFG=1
M  V30 18 N 12.231246 9.380670 -5.879551 0
M  V30 19 N 9.464769 4.966500 -8.738799 0
M  V30 20 C 11.953846 8.401716 -6.915099 0
M  V30 21 C 6.866466 7.706919 -14.653334 0
M  V30 22 C 7.455811 6.877692 -19.822622 0
M  V30 23 C 3.861919 7.104014 -17.671680 0
M  V30 24 C 7.760943 5.506328 -12.779734 0
M  V30 25 C 9.189145 5.271589 -9.952299 0
M  V30 26 O 6.009610 4.472028 -18.976616 0
M  V30 27 C 9.737563 5.856479 -7.704439 0
M  V30 28 O 6.029383 8.953247 -21.390025 0
M  V30 29 F 9.099788 5.367934 -15.306619 0
M  V30 30 N 10.235607 7.143771 -11.185685 0
M  V30 31 C 10.986595 10.018118 -5.514531 0
M  V30 32 C 6.248869 6.317400 -14.762367 0 CFG=2
M  V30 33 O 6.235206 6.811754 -17.179128 0
M  V30 34 C 8.425403 4.272881 -12.191086 0
M  V30 35 H 11.794721 5.769302 -7.891645 0
M  V30 36 H 9.434823 3.219090 -10.679300 0
M  V30 37 H 6.333214 4.380981 -13.903973 0
M  V30 38 H 8.712989 7.074565 -6.393588 0
M  V30 39 H 7.893997 5.182248 -17.123888 0
M  V30 40 H 5.223862 5.369280 -16.307989 0
M  V30 41 H 12.028349 6.614885 -5.608426 0
M  V30 42 H 10.469942 7.360779 -5.662080 0
M  V30 43 H 8.960834 6.159841 -21.222291 0
M  V30 44 H 7.535782 5.134519 -21.142461 0
M  V30 45 H 7.472323 6.669298 -22.000294 0
M  V30 46 H 10.810329 11.063843 -3.915534 0
M  V30 47 H 4.301611 5.367416 -19.803269 0
M  V30 48 H 8.163736 6.969159 -10.926205 0
M  V30 49 H 9.046741 7.392542 -9.542305 0
M  V30 50 H 8.259114 3.610177 -15.081200 0
M  V30 51 H 12.611374 8.911497 -5.070658 0
M  V30 52 H 11.288726 8.819385 -7.674945 0
M  V30 53 H 12.873074 8.150062 -7.450715 0
M  V30 54 H 7.835151 7.676006 -15.091623 0
M  V30 55 H 6.283386 8.462193 -15.180382 0
M  V30 56 H 7.033371 8.009835 -13.621375 0
M  V30 57 H 7.816586 7.898923 -19.886154 0
M  V30 58 H 7.961180 6.413999 -18.977001 0
M  V30 59 H 3.040356 6.767209 -18.291692 0
M  V30 60 H 3.666816 6.680115 -16.690761 0
M  V30 61 H 3.802304 8.169298 -17.562243 0
M  V30 62 H 6.989132 5.857172 -12.094424 0
M  V30 63 H 8.496241 6.287684 -12.960499 0
M  V30 64 H 6.356472 4.576185 -18.098717 0
M  V30 65 H 10.246152 6.617650 -12.049511 0
M  V30 66 H 10.110416 8.109553 -11.447764 0
M  V30 67 H 10.106771 9.432809 -5.780015 0
M  V30 68 H 10.917093 10.969272 -6.025910 0
M  V30 69 H 5.237619 6.355455 -14.356391 0
M  V30 70 H 8.399440 3.390481 -12.814264 0
M  V30 71 H 7.710193 6.240247 -7.492203 0
M  V30 END ATOM
M  V30 BEGIN BOND
M  V30 1 1 5 1
M  V30 2 1 8 7
M  V30 3 1 9 1
M  V30 4 1 10 2
M  V30 5 1 11 9
M  V30 6 2 14 9
M  V30 7 1 15 1
M  V30 8 1 15 5
M  V30 9 1 17 4
M  V30 10 1 17 7
M  V30 11 1 20 10
M  V30 12 1 20 18
M  V30 13 1 1 22 CFG=1
M  V30 14 1 22 12
M  V30 15 1 23 5
M  V30 16 1 24 4
M  V30 17 1 25 3
M  V30 18 1 25 16
M  V30 19 2 25 19
M  V30 20 1 26 15
M  V30 21 2 27 2
M  V30 22 1 27 6
M  V30 23 1 27 19
M  V30 24 2 28 9
M  V30 25 1 29 17
M  V30 26 1 30 16
M  V30 27 1 31 13
M  V30 28 1 31 18
M  V30 29 1 32 4
M  V30 30 1 32 8
M  V30 31 1 32 21
M  V30 32 1 5 33 CFG=1
M  V30 33 1 33 8
M  V30 34 2 34 3
M  V30 35 1 34 24
M  V30 36 1 35 2
M  V30 37 1 36 3
M  V30 38 1 4 37 CFG=1
M  V30 39 1 38 6
M  V30 40 1 39 7
M  V30 41 1 8 40 CFG=1
M  V30 42 1 41 10
M  V30 43 1 42 10
M  V30 44 1 43 12
M  V30 45 1 44 12
M  V30 46 1 45 12
M  V30 47 1 46 13
M  V30 48 1 15 47 CFG=3
M  V30 49 1 48 16
M  V30 50 1 49 16
M  V30 51 1 17 50 CFG=1
M  V30 52 1 51 18
M  V30 53 1 52 20
M  V30 54 1 53 20
M  V30 55 1 54 21
M  V30 56 1 55 21
M  V30 57 1 56 21
M  V30 58 1 57 22
M  V30 59 1 58 22
M  V30 60 1 59 23
M  V30 61 1 60 23
M  V30 62 1 61 23
M  V30 63 1 62 24
M  V30 64 1 63 24
M  V30 65 1 64 26
M  V30 66 1 65 30
M  V30 67 1 66 30
M  V30 68 1 67 31
M  V30 69 1 68 31
M  V30 70 1 32 69 CFG=1
M  V30 71 1 70 34
M  V30 72 1 71 6
M  V30 END BOND
M  V30 END CTAB
M  END
>  <i_epik_Tot_Q>  (1) 
-1

>  <i_epik_Tot_abs_Q>  (1) 
1

>  <i_i_glide_confnum>  (1) 
2404

>  <i_i_glide_lignum>  (1) 
39

>  <i_i_glide_posenum>  (1) 
102

>  <i_i_glide_rotatable_bonds>  (1) 
15

>  <i_lp_mmshare_version>  (1) 
72125

>  <i_m_source_file_index>  (1) 
11

>  <i_f3d_flags>  (1) 
0

>  <num_sample>  (1) 
50

>  <b_lp_Chiralities_Consistent>  (1) 
1

>  <r_epik_Charging_Adjusted_Penalty>  (1) 
1.239197207418439

>  <r_epik_Ionization_Penalty>  (1) 
1.2496715491914541

>  <r_epik_Ionization_Penalty_Charging>  (1) 
1.1069707349969355e-11

>  <r_epik_Ionization_Penalty_Neutral>  (1) 
1.2496715491803843

>  <r_epik_State_Penalty>  (1) 
1.2391972074073692

>  <r_glide_ring_energy>  (1) 
0

>  <r_i_docking_score>  (1) 
-3.6985701823151764

>  <r_i_glide_ecoul>  (1) 
-4.3135078330994254

>  <r_i_glide_eff_state_penalty>  (1) 
1.2391972074073692

>  <r_i_glide_einternal>  (1) 
9.3990187790078714

>  <r_i_glide_emodel>  (1) 
-33.893856096267278

>  <r_i_glide_emodel_strain>  (1) 
2.8738316692109578

>  <r_i_glide_energy>  (1) 
-30.765934533298484

>  <r_i_glide_erotb>  (1) 
0.82803537691766171

>  <r_i_glide_esite>  (1) 
-0.10328032466403265

>  <r_i_glide_evdw>  (1) 
-26.452426700199059

>  <r_i_glide_gscore>  (1) 
-4.9377673897225458

>  <r_i_glide_gscore_strain>  (1) 
0

>  <r_i_glide_hbond>  (1) 
-0.10188919657925044

>  <r_i_glide_ligand_efficiency>  (1) 
-0.10878147595044636

>  <r_i_glide_ligand_efficiency_ln>  (1) 
-0.81711789465308171

>  <r_i_glide_ligand_efficiency_sa>  (1) 
-0.35240975324944884

>  <r_i_glide_lipo>  (1) 
-2.3416564180297805

>  <r_i_glide_metal>  (1) 
-0

>  <r_i_glide_rewards>  (1) 
-1.2493293173922773

>  <r_lp_Energy>  (1) 
22.583292999999998

>  <s_epik_Chemistry_Notes>  (1) 
This compound has an imine and may undergo hydrolysis. This compound contains an acetal/aminal-like group ( X-CH(R)-Y where X, Y are N, S, or O) that may be acid/base labile, releasing an aldehyde.

>  <s_epik_cmdline>  (1) 
J2VwaWtfcHl0aG9uJywgJy1waHQnLCAnMS4wJywgJy1waCcsICc3LjQnLCAnLXRuJywgJzgnLCAnLW1hJywgJzUwMCcsICctaW1hZScsICc8aW5maWxlLm1hZT4nLCAnLW9tYWUnLCAnPG91dGZpbGUubWFlPic=

>  <s_epik_input>  (1) 
W1NIXVMoPU8pKD1PKVtDQEBdMShbQ0gyXVtDSDNdKVtDQEBdKFtDSDNdKShbQ0BASF0xW09IXSlPW0NASF0oW0NAQEhdMltDSDNdKVtOSF1bQ0BASF0oRilbQ0BIXTJbQ0gyXS9bQ0hdPVtDSF1cQyhbQ0gyXVtOSDJdKT1OXEMoPU5cW0hdKVxbQ0gyXVtDSDJdW0NIMl1bTkhdW0NIMl1bT0hd

>  <s_glide_docking_method>  (1) 
confgen

>  <s_i_glide_gridfile>  (1) 
gpcr_drd2_6luq_protein_autoprepared_prepared

>  <s_lp_Force_Field>  (1) 
S-OPLS

>  <s_lp_Variant>  (1) 
DiffSBDD_10_num_sample_50-19

>  <s_m_source_file>  (1) 
generated__ligand_DiffSBDD_2026-05-06_prepared.sdf

>  <GenAI_Model>  (1) 
DiffSBDD

>  <Protein>  (1) 
generic_title2

$$$$
DiffSBDD_43_num_sample_50
     RDKit          3D

  0  0  0  0  0  0  0  0  0  0999 V3000
M  V30 BEGIN CTAB
M  V30 COUNTS 58 58 0 0 1
M  V30 BEGIN ATOM
M  V30 1 C 9.267106 5.139267 -12.077587 0
M  V30 2 C 11.432239 7.244335 -6.116139 0
M  V30 3 N 7.087988 2.120076 -16.301818 0
M  V30 4 O 5.528440 4.829502 -13.808236 0
M  V30 5 C 9.308299 6.190090 -9.768757 0
M  V30 6 C 11.110514 7.566481 -8.674422 0 CFG=2
M  V30 7 C 6.428736 4.632308 -11.490793 0 CFG=1
M  V30 8 O 9.598052 8.557340 -7.010212 0
M  V30 9 O 11.991580 6.569290 -2.691472 0
M  V30 10 N 7.216066 5.369256 -10.543166 0
M  V30 11 C 11.435018 6.569298 -3.728910 0
M  V30 12 F 5.434850 4.074942 -10.817137 0
M  V30 13 O 9.671453 5.769591 -13.075555 0
M  V30 14 C 7.784623 0.060979 -15.080137 0
M  V30 15 C 7.030995 3.110489 -15.229483 0 CFG=1
M  V30 16 C 5.884615 5.529110 -12.624930 0
M  V30 17 C 8.479475 5.941310 -11.019958 0 CFG=2
M  V30 18 C 10.109795 7.483277 -9.830730 0
M  V30 19 O 5.333915 3.372723 -13.491655 0
M  V30 20 C 10.443485 7.454436 -7.268940 0 CFG=2
M  V30 21 F 8.211104 0.462524 -17.324632 0
M  V30 22 C 6.381580 2.603447 -13.937751 0
M  V30 23 C 10.817931 6.604225 -4.886147 0
M  V30 24 O 9.434861 3.916778 -11.880104 0 CHG=-1
M  V30 25 C 6.753412 1.506927 -13.255509 0
M  V30 26 C 7.893565 0.600655 -13.650770 0
M  V30 27 C 12.058548 8.762378 -8.892378 0
M  V30 28 C 13.434832 8.545007 -8.272112 0
M  V30 29 F 8.235143 3.610114 -15.000226 0
M  V30 30 C 8.112826 1.099912 -16.158994 0 CFG=1
M  V30 31 H 12.219595 6.569441 -6.455033 0
M  V30 32 H 11.871205 8.200730 -5.836189 0
M  V30 33 H 6.182312 1.698144 -16.443706 0
M  V30 34 H 9.948076 5.330806 -9.565532 0
M  V30 35 H 8.635366 6.255077 -8.914428 0
M  V30 36 H 11.709731 6.668867 -8.796474 0
M  V30 37 H 7.028276 3.801304 -11.836748 0
M  V30 38 H 8.850203 8.486546 -7.590203 0
M  V30 39 H 6.674483 6.079728 -10.056529 0
M  V30 40 H 8.502543 -0.753903 -15.177057 0
M  V30 41 H 6.802424 -0.382768 -15.250435 0
M  V30 42 H 6.481935 3.953820 -15.635698 0
M  V30 43 H 5.034841 6.105026 -12.264170 0
M  V30 44 H 6.621882 6.266374 -12.940510 0
M  V30 45 H 8.234625 6.902690 -11.473223 0
M  V30 46 H 9.435529 8.340814 -9.827413 0
M  V30 47 H 10.643016 7.514354 -10.782906 0
M  V30 48 H 9.817977 6.566052 -7.247830 0
M  V30 49 H 9.836659 6.169832 -5.004958 0
M  V30 50 H 6.223508 1.241479 -12.352186 0
M  V30 51 H 8.843715 1.110265 -13.483227 0
M  V30 52 H 7.862922 -0.230701 -12.952518 0
M  V30 53 H 12.222941 8.897317 -9.962370 0
M  V30 54 H 11.611766 9.693344 -8.547729 0
M  V30 55 H 14.228829 8.969308 -8.876371 0
M  V30 56 H 13.496453 8.969409 -7.270461 0
M  V30 57 H 13.681020 7.489023 -8.224787 0
M  V30 58 H 9.082996 1.559664 -15.987289 0
M  V30 END ATOM
M  V30 BEGIN BOND
M  V30 1 1 10 7
M  V30 2 2 11 9
M  V30 3 1 12 7
M  V30 4 2 13 1
M  V30 5 1 15 3
M  V30 6 1 16 4
M  V30 7 1 16 7
M  V30 8 1 17 1
M  V30 9 1 17 5
M  V30 10 1 17 10
M  V30 11 1 18 5
M  V30 12 1 18 6
M  V30 13 1 19 4
M  V30 14 1 20 2
M  V30 15 1 20 6
M  V30 16 1 20 8
M  V30 17 1 22 15
M  V30 18 1 22 19
M  V30 19 1 23 2
M  V30 20 2 23 11
M  V30 21 1 24 1
M  V30 22 2 25 22
M  V30 23 1 26 14
M  V30 24 1 26 25
M  V30 25 1 27 6
M  V30 26 1 28 27
M  V30 27 1 29 15
M  V30 28 1 30 3
M  V30 29 1 30 14
M  V30 30 1 30 21
M  V30 31 1 31 2
M  V30 32 1 32 2
M  V30 33 1 33 3
M  V30 34 1 34 5
M  V30 35 1 35 5
M  V30 36 1 6 36 CFG=3
M  V30 37 1 7 37 CFG=3
M  V30 38 1 38 8
M  V30 39 1 39 10
M  V30 40 1 40 14
M  V30 41 1 41 14
M  V30 42 1 15 42 CFG=3
M  V30 43 1 43 16
M  V30 44 1 44 16
M  V30 45 1 17 45 CFG=3
M  V30 46 1 46 18
M  V30 47 1 47 18
M  V30 48 1 20 48 CFG=3
M  V30 49 1 49 23
M  V30 50 1 50 25
M  V30 51 1 51 26
M  V30 52 1 52 26
M  V30 53 1 53 27
M  V30 54 1 54 27
M  V30 55 1 55 28
M  V30 56 1 56 28
M  V30 57 1 57 28
M  V30 58 1 30 58 CFG=1
M  V30 END BOND
M  V30 END CTAB
M  END
>  <i_epik_Tot_Q>  (1) 
-1

>  <i_epik_Tot_abs_Q>  (1) 
1

>  <i_i_glide_confnum>  (1) 
10

>  <i_i_glide_lignum>  (1) 
107

>  <i_i_glide_posenum>  (1) 
225

>  <i_i_glide_rotatable_bonds>  (1) 
15

>  <i_lp_mmshare_version>  (1) 
72125

>  <i_m_source_file_index>  (1) 
44

>  <i_f3d_flags>  (1) 
0

>  <num_sample>  (1) 
50

>  <b_lp_Chiralities_Consistent>  (1) 
1

>  <r_epik_Charging_Adjusted_Penalty>  (1) 
0.10859487374936995

>  <r_epik_Ionization_Penalty>  (1) 
0.10861046635066096

>  <r_epik_Ionization_Penalty_Charging>  (1) 
0.0014700329650535538

>  <r_epik_Ionization_Penalty_Neutral>  (1) 
0.10714043338560741

>  <r_epik_State_Penalty>  (1) 
0.1071248407843164

>  <r_glide_ring_energy>  (1) 
0

>  <r_i_docking_score>  (1) 
-3.6984266404381216

>  <r_i_glide_ecoul>  (1) 
-0.61177546617025769

>  <r_i_glide_eff_state_penalty>  (1) 
0.1071248407843164

>  <r_i_glide_einternal>  (1) 
8.3895731082011586

>  <r_i_glide_emodel>  (1) 
-29.336599367505315

>  <r_i_glide_emodel_strain>  (1) 
3.8727765661296232

>  <r_i_glide_energy>  (1) 
-30.561081593115578

>  <r_i_glide_erotb>  (1) 
1.1463316203487632

>  <r_i_glide_esite>  (1) 
-0.038898322941417658

>  <r_i_glide_evdw>  (1) 
-29.94930612694532

>  <r_i_glide_gscore>  (1) 
-3.8055514812224382

>  <r_i_glide_gscore_strain>  (1) 
0

>  <r_i_glide_hbond>  (1) 
-0.12641352953934309

>  <r_i_glide_ligand_efficiency>  (1) 
-0.12328088801460406

>  <r_i_glide_ligand_efficiency_ln>  (1) 
-0.84032283029337218

>  <r_i_glide_ligand_efficiency_sa>  (1) 
-0.38306238260183523

>  <r_i_glide_lipo>  (1) 
-1.975285150803767

>  <r_i_glide_metal>  (1) 
-0

>  <r_i_glide_rewards>  (1) 
-1.2220544720138691

>  <r_lp_Energy>  (1) 
15.498576999999999

>  <s_epik_cmdline>  (1) 
J2VwaWtfcHl0aG9uJywgJy1waHQnLCAnMS4wJywgJy1waCcsICc3LjQnLCAnLXRuJywgJzgnLCAnLW1hJywgJzUwMCcsICctaW1hZScsICc8aW5maWxlLm1hZT4nLCAnLW9tYWUnLCAnPG91dGZpbGUubWFlPic=

>  <s_epik_input>  (1) 
Tz1DPVtDSF1bQ0gyXVtDQEBIXShbT0hdKVtDQEhdKFtDSDJdW0NIM10pW0NIMl1bQ0gyXVtDQEBIXShDKD1PKVtPSF0pW05IXVtDQEBIXShGKVtDSDJdT09DMT1bQ0hdW0NIMl1bQ0gyXVtDQEBIXShGKVtOSF1bQ0BIXTFG

>  <s_glide_docking_method>  (1) 
confgen

>  <s_i_glide_gridfile>  (1) 
gpcr_drd2_6luq_protein_autoprepared_prepared

>  <s_lp_Force_Field>  (1) 
S-OPLS

>  <s_lp_Variant>  (1) 
DiffSBDD_43_num_sample_50-2

>  <s_m_source_file>  (1) 
generated__ligand_DiffSBDD_2026-05-06_prepared.sdf

>  <GenAI_Model>  (1) 
DiffSBDD

>  <Protein>  (1) 
generic_title2

$$$$
DiffSBDD_4_num_sample_50
     RDKit          3D

  0  0  0  0  0  0  0  0  0  0999 V3000
M  V30 BEGIN CTAB
M  V30 COUNTS 43 44 0 0 1
M  V30 BEGIN ATOM
M  V30 1 C 9.975156 1.172548 -18.291667 0
M  V30 2 C 6.855288 1.629366 -13.482800 0
M  V30 3 C 8.068997 5.033840 -14.546645 0
M  V30 4 C 4.648533 -2.956276 -17.891667 0
M  V30 5 C 7.427392 0.785001 -14.638849 0
M  V30 6 O 9.993138 0.007096 -17.895096 0
M  V30 7 N 7.381920 1.470297 -15.951895 0
M  V30 8 O 5.061226 -0.230698 -15.935275 0
M  V30 9 C 7.434947 3.658880 -14.775662 0 CFG=2
M  V30 10 C 7.640872 2.942481 -13.454068 0 CFG=1
M  V30 11 C 8.662535 1.845302 -18.716316 0
M  V30 12 C 7.951440 2.825466 -15.960008 0
M  V30 13 O 9.168331 5.552733 -12.461694 0
M  V30 14 C 5.684460 -0.059777 -16.984981 0
M  V30 15 O 5.349852 -0.650844 -18.155298 0
M  V30 16 C 7.287224 4.016218 -12.429602 0
M  V30 17 C 7.899348 5.298721 -13.032429 0 CFG=2
M  V30 18 C 6.887668 0.843797 -17.125824 0
M  V30 19 C 7.428746 1.007398 -18.376274 0
M  V30 20 C 4.234840 -1.520370 -18.237691 0
M  V30 21 H 10.867069 1.793956 -18.370956 0
M  V30 22 H 5.788680 1.804426 -13.625582 0
M  V30 23 H 6.968505 1.096148 -12.538666 0
M  V30 24 H 7.588717 5.803511 -15.151750 0
M  V30 25 H 9.123417 5.013221 -14.828313 0
M  V30 26 H 3.802600 -3.638628 -17.968687 0
M  V30 27 H 5.034841 -3.022535 -16.874014 0
M  V30 28 H 5.426902 -3.312353 -18.566233 0
M  V30 29 H 8.483013 0.603254 -14.432422 0
M  V30 30 H 7.009366 -0.218693 -14.625495 0
M  V30 31 H 6.362386 3.811345 -14.912002 0
M  V30 32 H 8.697863 2.708850 -13.325812 0
M  V30 33 H 8.632977 2.876406 -18.386876 0
M  V30 34 H 8.690872 1.917949 -19.803357 0
M  V30 35 H 9.034839 2.791472 -15.997376 0
M  V30 36 H 7.586836 3.373739 -16.824510 0
M  V30 37 H 9.737796 4.820536 -12.647327 0
M  V30 38 H 6.203318 4.119867 -12.360253 0
M  V30 39 H 7.661880 3.791752 -11.431149 0
M  V30 40 H 7.252659 6.157109 -12.844891 0
M  V30 41 H 6.981216 0.503285 -19.218464 0
M  V30 42 H 3.848905 -1.483923 -19.255597 0
M  V30 43 H 3.434839 -1.164735 -17.590170 0
M  V30 END ATOM
M  V30 BEGIN BOND
M  V30 1 1 5 2
M  V30 2 2 6 1
M  V30 3 1 7 5
M  V30 4 1 9 3
M  V30 5 1 10 2
M  V30 6 1 10 9
M  V30 7 1 11 1
M  V30 8 1 12 7
M  V30 9 1 12 9
M  V30 10 2 14 8
M  V30 11 1 15 14
M  V30 12 1 16 10
M  V30 13 1 17 3
M  V30 14 1 17 13
M  V30 15 1 17 16
M  V30 16 1 18 7
M  V30 17 1 18 14
M  V30 18 1 19 11
M  V30 19 2 19 18
M  V30 20 1 20 4
M  V30 21 1 20 15
M  V30 22 1 21 1
M  V30 23 1 22 2
M  V30 24 1 23 2
M  V30 25 1 24 3
M  V30 26 1 25 3
M  V30 27 1 26 4
M  V30 28 1 27 4
M  V30 29 1 28 4
M  V30 30 1 29 5
M  V30 31 1 30 5
M  V30 32 1 9 31 CFG=3
M  V30 33 1 10 32 CFG=1
M  V30 34 1 33 11
M  V30 35 1 34 11
M  V30 36 1 35 12
M  V30 37 1 36 12
M  V30 38 1 37 13
M  V30 39 1 38 16
M  V30 40 1 39 16
M  V30 41 1 17 40 CFG=3
M  V30 42 1 41 19
M  V30 43 1 42 20
M  V30 44 1 43 20
M  V30 END BOND
M  V30 END CTAB
M  END
>  <i_epik_Tot_Q>  (1) 
0

>  <i_epik_Tot_abs_Q>  (1) 
0

>  <i_i_glide_confnum>  (1) 
16

>  <i_i_glide_lignum>  (1) 
12

>  <i_i_glide_posenum>  (1) 
265

>  <i_i_glide_rotatable_bonds>  (1) 
7

>  <i_lp_mmshare_version>  (1) 
72125

>  <i_m_source_file_index>  (1) 
5

>  <i_f3d_flags>  (1) 
0

>  <num_sample>  (1) 
50

>  <b_lp_Chiralities_Consistent>  (1) 
1

>  <r_epik_Charging_Adjusted_Penalty>  (1) 
0.41067984158451698

>  <r_epik_Ionization_Penalty>  (1) 
6.7674502354530413e-05

>  <r_epik_Ionization_Penalty_Charging>  (1) 
2.6319130011581777e-09

>  <r_epik_Ionization_Penalty_Neutral>  (1) 
6.7671870441529249e-05

>  <r_epik_State_Penalty>  (1) 
0.41067983895260396

>  <r_glide_ring_energy>  (1) 
0

>  <r_i_docking_score>  (1) 
-3.6902698013493498

>  <r_i_glide_ecoul>  (1) 
-1.4290206469908546

>  <r_i_glide_eff_state_penalty>  (1) 
0.41067983895260396

>  <r_i_glide_einternal>  (1) 
2.0143659529486015

>  <r_i_glide_emodel>  (1) 
-29.382602120338966

>  <r_i_glide_emodel_strain>  (1) 
0.017513098914513137

>  <r_i_glide_energy>  (1) 
-23.839694646872633

>  <r_i_glide_erotb>  (1) 
0.91336080097250838

>  <r_i_glide_esite>  (1) 
0

>  <r_i_glide_evdw>  (1) 
-22.41067399988178

>  <r_i_glide_gscore>  (1) 
-4.1009496403019536

>  <r_i_glide_gscore_strain>  (1) 
0

>  <r_i_glide_hbond>  (1) 
0

>  <r_i_glide_ligand_efficiency>  (1) 
-0.18451349006746748

>  <r_i_glide_ligand_efficiency_ln>  (1) 
-0.92355281803378975

>  <r_i_glide_ligand_efficiency_sa>  (1) 
-0.50084666793854316

>  <r_i_glide_lipo>  (1) 
-1.4619597509947071

>  <r_i_glide_metal>  (1) 
-0

>  <r_i_glide_rewards>  (1) 
-2.2174638932370381

>  <r_lp_Energy>  (1) 
25.184904

>  <r_lp_tautomer_probability>  (1) 
0.5

>  <s_epik_Chemistry_Notes>  (1) 
This compound has an ester and may undergo hydrolysis at high or low pH. This compound has an imine and may undergo hydrolysis.

>  <s_epik_cmdline>  (1) 
J2VwaWtfcHl0aG9uJywgJy1waHQnLCAnMS4wJywgJy1waCcsICc3LjQnLCAnLXRuJywgJzgnLCAnLW1hJywgJzUwMCcsICctaW1hZScsICc8aW5maWxlLm1hZT4nLCAnLW9tYWUnLCAnPG91dGZpbGUubWFlPic=

>  <s_epik_input>  (1) 
W0NIM11bQ0gyXU9DKD1PKUMoPVtDSF1cW0NIMl1bQ0hdPU8pXE4oW0NIMl0xKVtDSDJdW0NIMl1bQ0BASF0oW0NASF0xMilbQ0gyXVtDQEhdKFtDSDJdMilbT0hd

>  <s_glide_docking_method>  (1) 
confgen

>  <s_i_glide_gridfile>  (1) 
gpcr_drd2_6luq_protein_autoprepared_prepared

>  <s_lp_Force_Field>  (1) 
S-OPLS

>  <s_lp_Variant>  (1) 
DiffSBDD_4_num_sample_50-1

>  <s_m_source_file>  (1) 
generated__ligand_DiffSBDD_2026-05-06_prepared.sdf

>  <GenAI_Model>  (1) 
DiffSBDD

>  <Protein>  (1) 
generic_title2

$$$$
DiffSBDD_14_num_sample_50
     RDKit          3D

  0  0  0  0  0  0  0  0  0  0999 V3000
M  V30 BEGIN CTAB
M  V30 COUNTS 69 73 0 0 1
M  V30 BEGIN ATOM
M  V30 1 C 11.989618 7.020446 -19.316215 0 CFG=2
M  V30 2 C 6.622166 3.568483 -13.441219 0 CFG=1
M  V30 3 C 11.008394 7.960446 -21.534236 0
M  V30 4 C 13.996110 8.388678 -19.613163 0
M  V30 5 C 10.061774 4.546548 -16.822215 0
M  V30 6 C 11.060318 7.693995 -8.864319 0
M  V30 7 O 12.064283 8.608216 -9.077199 0
M  V30 8 C 6.184069 4.406102 -12.246537 0
M  V30 9 O 7.504048 5.664755 -13.729434 0
M  V30 10 C 8.775950 5.445274 -10.934894 0
M  V30 11 N 7.751319 6.309501 -11.491688 0
M  V30 12 N 9.082160 4.969308 -16.008268 0
M  V30 13 C 11.255212 5.703001 -18.852692 0 CFG=2
M  V30 14 C 12.118595 7.122076 -20.870912 0 CFG=1
M  V30 15 C 8.044053 4.083914 -15.493651 0
M  V30 16 C 12.140345 9.036966 -6.753254 0
M  V30 17 O 11.261983 7.958398 -6.453217 0
M  V30 18 C 14.280486 6.274042 -18.110469 0
M  V30 19 O 10.179188 3.375428 -17.181359 0
M  V30 20 C 9.907683 5.536748 -19.608509 0
M  V30 21 C 7.836759 4.308460 -13.990370 0 CFG=2
M  V30 22 C 10.435588 7.079351 -9.961231 0
M  V30 23 O 6.917980 2.232344 -13.091652 0
M  V30 24 C 12.968103 8.664100 -7.990614 0
M  V30 25 C 13.385603 7.333213 -18.723138 0
M  V30 26 S 13.718918 7.849177 -21.294962 0
M  V30 27 C 9.653775 6.397478 -7.337044 0
M  V30 28 C 11.052794 5.605076 -17.308040 0
M  V30 29 C 13.735677 7.399110 -17.252730 0
M  V30 30 C 9.434830 6.112163 -9.752091 0
M  V30 31 C 9.044160 5.769872 -8.439553 0
M  V30 32 C 6.866154 5.767063 -12.492167 0 CFG=2
M  V30 33 C 10.661520 7.357221 -7.540489 0
M  V30 34 H 11.366705 7.858342 -19.003693 0
M  V30 35 H 5.834590 3.576859 -14.189592 0
M  V30 36 H 10.013697 7.544209 -21.396610 0
M  V30 37 H 10.985359 8.969252 -21.129303 0
M  V30 38 H 11.174608 8.042128 -22.608672 0
M  V30 39 H 13.488339 9.339744 -19.450830 0
M  V30 40 H 15.059472 8.526649 -19.414983 0
M  V30 41 H 5.101163 4.532026 -12.223049 0
M  V30 42 H 6.480102 3.981227 -11.289871 0
M  V30 43 H 8.366155 4.495882 -10.596938 0
M  V30 44 H 9.527207 5.222589 -11.692927 0
M  V30 45 H 7.292802 6.853952 -10.751417 0
M  V30 46 H 9.042257 5.943128 -15.745398 0
M  V30 47 H 11.876390 4.856326 -19.148299 0
M  V30 48 H 12.134233 6.124402 -21.310583 0
M  V30 49 H 8.265574 3.029132 -15.666469 0
M  V30 50 H 7.125207 4.301046 -16.039687 0
M  V30 51 H 12.778175 9.235364 -5.892686 0
M  V30 52 H 11.567044 9.947077 -6.929010 0
M  V30 53 H 13.884098 5.274252 -17.958459 0
M  V30 54 H 15.341118 6.306206 -18.353262 0
M  V30 55 H 9.235506 6.371088 -19.405873 0
M  V30 56 H 10.048799 5.460638 -20.684675 0
M  V30 57 H 9.378903 4.620068 -19.352908 0
M  V30 58 H 8.737445 4.043196 -13.433895 0
M  V30 59 H 10.734216 7.337683 -10.966769 0
M  V30 60 H 7.667092 2.223657 -12.514236 0
M  V30 61 H 13.434881 7.687939 -7.891307 0
M  V30 62 H 13.774098 9.369302 -8.179380 0
M  V30 63 H 9.349700 6.139586 -6.333365 0
M  V30 64 H 10.760558 6.569216 -16.901358 0
M  V30 65 H 11.983614 5.327892 -16.820959 0
M  V30 66 H 14.440111 8.170230 -16.953679 0
M  V30 67 H 12.969775 7.196304 -16.513240 0
M  V30 68 H 8.271514 5.032355 -8.279220 0
M  V30 69 H 6.094285 6.522075 -12.651905 0
M  V30 END ATOM
M  V30 BEGIN BOND
M  V30 1 1 7 6
M  V30 2 1 8 2
M  V30 3 1 11 10
M  V30 4 1 12 5
M  V30 5 1 13 1
M  V30 6 1 14 1
M  V30 7 1 14 3
M  V30 8 1 15 12
M  V30 9 1 17 16
M  V30 10 2 19 5
M  V30 11 1 20 13
M  V30 12 1 21 2
M  V30 13 1 21 9
M  V30 14 1 21 15
M  V30 15 1 22 6
M  V30 16 1 23 2
M  V30 17 1 24 7
M  V30 18 1 24 16
M  V30 19 1 25 1
M  V30 20 1 25 4
M  V30 21 1 25 18
M  V30 22 1 26 4
M  V30 23 1 26 14
M  V30 24 1 28 5
M  V30 25 1 28 13
M  V30 26 1 29 18
M  V30 27 1 29 25
M  V30 28 1 30 10
M  V30 29 2 30 22
M  V30 30 2 31 27
M  V30 31 1 31 30
M  V30 32 1 32 8
M  V30 33 1 32 9
M  V30 34 1 32 11
M  V30 35 2 33 6
M  V30 36 1 33 17
M  V30 37 1 33 27
M  V30 38 1 1 34 CFG=1
M  V30 39 1 2 35 CFG=3
M  V30 40 1 36 3
M  V30 41 1 37 3
M  V30 42 1 38 3
M  V30 43 1 39 4
M  V30 44 1 40 4
M  V30 45 1 41 8
M  V30 46 1 42 8
M  V30 47 1 43 10
M  V30 48 1 44 10
M  V30 49 1 45 11
M  V30 50 1 46 12
M  V30 51 1 13 47 CFG=3
M  V30 52 1 14 48 CFG=3
M  V30 53 1 49 15
M  V30 54 1 50 15
M  V30 55 1 51 16
M  V30 56 1 52 16
M  V30 57 1 53 18
M  V30 58 1 54 18
M  V30 59 1 55 20
M  V30 60 1 56 20
M  V30 61 1 57 20
M  V30 62 1 21 58 CFG=1
M  V30 63 1 59 22
M  V30 64 1 60 23
M  V30 65 1 61 24
M  V30 66 1 62 24
M  V30 67 1 63 27
M  V30 68 1 64 28
M  V30 69 1 65 28
M  V30 70 1 66 29
M  V30 71 1 67 29
M  V30 72 1 68 31
M  V30 73 1 32 69 CFG=3
M  V30 END BOND
M  V30 END CTAB
M  END
>  <i_epik_Tot_Q>  (1) 
0

>  <i_epik_Tot_abs_Q>  (1) 
0

>  <i_i_glide_confnum>  (1) 
1019

>  <i_i_glide_lignum>  (1) 
50

>  <i_i_glide_posenum>  (1) 
315

>  <i_i_glide_rotatable_bonds>  (1) 
10

>  <i_lp_mmshare_version>  (1) 
72125

>  <i_m_source_file_index>  (1) 
15

>  <i_f3d_flags>  (1) 
0

>  <num_sample>  (1) 
50

>  <b_lp_Chiralities_Consistent>  (1) 
1

>  <r_epik_Charging_Adjusted_Penalty>  (1) 
0.31292197521915999

>  <r_epik_Ionization_Penalty>  (1) 
0.31292203413354946

>  <r_epik_Ionization_Penalty_Charging>  (1) 
0

>  <r_epik_Ionization_Penalty_Neutral>  (1) 
0.31292203413354946

>  <r_epik_State_Penalty>  (1) 
0.31292197521915999

>  <r_glide_ring_energy>  (1) 
0

>  <r_i_docking_score>  (1) 
-3.6801938940498884

>  <r_i_glide_ecoul>  (1) 
-3.8795200154421456

>  <r_i_glide_eff_state_penalty>  (1) 
0.31292197521915999

>  <r_i_glide_einternal>  (1) 
154.43159939703199

>  <r_i_glide_emodel>  (1) 
32.394441268089359

>  <r_i_glide_emodel_strain>  (1) 
0.68225037571842506

>  <r_i_glide_energy>  (1) 
-38.062875927414439

>  <r_i_glide_erotb>  (1) 
0.80225646669221395

>  <r_i_glide_esite>  (1) 
-0.023570131315913231

>  <r_i_glide_evdw>  (1) 
-34.183355911972292

>  <r_i_glide_gscore>  (1) 
-3.9931158692690483

>  <r_i_glide_gscore_strain>  (1) 
0

>  <r_i_glide_hbond>  (1) 
-0.16

>  <r_i_glide_ligand_efficiency>  (1) 
-0.11152102709242086

>  <r_i_glide_ligand_efficiency_ln>  (1) 
-0.81845606701251472

>  <r_i_glide_ligand_efficiency_sa>  (1) 
-0.35770752291533459

>  <r_i_glide_lipo>  (1) 
-1.3620316366811365

>  <r_i_glide_metal>  (1) 
-0

>  <r_i_glide_rewards>  (1) 
-0.95867477004927604

>  <r_lp_Energy>  (1) 
13.089316999999999

>  <r_lp_tautomer_probability>  (1) 
1

>  <s_epik_Chemistry_Notes>  (1) 
This compound contains an acetal/aminal-like group ( X-CH(R)-Y where X, Y are N, S, or O) that may be acid/base labile, releasing an aldehyde.

>  <s_epik_cmdline>  (1) 
J2VwaWtfcHl0aG9uJywgJy1waHQnLCAnMS4wJywgJy1waCcsICc3LjQnLCAnLXRuJywgJzgnLCAnLW1hJywgJzUwMCcsICctaW1hZScsICc8aW5maWxlLm1hZT4nLCAnLW9tYWUnLCAnPG91dGZpbGUubWFlPic=

>  <s_epik_input>  (1) 
W0NIMl0xU1tDQEhdKFtDSDNdKVtDQEhdKEMxMltDSDJdW0NIMl0yKVtDQEhdKFtDSDNdKVtDSDJdQyg9TylbTkhdW0NIMl1bQ0BIXTNPW0NAQEhdKFtDSDJdW0NAQEhdM1tPSF0pW05IXVtDSDJdYyhbY0hdNClbY0hdW2NIXWMoYzQ1KU9bQ0gyXVtDSDJdTzU=

>  <s_glide_docking_method>  (1) 
confgen

>  <s_i_glide_gridfile>  (1) 
gpcr_drd2_6luq_protein_autoprepared_prepared

>  <s_lp_Force_Field>  (1) 
S-OPLS

>  <s_lp_Variant>  (1) 
DiffSBDD_14_num_sample_50-1

>  <s_m_source_file>  (1) 
generated__ligand_DiffSBDD_2026-05-06_prepared.sdf

>  <GenAI_Model>  (1) 
DiffSBDD

>  <Protein>  (1) 
generic_title2

$$$$
DiffSBDD_44_num_sample_50
     RDKit          3D

  0  0  0  0  0  0  0  0  0  0999 V3000
M  V30 BEGIN CTAB
M  V30 COUNTS 61 64 0 0 1
M  V30 BEGIN ATOM
M  V30 1 C 11.076322 1.738017 -20.388817 0
M  V30 2 C 6.468640 5.325128 -13.179266 0 CFG=1
M  V30 3 C 8.093011 7.066182 -12.291669 0
M  V30 4 C 9.722785 2.185796 -18.331244 0 CFG=1
M  V30 5 C 12.318245 1.635197 -19.492367 0
M  V30 6 C 9.305570 4.737287 -10.717866 0
M  V30 7 C 9.805436 1.329282 -19.618464 0 CFG=2
M  V30 8 O 9.673547 -0.903459 -20.583616 0
M  V30 9 N 8.234810 2.916910 -16.463469 0
M  V30 10 C 12.136101 2.384437 -18.156619 0 CFG=2
M  V30 11 C 5.595220 6.488769 -13.726729 0
M  V30 12 O 10.486613 6.869695 -11.753094 0
M  V30 13 C 8.498781 1.869536 -17.447833 0
M  V30 14 C 7.377368 5.070382 -15.632196 0 CFG=2
M  V30 15 O 7.264580 4.336366 -17.930401 0
M  V30 16 C 8.568785 4.634958 -11.826628 0
M  V30 17 C 9.217858 7.616652 -11.736239 0
M  V30 18 C 9.721093 -0.193900 -19.361514 0
M  V30 19 C 9.833867 7.131149 -10.694360 0
M  V30 20 O 10.900557 2.004723 -17.544159 0
M  V30 21 C 9.405619 5.962784 -9.880197 0
M  V30 22 C 12.250243 3.914533 -18.286594 0
M  V30 23 F 13.157460 2.018168 -17.383265 0
M  V30 24 C 7.624163 4.069007 -16.782577 0
M  V30 25 C 6.770825 4.379726 -14.381766 0
M  V30 26 C 6.434910 6.202656 -16.099417 0
M  V30 27 C 7.759565 5.723458 -12.411486 0
M  V30 28 C 6.147238 7.200962 -14.980116 0
M  V30 29 C 5.577271 4.552576 -12.174481 0
M  V30 30 H 11.206316 1.128623 -21.283452 0
M  V30 31 H 10.969712 2.764300 -20.741368 0
M  V30 32 H 7.418380 7.771677 -12.731281 0
M  V30 33 H 9.648399 3.228397 -18.638155 0
M  V30 34 H 12.523228 0.584072 -19.287807 0
M  V30 35 H 13.195339 2.010643 -20.020390 0
M  V30 36 H 9.834848 3.869410 -10.358860 0
M  V30 37 H 8.947031 1.595834 -20.236917 0
M  V30 38 H 8.886736 -0.658087 -21.047058 0
M  V30 39 H 8.511765 2.751297 -15.507831 0
M  V30 40 H 5.351547 7.208247 -12.943718 0
M  V30 41 H 4.641849 6.047225 -14.010476 0
M  V30 42 H 7.610988 1.729341 -18.067527 0
M  V30 43 H 8.648600 0.931240 -16.913301 0
M  V30 44 H 8.343470 5.501717 -15.365745 0
M  V30 45 H 8.527397 3.666834 -12.298377 0
M  V30 46 H 8.818733 -0.449515 -18.806707 0
M  V30 47 H 10.563716 -0.545571 -18.766342 0
M  V30 48 H 10.138271 5.799713 -9.089812 0
M  V30 49 H 8.450508 6.169105 -9.396479 0
M  V30 50 H 11.524146 4.335655 -18.980225 0
M  V30 51 H 12.104297 4.395356 -17.318987 0
M  V30 52 H 13.238476 4.199350 -18.648136 0
M  V30 53 H 5.835041 3.917961 -14.691485 0
M  V30 54 H 7.390185 3.543519 -14.066127 0
M  V30 55 H 6.863391 6.732604 -16.951003 0
M  V30 56 H 5.490709 5.780305 -16.448089 0
M  V30 57 H 7.056120 7.762074 -14.774545 0
M  V30 58 H 5.421046 7.936270 -15.327808 0
M  V30 59 H 4.647653 4.207492 -12.628550 0
M  V30 60 H 6.071373 3.663311 -11.782938 0
M  V30 61 H 5.314047 5.178185 -11.319875 0
M  V30 END ATOM
M  V30 BEGIN BOND
M  V30 1 1 5 1
M  V30 2 1 7 1
M  V30 3 1 7 4
M  V30 4 1 10 5
M  V30 5 1 11 2
M  V30 6 1 13 4
M  V30 7 1 13 9
M  V30 8 2 16 6
M  V30 9 1 17 3
M  V30 10 1 17 12
M  V30 11 1 18 7
M  V30 12 1 18 8
M  V30 13 1 19 12
M  V30 14 2 19 17
M  V30 15 1 20 4
M  V30 16 1 20 10
M  V30 17 1 21 6
M  V30 18 1 21 19
M  V30 19 1 22 10
M  V30 20 1 10 23 CFG=1
M  V30 21 1 24 9
M  V30 22 1 24 14
M  V30 23 2 24 15
M  V30 24 1 25 2
M  V30 25 1 25 14
M  V30 26 1 26 14
M  V30 27 1 27 2
M  V30 28 2 27 3
M  V30 29 1 27 16
M  V30 30 1 28 11
M  V30 31 1 28 26
M  V30 32 1 2 29 CFG=1
M  V30 33 1 30 1
M  V30 34 1 31 1
M  V30 35 1 32 3
M  V30 36 1 4 33 CFG=3
M  V30 37 1 34 5
M  V30 38 1 35 5
M  V30 39 1 36 6
M  V30 40 1 7 37 CFG=3
M  V30 41 1 38 8
M  V30 42 1 39 9
M  V30 43 1 40 11
M  V30 44 1 41 11
M  V30 45 1 42 13
M  V30 46 1 43 13
M  V30 47 1 14 44 CFG=1
M  V30 48 1 45 16
M  V30 49 1 46 18
M  V30 50 1 47 18
M  V30 51 1 48 21
M  V30 52 1 49 21
M  V30 53 1 50 22
M  V30 54 1 51 22
M  V30 55 1 52 22
M  V30 56 1 53 25
M  V30 57 1 54 25
M  V30 58 1 55 26
M  V30 59 1 56 26
M  V30 60 1 57 28
M  V30 61 1 58 28
M  V30 62 1 59 29
M  V30 63 1 60 29
M  V30 64 1 61 29
M  V30 END BOND
M  V30 END CTAB
M  END
>  <i_epik_Tot_Q>  (1) 
0

>  <i_epik_Tot_abs_Q>  (1) 
0

>  <i_i_glide_confnum>  (1) 
164

>  <i_i_glide_lignum>  (1) 
111

>  <i_i_glide_posenum>  (1) 
92

>  <i_i_glide_rotatable_bonds>  (1) 
7

>  <i_lp_mmshare_version>  (1) 
72125

>  <i_m_source_file_index>  (1) 
45

>  <i_f3d_flags>  (1) 
0

>  <num_sample>  (1) 
50

>  <b_lp_Chiralities_Consistent>  (1) 
1

>  <r_epik_Charging_Adjusted_Penalty>  (1) 
0

>  <r_epik_Ionization_Penalty>  (1) 
7.6933096193548639e-08

>  <r_epik_Ionization_Penalty_Charging>  (1) 
0

>  <r_epik_Ionization_Penalty_Neutral>  (1) 
7.6933096193548639e-08

>  <r_epik_State_Penalty>  (1) 
-0

>  <r_glide_ring_energy>  (1) 
0

>  <r_i_docking_score>  (1) 
-3.6775445663672355

>  <r_i_glide_ecoul>  (1) 
-0.66661008723752035

>  <r_i_glide_eff_state_penalty>  (1) 
-0

>  <r_i_glide_einternal>  (1) 
5.8651306996181454

>  <r_i_glide_emodel>  (1) 
-28.353534493996804

>  <r_i_glide_emodel_strain>  (1) 
0.55089817345151459

>  <r_i_glide_energy>  (1) 
-26.486304736180127

>  <r_i_glide_erotb>  (1) 
0.71709703680073922

>  <r_i_glide_esite>  (1) 
0

>  <r_i_glide_evdw>  (1) 
-25.819694648942608

>  <r_i_glide_gscore>  (1) 
-3.6775445663672355

>  <r_i_glide_gscore_strain>  (1) 
0

>  <r_i_glide_hbond>  (1) 
0

>  <r_i_glide_ligand_efficiency>  (1) 
-0.12681188159887019

>  <r_i_glide_ligand_efficiency_ln>  (1) 
-0.84206445121411089

>  <r_i_glide_ligand_efficiency_sa>  (1) 
-0.38960627753309041

>  <r_i_glide_lipo>  (1) 
-1.4731518590638373

>  <r_i_glide_metal>  (1) 
-0

>  <r_i_glide_rewards>  (1) 
-1.5305134985713791

>  <r_lp_Energy>  (1) 
41.791146999999995

>  <r_lp_tautomer_probability>  (1) 
1

>  <s_epik_cmdline>  (1) 
J2VwaWtfcHl0aG9uJywgJy1waHQnLCAnMS4wJywgJy1waCcsICc3LjQnLCAnLXRuJywgJzgnLCAnLW1hJywgJzUwMCcsICctaW1hZScsICc8aW5maWxlLm1hZT4nLCAnLW9tYWUnLCAnPG91dGZpbGUubWFlPic=

>  <s_epik_input>  (1) 
W0NIM11bQ0BdMShGKVtDSDJdW0NIMl1bQ0BIXShbQ0gyXVtPSF0pW0NASF0oTzEpW0NIMl1bTkhdQyg9TylbQ0BIXShbQ0gyXTIpW0NIMl1bQ0gyXVtDSDJdW0NAXTIoW0NIM10pQyg9W0NIXTMpW0NIXT1bQ0hdW0NIMl1DKE80KT1DMzQ=

>  <s_glide_docking_method>  (1) 
confgen

>  <s_i_glide_gridfile>  (1) 
gpcr_drd2_6luq_protein_autoprepared_prepared

>  <s_lp_Force_Field>  (1) 
S-OPLS

>  <s_lp_Variant>  (1) 
DiffSBDD_44_num_sample_50-2

>  <s_m_source_file>  (1) 
generated__ligand_DiffSBDD_2026-05-06_prepared.sdf

>  <GenAI_Model>  (1) 
DiffSBDD

>  <Protein>  (1) 
generic_title2

$$$$
DiffSBDD_43_num_sample_50
     RDKit          3D

  0  0  0  0  0  0  0  0  0  0999 V3000
M  V30 BEGIN CTAB
M  V30 COUNTS 58 58 0 0 1
M  V30 BEGIN ATOM
M  V30 1 C 8.088440 4.074335 -12.174138 0
M  V30 2 C 11.319364 7.391634 -6.887898 0
M  V30 3 N 7.190873 2.472318 -17.204290 0
M  V30 4 O 7.427094 6.639365 -14.723004 0
M  V30 5 C 9.114667 5.748137 -10.491042 0
M  V30 6 C 10.892095 7.378571 -9.414430 0 CFG=2
M  V30 7 C 6.533500 7.153143 -12.499240 0 CFG=1
M  V30 8 O 9.434909 8.569030 -7.942930 0
M  V30 9 O 11.434670 10.168112 -4.692959 0
M  V30 10 N 6.900891 6.169409 -11.491717 0
M  V30 11 C 11.156797 9.101537 -5.103368 0
M  V30 12 F 7.435534 8.137648 -12.522504 0
M  V30 13 O 9.150560 3.427921 -12.292194 0
M  V30 14 C 7.370980 4.049866 -19.174013 0
M  V30 15 C 8.101061 3.350522 -16.477997 0 CFG=2
M  V30 16 C 6.266603 6.579240 -13.907629 0
M  V30 17 C 8.211995 5.545898 -11.736108 0 CFG=2
M  V30 18 C 9.869003 7.096936 -10.548981 0
M  V30 19 O 7.917855 5.240831 -14.978942 0
M  V30 20 C 10.253223 7.419753 -8.009610 0 CFG=2
M  V30 21 F 8.037095 1.802793 -19.200394 0
M  V30 22 C 7.595297 4.772182 -16.231570 0
M  V30 23 C 10.806920 7.924759 -5.570316 0
M  V30 24 O 6.949105 3.612871 -12.420139 0 CHG=-1
M  V30 25 C 6.883199 5.528682 -17.107178 0
M  V30 26 C 6.474645 5.097217 -18.508251 0
M  V30 27 C 11.696098 8.667890 -9.724311 0
M  V30 28 C 12.899006 8.447531 -10.635045 0
M  V30 29 F 9.311388 3.337811 -17.039487 0
M  V30 30 C 7.142288 2.623371 -18.652399 0 CFG=1
M  V30 31 H 11.662085 6.367183 -6.736565 0
M  V30 32 H 12.213072 7.949675 -7.158932 0
M  V30 33 H 7.418271 1.511610 -16.992625 0
M  V30 34 H 9.834760 4.937537 -10.401265 0
M  V30 35 H 8.504875 5.688870 -9.589388 0
M  V30 36 H 11.609594 6.569465 -9.387980 0
M  V30 37 H 5.610696 7.607888 -12.137541 0
M  V30 38 H 8.675804 8.410240 -8.497173 0
M  V30 39 H 6.923151 6.688469 -10.602731 0
M  V30 40 H 7.159495 4.050332 -20.243577 0
M  V30 41 H 8.418143 4.342380 -19.090923 0
M  V30 42 H 8.235154 2.904707 -15.489924 0
M  V30 43 H 5.830171 5.579809 -13.870003 0
M  V30 44 H 5.526673 7.210628 -14.399771 0
M  V30 45 H 8.701692 6.035404 -12.577625 0
M  V30 46 H 9.138873 7.906739 -10.581928 0
M  V30 47 H 10.388938 7.146691 -11.506081 0
M  V30 48 H 9.601533 6.560186 -7.857462 0
M  V30 49 H 10.126698 7.287861 -5.027336 0
M  V30 50 H 6.566166 6.517242 -16.817579 0
M  V30 51 H 5.434068 4.774753 -18.500944 0
M  V30 52 H 6.503827 5.997880 -19.121609 0
M  V30 53 H 11.034865 9.369155 -10.198589 0
M  V30 54 H 12.032513 9.191363 -8.832428 0
M  V30 55 H 13.245602 9.369725 -11.091636 0
M  V30 56 H 13.731717 8.047693 -10.059318 0
M  V30 57 H 12.635429 7.769525 -11.446805 0
M  V30 58 H 6.170897 2.257342 -18.986481 0
M  V30 END ATOM
M  V30 BEGIN BOND
M  V30 1 1 10 7
M  V30 2 2 11 9
M  V30 3 1 12 7
M  V30 4 2 13 1
M  V30 5 1 15 3
M  V30 6 1 16 4
M  V30 7 1 16 7
M  V30 8 1 17 1
M  V30 9 1 17 5
M  V30 10 1 17 10
M  V30 11 1 18 5
M  V30 12 1 18 6
M  V30 13 1 19 4
M  V30 14 1 20 2
M  V30 15 1 20 6
M  V30 16 1 20 8
M  V30 17 1 22 15
M  V30 18 1 22 19
M  V30 19 1 23 2
M  V30 20 2 23 11
M  V30 21 1 24 1
M  V30 22 2 25 22
M  V30 23 1 26 14
M  V30 24 1 26 25
M  V30 25 1 27 6
M  V30 26 1 28 27
M  V30 27 1 29 15
M  V30 28 1 30 3
M  V30 29 1 30 14
M  V30 30 1 30 21
M  V30 31 1 31 2
M  V30 32 1 32 2
M  V30 33 1 33 3
M  V30 34 1 34 5
M  V30 35 1 35 5
M  V30 36 1 6 36 CFG=1
M  V30 37 1 7 37 CFG=1
M  V30 38 1 38 8
M  V30 39 1 39 10
M  V30 40 1 40 14
M  V30 41 1 41 14
M  V30 42 1 15 42 CFG=1
M  V30 43 1 43 16
M  V30 44 1 44 16
M  V30 45 1 17 45 CFG=3
M  V30 46 1 46 18
M  V30 47 1 47 18
M  V30 48 1 20 48 CFG=1
M  V30 49 1 49 23
M  V30 50 1 50 25
M  V30 51 1 51 26
M  V30 52 1 52 26
M  V30 53 1 53 27
M  V30 54 1 54 27
M  V30 55 1 55 28
M  V30 56 1 56 28
M  V30 57 1 57 28
M  V30 58 1 30 58 CFG=3
M  V30 END BOND
M  V30 END CTAB
M  END
>  <i_epik_Tot_Q>  (1) 
-1

>  <i_epik_Tot_abs_Q>  (1) 
1

>  <i_i_glide_confnum>  (1) 
6604

>  <i_i_glide_lignum>  (1) 
106

>  <i_i_glide_posenum>  (1) 
365

>  <i_i_glide_rotatable_bonds>  (1) 
15

>  <i_lp_mmshare_version>  (1) 
72125

>  <i_m_source_file_index>  (1) 
44

>  <i_f3d_flags>  (1) 
0

>  <num_sample>  (1) 
50

>  <b_lp_Chiralities_Consistent>  (1) 
1

>  <r_epik_Charging_Adjusted_Penalty>  (1) 
0.10859487374936995

>  <r_epik_Ionization_Penalty>  (1) 
0.10861046635066096

>  <r_epik_Ionization_Penalty_Charging>  (1) 
0.0014700329650535538

>  <r_epik_Ionization_Penalty_Neutral>  (1) 
0.10714043338560741

>  <r_epik_State_Penalty>  (1) 
0.1071248407843164

>  <r_glide_ring_energy>  (1) 
0

>  <r_i_docking_score>  (1) 
-3.6718770978796056

>  <r_i_glide_ecoul>  (1) 
-4.116931636646723

>  <r_i_glide_eff_state_penalty>  (1) 
0.1071248407843164

>  <r_i_glide_einternal>  (1) 
18.834490081415701

>  <r_i_glide_emodel>  (1) 
-27.430566530749832

>  <r_i_glide_emodel_strain>  (1) 
2.0020480586415701

>  <r_i_glide_energy>  (1) 
-31.242165469628102

>  <r_i_glide_erotb>  (1) 
1.1463316203487632

>  <r_i_glide_esite>  (1) 
-0.059118189828858331

>  <r_i_glide_evdw>  (1) 
-27.12523383298138

>  <r_i_glide_gscore>  (1) 
-3.7790019386639222

>  <r_i_glide_gscore_strain>  (1) 
0

>  <r_i_glide_hbond>  (1) 
-0.30399999999999999

>  <r_i_glide_ligand_efficiency>  (1) 
-0.12239590326265352

>  <r_i_glide_ligand_efficiency_ln>  (1) 
-0.83429048494364155

>  <r_i_glide_ligand_efficiency_sa>  (1) 
-0.38031252921330105

>  <r_i_glide_lipo>  (1) 
-1.633781606980685

>  <r_i_glide_metal>  (1) 
-0

>  <r_i_glide_rewards>  (1) 
-0.95463232505706475

>  <r_lp_Energy>  (1) 
14.872098999999999

>  <s_epik_cmdline>  (1) 
J2VwaWtfcHl0aG9uJywgJy1waHQnLCAnMS4wJywgJy1waCcsICc3LjQnLCAnLXRuJywgJzgnLCAnLW1hJywgJzUwMCcsICctaW1hZScsICc8aW5maWxlLm1hZT4nLCAnLW9tYWUnLCAnPG91dGZpbGUubWFlPic=

>  <s_epik_input>  (1) 
Tz1DPVtDSF1bQ0gyXVtDQEBIXShbT0hdKVtDQEhdKFtDSDJdW0NIM10pW0NIMl1bQ0gyXVtDQEBIXShDKD1PKVtPSF0pW05IXVtDQEBIXShGKVtDSDJdT09DMT1bQ0hdW0NIMl1bQ0gyXVtDQEBIXShGKVtOSF1bQ0BIXTFG

>  <s_glide_docking_method>  (1) 
confgen

>  <s_i_glide_gridfile>  (1) 
gpcr_drd2_6luq_protein_autoprepared_prepared

>  <s_lp_Force_Field>  (1) 
S-OPLS

>  <s_lp_Variant>  (1) 
DiffSBDD_43_num_sample_50-1

>  <s_m_source_file>  (1) 
generated__ligand_DiffSBDD_2026-05-06_prepared.sdf

>  <GenAI_Model>  (1) 
DiffSBDD

>  <Protein>  (1) 
generic_title2

$$$$
DiffSBDD_22_num_sample_50
     RDKit          3D

  0  0  0  0  0  0  0  0  0  0999 V3000
M  V30 BEGIN CTAB
M  V30 COUNTS 53 56 0 0 1
M  V30 BEGIN ATOM
M  V30 1 C 6.287710 0.186535 -18.232143 0
M  V30 2 C 10.016067 0.865313 -21.215944 0
M  V30 3 O 10.097624 -0.077227 -21.999777 0
M  V30 4 C 7.598540 1.953995 -17.297465 0 CFG=1
M  V30 5 C 5.107578 -0.146314 -19.119931 0
M  V30 6 C 9.029700 0.843423 -20.054723 0
M  V30 7 C 6.617176 5.134395 -18.795378 0
M  V30 8 S 9.353482 5.207845 -18.921951 0
M  V30 9 C 7.843079 4.219527 -18.653060 0 CFG=1
M  V30 10 C 8.781384 0.959700 -17.082720 0 CFG=2
M  V30 11 C 6.932775 -0.700418 -17.444418 0
M  V30 12 O 9.034840 -1.430698 -16.532972 0
M  V30 13 C 7.841484 3.485991 -17.290571 0
M  V30 14 C 11.377313 1.646831 -18.429628 0 CFG=2
M  V30 15 C 10.912997 2.107354 -21.364570 0 CFG=1
M  V30 16 C 12.457805 1.242689 -19.450624 0
M  V30 17 S 9.902394 0.568776 -18.500285 0 CHG=1
M  V30 18 C 11.140536 3.157397 -18.308002 0
M  V30 19 C 5.502427 -1.119551 -20.239045 0
M  V30 20 C 10.264691 3.432134 -20.893173 0
M  V30 21 C 8.125021 -0.348372 -16.578085 0 CFG=1
M  V30 22 C 12.344768 1.896132 -20.838657 0
M  V30 23 C 10.613263 4.017362 -19.491758 0 CFG=1
M  V30 24 O 6.669107 1.513859 -18.291679 0
M  V30 25 H 7.023918 1.853175 -16.373026 0
M  V30 26 H 4.321257 -0.585848 -18.504487 0
M  V30 27 H 4.694833 0.768730 -19.546922 0
M  V30 28 H 8.317304 0.032717 -20.201043 0
M  V30 29 H 8.454033 1.754146 -20.027932 0
M  V30 30 H 5.690034 4.569320 -18.691672 0
M  V30 31 H 6.599182 5.615432 -19.773832 0
M  V30 32 H 6.616544 5.921527 -18.040344 0
M  V30 33 H 7.747321 3.508216 -19.460397 0
M  V30 34 H 9.422272 1.344348 -16.291667 0
M  V30 35 H 6.603336 -1.729771 -17.419200 0
M  V30 36 H 8.636348 -2.126902 -16.012750 0
M  V30 37 H 7.034839 3.922945 -16.703027 0
M  V30 38 H 8.698577 3.742735 -16.675353 0
M  V30 39 H 11.801703 1.360205 -17.466407 0
M  V30 40 H 11.009655 2.218887 -22.445482 0
M  V30 41 H 13.441262 1.483625 -19.044651 0
M  V30 42 H 12.456402 0.157253 -19.559507 0
M  V30 43 H 10.561547 3.332209 -17.411857 0
M  V30 44 H 12.105992 3.584522 -18.030955 0
M  V30 45 H 4.634839 -1.430699 -20.815881 0
M  V30 46 H 5.961982 -2.024422 -19.840742 0
M  V30 47 H 6.207321 -0.659452 -20.931225 0
M  V30 48 H 10.569914 4.191705 -21.614868 0
M  V30 49 H 9.190642 3.401024 -21.056968 0
M  V30 50 H 7.755608 -0.206998 -15.560999 0
M  V30 51 H 12.902569 1.287945 -21.552282 0
M  V30 52 H 12.860553 2.857181 -20.826514 0
M  V30 53 H 11.459421 4.672079 -19.708360 0
M  V30 END ATOM
M  V30 BEGIN BOND
M  V30 1 2 3 2
M  V30 2 1 5 1
M  V30 3 1 6 2
M  V30 4 1 9 7
M  V30 5 1 9 8
M  V30 6 1 10 4
M  V30 7 2 11 1
M  V30 8 1 13 4
M  V30 9 1 13 9
M  V30 10 1 15 2
M  V30 11 1 16 14
M  V30 12 1 17 6 CFG=3
M  V30 13 1 17 10
M  V30 14 1 17 14
M  V30 15 1 18 14
M  V30 16 1 19 5
M  V30 17 1 20 15
M  V30 18 1 21 10
M  V30 19 1 21 11
M  V30 20 1 21 12
M  V30 21 1 22 15
M  V30 22 1 22 16
M  V30 23 1 23 8
M  V30 24 1 23 18
M  V30 25 1 23 20
M  V30 26 1 24 1
M  V30 27 1 24 4
M  V30 28 1 4 25 CFG=1
M  V30 29 1 26 5
M  V30 30 1 27 5
M  V30 31 1 28 6
M  V30 32 1 29 6
M  V30 33 1 30 7
M  V30 34 1 31 7
M  V30 35 1 32 7
M  V30 36 1 9 33 CFG=3
M  V30 37 1 10 34 CFG=1
M  V30 38 1 35 11
M  V30 39 1 36 12
M  V30 40 1 37 13
M  V30 41 1 38 13
M  V30 42 1 14 39 CFG=1
M  V30 43 1 15 40 CFG=3
M  V30 44 1 41 16
M  V30 45 1 42 16
M  V30 46 1 43 18
M  V30 47 1 44 18
M  V30 48 1 45 19
M  V30 49 1 46 19
M  V30 50 1 47 19
M  V30 51 1 48 20
M  V30 52 1 49 20
M  V30 53 1 21 50 CFG=1
M  V30 54 1 51 22
M  V30 55 1 52 22
M  V30 56 1 23 53 CFG=3
M  V30 END BOND
M  V30 END CTAB
M  END
>  <i_epik_Tot_Q>  (1) 
1

>  <i_epik_Tot_abs_Q>  (1) 
1

>  <i_i_glide_confnum>  (1) 
1

>  <i_i_glide_lignum>  (1) 
60

>  <i_i_glide_posenum>  (1) 
167

>  <i_i_glide_rotatable_bonds>  (1) 
2

>  <i_lp_mmshare_version>  (1) 
72125

>  <i_m_source_file_index>  (1) 
23

>  <i_f3d_flags>  (1) 
0

>  <num_sample>  (1) 
50

>  <b_lp_Chiralities_Consistent>  (1) 
1

>  <r_epik_Charging_Adjusted_Penalty>  (1) 
0.074119830427950756

>  <r_epik_Ionization_Penalty>  (1) 
0.0741198432157502

>  <r_epik_Ionization_Penalty_Charging>  (1) 
0

>  <r_epik_Ionization_Penalty_Neutral>  (1) 
0.0741198432157502

>  <r_epik_State_Penalty>  (1) 
0.074119830427950756

>  <r_glide_ring_energy>  (1) 
0

>  <r_i_docking_score>  (1) 
-3.6658116907319815

>  <r_i_glide_ecoul>  (1) 
-6.4016601649174678

>  <r_i_glide_eff_state_penalty>  (1) 
0.074119830427950756

>  <r_i_glide_einternal>  (1) 
0.63739094665583651

>  <r_i_glide_emodel>  (1) 
-25.700806877238907

>  <r_i_glide_emodel_strain>  (1) 
0.046645082692570838

>  <r_i_glide_energy>  (1) 
-21.080732009556822

>  <r_i_glide_erotb>  (1) 
0

>  <r_i_glide_esite>  (1) 
0

>  <r_i_glide_evdw>  (1) 
-14.679071844639354

>  <r_i_glide_gscore>  (1) 
-3.7399315211599324

>  <r_i_glide_gscore_strain>  (1) 
0

>  <r_i_glide_hbond>  (1) 
-0.32000000000000001

>  <r_i_glide_ligand_efficiency>  (1) 
-0.15274215378049924

>  <r_i_glide_ligand_efficiency_ln>  (1) 
-0.87739695072973611

>  <r_i_glide_ligand_efficiency_sa>  (1) 
-0.44058461131550625

>  <r_i_glide_lipo>  (1) 
-0.72677714118312853

>  <r_i_glide_metal>  (1) 
-0

>  <r_i_glide_rewards>  (1) 
-0.998951763007216

>  <r_lp_Energy>  (1) 
36.408808000000001

>  <s_epik_cmdline>  (1) 
J2VwaWtfcHl0aG9uJywgJy1waHQnLCAnMS4wJywgJy1waCcsICc3LjQnLCAnLXRuJywgJzgnLCAnLW1hJywgJzUwMCcsICctaW1hZScsICc8aW5maWxlLm1hZT4nLCAnLW9tYWUnLCAnPG91dGZpbGUubWFlPic=

>  <s_epik_input>  (1) 
W0NIM11bQ0gyXUMoTzEpPVtDSF1bQ0BASF0oW09IXSlbQ0BIXShbQ0BIXTEyKVtTK10zW0NASF00W0NIMl1bQ0gyXVtDQEBIXShDKD1PKVtDSDJdMylbQ0gyXVtDQEhdKFtDSDJdNClTW0NASF0oW0NIM10pW0NIMl0y

>  <s_glide_docking_method>  (1) 
confgen

>  <s_i_glide_gridfile>  (1) 
gpcr_drd2_6luq_protein_autoprepared_prepared

>  <s_lp_Force_Field>  (1) 
S-OPLS

>  <s_lp_Variant>  (1) 
DiffSBDD_22_num_sample_50-1

>  <s_m_source_file>  (1) 
generated__ligand_DiffSBDD_2026-05-06_prepared.sdf

>  <GenAI_Model>  (1) 
DiffSBDD

>  <Protein>  (1) 
generic_title2

$$$$
DiffSBDD_43_num_sample_50
     RDKit          3D

  0  0  0  0  0  0  0  0  0  0999 V3000
M  V30 BEGIN CTAB
M  V30 COUNTS 58 58 0 0 1
M  V30 BEGIN ATOM
M  V30 1 C 6.197098 5.935484 -13.801461 0
M  V30 2 C 6.522089 0.926109 -14.987622 0
M  V30 3 N 11.434415 9.730295 -6.306492 0
M  V30 4 O 10.370326 6.969252 -10.238608 0
M  V30 5 C 7.221445 3.741364 -12.961388 0
M  V30 6 C 7.790157 3.153138 -15.452880 0 CFG=2
M  V30 7 C 8.308929 5.809146 -10.711386 0 CFG=1
M  V30 8 O 6.768537 1.930823 -17.218209 0
M  V30 9 O 6.004753 -1.285925 -17.734236 0
M  V30 10 N 7.084392 5.769408 -11.510376 0
M  V30 11 C 5.854049 -0.812765 -16.667444 0
M  V30 12 F 9.044691 4.715804 -10.913816 0
M  V30 13 O 6.520638 6.988681 -14.392282 0
M  V30 14 C 11.059530 7.413065 -5.385786 0
M  V30 15 C 11.747303 9.136431 -7.611527 0 CFG=2
M  V30 16 C 9.162280 7.073053 -10.975549 0
M  V30 17 C 7.251522 5.294240 -12.891563 0 CFG=2
M  V30 18 C 8.235005 3.170168 -13.963523 0
M  V30 19 O 10.726286 8.300707 -9.641274 0
M  V30 20 C 7.418062 1.730634 -15.974690 0 CFG=2
M  V30 21 F 12.617120 8.969708 -4.520486 0
M  V30 22 C 10.710864 8.227388 -8.269987 0
M  V30 23 C 5.693066 -0.258143 -15.486582 0
M  V30 24 O 5.085138 5.369417 -13.891481 0 CHG=-1
M  V30 25 C 9.831075 7.429476 -7.626542 0
M  V30 26 C 9.731630 7.283878 -6.128541 0
M  V30 27 C 8.838453 3.814619 -16.390361 0
M  V30 28 C 9.168930 5.277743 -16.068915 0
M  V30 29 F 12.949718 8.569327 -7.590645 0
M  V30 30 C 11.435409 8.877111 -5.127697 0 CFG=1
M  V30 31 H 7.141769 0.535394 -14.180158 0
M  V30 32 H 5.834800 1.605607 -14.498773 0
M  V30 33 H 12.054022 10.507184 -6.132932 0
M  V30 34 H 6.224171 3.346190 -13.150411 0
M  V30 35 H 7.472995 3.339829 -11.984009 0
M  V30 36 H 6.887739 3.762066 -15.519906 0
M  V30 37 H 8.003498 5.769350 -9.666804 0
M  V30 38 H 6.576850 1.087233 -17.598908 0
M  V30 39 H 6.355023 5.267673 -11.026665 0
M  V30 40 H 10.982795 6.901390 -4.425740 0
M  V30 41 H 11.834810 6.881784 -5.935869 0
M  V30 42 H 11.834780 9.960708 -8.314639 0
M  V30 43 H 9.409292 7.172086 -12.032374 0
M  V30 44 H 8.634874 7.980840 -10.691301 0
M  V30 45 H 8.214203 5.657946 -13.249316 0
M  V30 46 H 8.536665 2.174182 -13.641861 0
M  V30 47 H 9.132718 3.769611 -13.831833 0
M  V30 48 H 8.328246 1.159183 -16.162500 0
M  V30 49 H 4.946347 -0.631016 -14.801908 0
M  V30 50 H 9.130692 6.846679 -8.198167 0
M  V30 51 H 9.007280 8.018721 -5.789959 0
M  V30 52 H 9.311266 6.297232 -5.932129 0
M  V30 53 H 9.759506 3.236243 -16.411041 0
M  V30 54 H 8.466473 3.796470 -17.414455 0
M  V30 55 H 9.792000 5.716165 -16.847927 0
M  V30 56 H 8.258766 5.869918 -15.999974 0
M  V30 57 H 9.713732 5.379338 -15.132078 0
M  V30 58 H 10.730606 9.317382 -4.423784 0
M  V30 END ATOM
M  V30 BEGIN BOND
M  V30 1 1 10 7
M  V30 2 2 11 9
M  V30 3 1 12 7
M  V30 4 2 13 1
M  V30 5 1 15 3
M  V30 6 1 16 4
M  V30 7 1 16 7
M  V30 8 1 17 1
M  V30 9 1 17 5
M  V30 10 1 17 10
M  V30 11 1 18 5
M  V30 12 1 18 6
M  V30 13 1 19 4
M  V30 14 1 20 2
M  V30 15 1 20 6
M  V30 16 1 20 8
M  V30 17 1 22 15
M  V30 18 1 22 19
M  V30 19 1 23 2
M  V30 20 2 23 11
M  V30 21 1 24 1
M  V30 22 2 25 22
M  V30 23 1 26 14
M  V30 24 1 26 25
M  V30 25 1 27 6
M  V30 26 1 28 27
M  V30 27 1 29 15
M  V30 28 1 30 3
M  V30 29 1 30 14
M  V30 30 1 30 21
M  V30 31 1 31 2
M  V30 32 1 32 2
M  V30 33 1 33 3
M  V30 34 1 34 5
M  V30 35 1 35 5
M  V30 36 1 6 36 CFG=1
M  V30 37 1 7 37 CFG=1
M  V30 38 1 38 8
M  V30 39 1 39 10
M  V30 40 1 40 14
M  V30 41 1 41 14
M  V30 42 1 15 42 CFG=3
M  V30 43 1 43 16
M  V30 44 1 44 16
M  V30 45 1 17 45 CFG=3
M  V30 46 1 46 18
M  V30 47 1 47 18
M  V30 48 1 20 48 CFG=3
M  V30 49 1 49 23
M  V30 50 1 50 25
M  V30 51 1 51 26
M  V30 52 1 52 26
M  V30 53 1 53 27
M  V30 54 1 54 27
M  V30 55 1 55 28
M  V30 56 1 56 28
M  V30 57 1 57 28
M  V30 58 1 30 58 CFG=1
M  V30 END BOND
M  V30 END CTAB
M  END
>  <i_epik_Tot_Q>  (1) 
-1

>  <i_epik_Tot_abs_Q>  (1) 
1

>  <i_i_glide_confnum>  (1) 
9175

>  <i_i_glide_lignum>  (1) 
106

>  <i_i_glide_posenum>  (1) 
357

>  <i_i_glide_rotatable_bonds>  (1) 
15

>  <i_lp_mmshare_version>  (1) 
72125

>  <i_m_source_file_index>  (1) 
44

>  <i_f3d_flags>  (1) 
0

>  <num_sample>  (1) 
50

>  <b_lp_Chiralities_Consistent>  (1) 
1

>  <r_epik_Charging_Adjusted_Penalty>  (1) 
0.10859487374936995

>  <r_epik_Ionization_Penalty>  (1) 
0.10861046635066096

>  <r_epik_Ionization_Penalty_Charging>  (1) 
0.0014700329650535538

>  <r_epik_Ionization_Penalty_Neutral>  (1) 
0.10714043338560741

>  <r_epik_State_Penalty>  (1) 
0.1071248407843164

>  <r_glide_ring_energy>  (1) 
0

>  <r_i_docking_score>  (1) 
-3.6604004420881582

>  <r_i_glide_ecoul>  (1) 
-1.5102228650723777

>  <r_i_glide_eff_state_penalty>  (1) 
0.1071248407843164

>  <r_i_glide_einternal>  (1) 
16.95343818411024

>  <r_i_glide_emodel>  (1) 
-28.357411835340372

>  <r_i_glide_emodel_strain>  (1) 
3.1410999148807264

>  <r_i_glide_energy>  (1) 
-32.390640900501815

>  <r_i_glide_erotb>  (1) 
1.1463316203487632

>  <r_i_glide_esite>  (1) 
-0.044019109160471151

>  <r_i_glide_evdw>  (1) 
-30.88041803542944

>  <r_i_glide_gscore>  (1) 
-3.7675252828724748

>  <r_i_glide_gscore_strain>  (1) 
0

>  <r_i_glide_hbond>  (1) 
0

>  <r_i_glide_ligand_efficiency>  (1) 
-0.12201334806960527

>  <r_i_glide_ligand_efficiency_ln>  (1) 
-0.83168286369964428

>  <r_i_glide_ligand_efficiency_sa>  (1) 
-0.37912384128214005

>  <r_i_glide_lipo>  (1) 
-1.5666669097193404

>  <r_i_glide_metal>  (1) 
-0

>  <r_i_glide_rewards>  (1) 
-1.5326165528090974

>  <r_lp_Energy>  (1) 
14.872098999999999

>  <s_epik_cmdline>  (1) 
J2VwaWtfcHl0aG9uJywgJy1waHQnLCAnMS4wJywgJy1waCcsICc3LjQnLCAnLXRuJywgJzgnLCAnLW1hJywgJzUwMCcsICctaW1hZScsICc8aW5maWxlLm1hZT4nLCAnLW9tYWUnLCAnPG91dGZpbGUubWFlPic=

>  <s_epik_input>  (1) 
Tz1DPVtDSF1bQ0gyXVtDQEBIXShbT0hdKVtDQEhdKFtDSDJdW0NIM10pW0NIMl1bQ0gyXVtDQEBIXShDKD1PKVtPSF0pW05IXVtDQEBIXShGKVtDSDJdT09DMT1bQ0hdW0NIMl1bQ0gyXVtDQEBIXShGKVtOSF1bQ0BIXTFG

>  <s_glide_docking_method>  (1) 
confgen

>  <s_i_glide_gridfile>  (1) 
gpcr_drd2_6luq_protein_autoprepared_prepared

>  <s_lp_Force_Field>  (1) 
S-OPLS

>  <s_lp_Variant>  (1) 
DiffSBDD_43_num_sample_50-1

>  <s_m_source_file>  (1) 
generated__ligand_DiffSBDD_2026-05-06_prepared.sdf

>  <GenAI_Model>  (1) 
DiffSBDD

>  <Protein>  (1) 
generic_title2

$$$$
DiffSBDD_4_num_sample_50
     RDKit          3D

  0  0  0  0  0  0  0  0  0  0999 V3000
M  V30 BEGIN CTAB
M  V30 COUNTS 43 44 0 0 1
M  V30 BEGIN ATOM
M  V30 1 C 8.219242 6.545939 -13.091058 0
M  V30 2 C 12.844662 8.367222 -8.465343 0
M  V30 3 C 10.714713 8.324360 -5.447800 0
M  V30 4 C 5.738440 5.349817 -10.686466 0
M  V30 5 C 11.835709 8.011813 -9.584346 0
M  V30 6 O 7.622734 6.202100 -14.111131 0
M  V30 7 N 10.660279 7.186458 -9.189756 0
M  V30 8 O 8.689035 5.085232 -8.524859 0
M  V30 9 C 11.195351 7.847818 -6.808237 0 CFG=2
M  V30 10 C 12.044678 8.983985 -7.335156 0 CFG=1
M  V30 11 C 9.538165 5.875986 -12.694323 0
M  V30 12 C 10.108591 7.501046 -7.843967 0
M  V30 13 O 11.033862 10.533945 -4.611989 0
M  V30 14 C 8.863431 5.416753 -9.696480 0
M  V30 15 O 8.135573 4.917735 -10.703892 0
M  V30 16 C 12.690264 9.676897 -6.130457 0
M  V30 17 C 11.739353 9.365318 -4.960620 0 CFG=2
M  V30 18 C 9.940501 6.433043 -10.176359 0
M  V30 19 C 10.198668 6.602858 -11.523353 0
M  V30 20 C 6.861044 4.312332 -10.519656 0
M  V30 21 H 7.861527 7.322814 -12.414131 0
M  V30 22 H 13.385114 7.486764 -8.126873 0
M  V30 23 H 13.609916 9.038569 -8.827987 0
M  V30 24 H 10.616214 7.492883 -4.750014 0
M  V30 25 H 9.731025 8.767732 -5.552599 0
M  V30 26 H 4.768400 4.898486 -10.500952 0
M  V30 27 H 5.729366 5.777480 -11.687892 0
M  V30 28 H 5.832230 6.169301 -9.980881 0
M  V30 29 H 11.472729 8.926796 -10.049456 0
M  V30 30 H 12.418492 7.495536 -10.343122 0
M  V30 31 H 11.816594 6.968745 -6.630407 0
M  V30 32 H 11.434895 9.754808 -7.787335 0
M  V30 33 H 9.444118 4.799858 -12.543421 0
M  V30 34 H 10.220690 5.979093 -13.540181 0
M  V30 35 H 9.438588 8.352583 -7.979050 0
M  V30 36 H 9.511214 6.756870 -7.345476 0
M  V30 37 H 10.539310 10.815529 -5.365317 0
M  V30 38 H 13.714907 9.369293 -5.929663 0
M  V30 39 H 12.757389 10.751315 -6.291688 0
M  V30 40 H 12.299192 9.003880 -4.098421 0
M  V30 41 H 10.944519 7.322185 -11.816627 0
M  V30 42 H 6.798518 3.783435 -9.566978 0
M  V30 43 H 6.732109 3.566230 -11.306901 0
M  V30 END ATOM
M  V30 BEGIN BOND
M  V30 1 1 5 2
M  V30 2 2 6 1
M  V30 3 1 7 5
M  V30 4 1 9 3
M  V30 5 1 10 2
M  V30 6 1 10 9
M  V30 7 1 11 1
M  V30 8 1 12 7
M  V30 9 1 12 9
M  V30 10 2 14 8
M  V30 11 1 15 14
M  V30 12 1 16 10
M  V30 13 1 17 3
M  V30 14 1 17 13
M  V30 15 1 17 16
M  V30 16 1 18 7
M  V30 17 1 18 14
M  V30 18 1 19 11
M  V30 19 2 19 18
M  V30 20 1 20 4
M  V30 21 1 20 15
M  V30 22 1 21 1
M  V30 23 1 22 2
M  V30 24 1 23 2
M  V30 25 1 24 3
M  V30 26 1 25 3
M  V30 27 1 26 4
M  V30 28 1 27 4
M  V30 29 1 28 4
M  V30 30 1 29 5
M  V30 31 1 30 5
M  V30 32 1 9 31 CFG=1
M  V30 33 1 10 32 CFG=3
M  V30 34 1 33 11
M  V30 35 1 34 11
M  V30 36 1 35 12
M  V30 37 1 36 12
M  V30 38 1 37 13
M  V30 39 1 38 16
M  V30 40 1 39 16
M  V30 41 1 17 40 CFG=1
M  V30 42 1 41 19
M  V30 43 1 42 20
M  V30 44 1 43 20
M  V30 END BOND
M  V30 END CTAB
M  END
>  <i_epik_Tot_Q>  (1) 
0

>  <i_epik_Tot_abs_Q>  (1) 
0

>  <i_i_glide_confnum>  (1) 
5

>  <i_i_glide_lignum>  (1) 
13

>  <i_i_glide_posenum>  (1) 
172

>  <i_i_glide_rotatable_bonds>  (1) 
7

>  <i_lp_mmshare_version>  (1) 
72125

>  <i_m_source_file_index>  (1) 
5

>  <i_f3d_flags>  (1) 
0

>  <num_sample>  (1) 
50

>  <b_lp_Chiralities_Consistent>  (1) 
1

>  <r_epik_Charging_Adjusted_Penalty>  (1) 
0.41067984158451698

>  <r_epik_Ionization_Penalty>  (1) 
6.7674502354530413e-05

>  <r_epik_Ionization_Penalty_Charging>  (1) 
2.6319130011581777e-09

>  <r_epik_Ionization_Penalty_Neutral>  (1) 
6.7671870441529249e-05

>  <r_epik_State_Penalty>  (1) 
0.41067983895260396

>  <r_glide_ring_energy>  (1) 
0

>  <r_i_docking_score>  (1) 
-3.6577991110125248

>  <r_i_glide_ecoul>  (1) 
-0.4122335279370819

>  <r_i_glide_eff_state_penalty>  (1) 
0.41067983895260396

>  <r_i_glide_einternal>  (1) 
6.8102639210894012

>  <r_i_glide_emodel>  (1) 
-26.335956115351983

>  <r_i_glide_emodel_strain>  (1) 
2.8743629848463996

>  <r_i_glide_energy>  (1) 
-25.781082910072577

>  <r_i_glide_erotb>  (1) 
0.91336080097250838

>  <r_i_glide_esite>  (1) 
-0.09215958774299611

>  <r_i_glide_evdw>  (1) 
-25.368849382135494

>  <r_i_glide_gscore>  (1) 
-4.0684789499651286

>  <r_i_glide_gscore_strain>  (1) 
0

>  <r_i_glide_hbond>  (1) 
0

>  <r_i_glide_ligand_efficiency>  (1) 
-0.18288995555062623

>  <r_i_glide_ligand_efficiency_ln>  (1) 
-0.91542647519752551

>  <r_i_glide_ligand_efficiency_sa>  (1) 
-0.49643971724487929

>  <r_i_glide_lipo>  (1) 
-1.8111084631022289

>  <r_i_glide_metal>  (1) 
-0

>  <r_i_glide_rewards>  (1) 
-1.748294201795074

>  <r_lp_Energy>  (1) 
30.399182

>  <r_lp_tautomer_probability>  (1) 
0.5

>  <s_epik_Chemistry_Notes>  (1) 
This compound has an ester and may undergo hydrolysis at high or low pH. This compound has an imine and may undergo hydrolysis.

>  <s_epik_cmdline>  (1) 
J2VwaWtfcHl0aG9uJywgJy1waHQnLCAnMS4wJywgJy1waCcsICc3LjQnLCAnLXRuJywgJzgnLCAnLW1hJywgJzUwMCcsICctaW1hZScsICc8aW5maWxlLm1hZT4nLCAnLW9tYWUnLCAnPG91dGZpbGUubWFlPic=

>  <s_epik_input>  (1) 
W0NIM11bQ0gyXU9DKD1PKUMoPVtDSF0vW0NIMl1bQ0hdPU8pXE4oW0NIMl0xKVtDSDJdW0NIMl1bQ0BASF0oW0NASF0xMilbQ0gyXVtDQEhdKFtDSDJdMilbT0hd

>  <s_glide_docking_method>  (1) 
confgen

>  <s_i_glide_gridfile>  (1) 
gpcr_drd2_6luq_protein_autoprepared_prepared

>  <s_lp_Force_Field>  (1) 
S-OPLS

>  <s_lp_Variant>  (1) 
DiffSBDD_4_num_sample_50-2

>  <s_m_source_file>  (1) 
generated__ligand_DiffSBDD_2026-05-06_prepared.sdf

>  <GenAI_Model>  (1) 
DiffSBDD

>  <Protein>  (1) 
generic_title2

$$$$
DiffSBDD_10_num_sample_50
     RDKit          3D

  0  0  0  0  0  0  0  0  0  0999 V3000
M  V30 BEGIN CTAB
M  V30 COUNTS 71 72 0 0 1
M  V30 BEGIN ATOM
M  V30 1 C 8.513596 3.884240 -17.805469 0 CFG=2
M  V30 2 C 11.238317 8.930497 -7.279042 0
M  V30 3 C 9.034117 6.348593 -10.047911 0
M  V30 4 C 7.186623 5.443329 -12.239986 0 CFG=1
M  V30 5 C 8.958688 4.660442 -16.546306 0 CFG=2
M  V30 6 N 13.034855 8.169977 -8.702425 0
M  V30 7 N 6.374717 5.233796 -14.468324 0
M  V30 8 C 7.805217 5.114294 -14.472938 0 CFG=1
M  V30 9 S 9.819916 3.640774 -19.132843 0
M  V30 10 C 12.108689 9.552899 -6.209438 0
M  V30 11 S 11.097071 2.282094 -18.133273 0 CHG=-1
M  V30 12 C 6.390342 2.844396 -18.881901 0
M  V30 13 O 12.634414 7.451084 -2.572017 0
M  V30 14 O 9.242771 2.912703 -20.272693 0
M  V30 15 C 8.177021 5.359537 -17.642480 0 CFG=2
M  V30 16 C 9.999360 6.087153 -7.672440 0
M  V30 17 C 5.913843 5.297459 -13.090510 0 CFG=1
M  V30 18 N 12.634977 9.369217 -3.820250 0
M  V30 19 N 10.845464 7.737216 -9.312639 0
M  V30 20 C 11.701436 8.962178 -4.854760 0
M  V30 21 C 8.329959 3.213968 -12.835384 0
M  V30 22 C 7.463596 2.765347 -17.780931 0
M  V30 23 C 10.387053 5.051069 -16.192583 0
M  V30 24 C 7.019283 4.974549 -10.776741 0
M  V30 25 C 10.020699 6.794603 -9.039460 0
M  V30 26 O 6.847365 5.673152 -17.288208 0
M  V30 27 C 11.704857 8.306631 -8.380489 0
M  V30 28 O 10.567705 4.885986 -19.366913 0
M  V30 29 F 5.258835 4.169291 -12.824524 0
M  V30 30 N 9.034840 6.691477 -6.765185 0
M  V30 31 C 12.287725 8.818333 -2.522930 0
M  V30 32 C 8.275754 4.740400 -13.060412 0 CFG=2
M  V30 33 O 8.237958 4.173219 -15.405829 0
M  V30 34 C 8.080251 5.423398 -9.783237 0
M  V30 35 H 10.171304 8.998203 -7.121856 0
M  V30 36 H 9.108306 6.822101 -11.013102 0
M  V30 37 H 7.393156 6.514297 -12.242380 0
M  V30 38 H 13.741276 8.689865 -8.203879 0
M  V30 39 H 5.951158 4.399958 -14.852671 0
M  V30 40 H 8.213512 6.096348 -14.722308 0
M  V30 41 H 11.960936 10.633363 -6.211512 0
M  V30 42 H 13.165266 9.371369 -6.405942 0
M  V30 43 H 5.678605 2.025173 -18.776449 0
M  V30 44 H 5.824441 3.773004 -18.822241 0
M  V30 45 H 6.809668 2.777564 -19.883779 0
M  V30 46 H 11.860483 6.932973 -2.405288 0
M  V30 47 H 8.658829 6.111997 -18.262499 0
M  V30 48 H 9.797826 5.024980 -7.797091 0
M  V30 49 H 10.985654 6.123240 -7.209477 0
M  V30 50 H 5.219951 6.124446 -12.936246 0
M  V30 51 H 13.566583 9.063382 -4.059603 0
M  V30 52 H 11.677521 7.873174 -4.919743 0
M  V30 53 H 10.694707 9.293929 -4.600252 0
M  V30 54 H 7.362313 2.734155 -12.978161 0
M  V30 55 H 9.034683 2.725765 -13.491666 0
M  V30 56 H 8.683054 2.984623 -11.833649 0
M  V30 57 H 7.986403 1.810929 -17.849390 0
M  V30 58 H 6.959451 2.752800 -16.816802 0
M  V30 59 H 10.897906 5.517898 -17.031191 0
M  V30 60 H 10.403653 5.766284 -15.371628 0
M  V30 61 H 10.952738 4.169547 -15.891946 0
M  V30 62 H 6.891987 3.896171 -10.714300 0
M  V30 63 H 6.084150 5.385515 -10.394242 0
M  V30 64 H 6.741566 5.459197 -16.368813 0
M  V30 65 H 8.109423 6.766118 -7.191091 0
M  V30 66 H 8.920085 6.131492 -5.932980 0
M  V30 67 H 11.234905 8.969119 -2.291160 0
M  V30 68 H 12.873357 9.305909 -1.744187 0
M  V30 69 H 9.263616 5.167920 -12.883205 0
M  V30 70 H 8.027248 4.967117 -8.808887 0
M  V30 71 H 13.303480 7.854355 -9.621472 0
M  V30 END ATOM
M  V30 BEGIN BOND
M  V30 1 1 5 1
M  V30 2 1 8 7
M  V30 3 1 9 1
M  V30 4 1 10 2
M  V30 5 1 11 9
M  V30 6 2 14 9
M  V30 7 1 15 1
M  V30 8 1 15 5
M  V30 9 1 17 4
M  V30 10 1 17 7
M  V30 11 1 20 10
M  V30 12 1 20 18
M  V30 13 1 1 22 CFG=1
M  V30 14 1 22 12
M  V30 15 1 23 5
M  V30 16 1 24 4
M  V30 17 1 25 3
M  V30 18 1 25 16
M  V30 19 2 25 19
M  V30 20 1 26 15
M  V30 21 2 27 2
M  V30 22 1 27 6
M  V30 23 1 27 19
M  V30 24 2 28 9
M  V30 25 1 29 17
M  V30 26 1 30 16
M  V30 27 1 31 13
M  V30 28 1 31 18
M  V30 29 1 32 4
M  V30 30 1 32 8
M  V30 31 1 32 21
M  V30 32 1 5 33 CFG=1
M  V30 33 1 33 8
M  V30 34 2 34 3
M  V30 35 1 34 24
M  V30 36 1 35 2
M  V30 37 1 36 3
M  V30 38 1 4 37 CFG=1
M  V30 39 1 38 6
M  V30 40 1 39 7
M  V30 41 1 8 40 CFG=3
M  V30 42 1 41 10
M  V30 43 1 42 10
M  V30 44 1 43 12
M  V30 45 1 44 12
M  V30 46 1 45 12
M  V30 47 1 46 13
M  V30 48 1 15 47 CFG=3
M  V30 49 1 48 16
M  V30 50 1 49 16
M  V30 51 1 17 50 CFG=3
M  V30 52 1 51 18
M  V30 53 1 52 20
M  V30 54 1 53 20
M  V30 55 1 54 21
M  V30 56 1 55 21
M  V30 57 1 56 21
M  V30 58 1 57 22
M  V30 59 1 58 22
M  V30 60 1 59 23
M  V30 61 1 60 23
M  V30 62 1 61 23
M  V30 63 1 62 24
M  V30 64 1 63 24
M  V30 65 1 64 26
M  V30 66 1 65 30
M  V30 67 1 66 30
M  V30 68 1 67 31
M  V30 69 1 68 31
M  V30 70 1 32 69 CFG=1
M  V30 71 1 70 34
M  V30 72 1 71 6
M  V30 END BOND
M  V30 END CTAB
M  END
>  <i_epik_Tot_Q>  (1) 
-1

>  <i_epik_Tot_abs_Q>  (1) 
1

>  <i_i_glide_confnum>  (1) 
2234

>  <i_i_glide_lignum>  (1) 
40

>  <i_i_glide_posenum>  (1) 
236

>  <i_i_glide_rotatable_bonds>  (1) 
15

>  <i_lp_mmshare_version>  (1) 
72125

>  <i_m_source_file_index>  (1) 
11

>  <i_f3d_flags>  (1) 
0

>  <num_sample>  (1) 
50

>  <b_lp_Chiralities_Consistent>  (1) 
1

>  <r_epik_Charging_Adjusted_Penalty>  (1) 
1.239197207418439

>  <r_epik_Ionization_Penalty>  (1) 
1.2496715491914541

>  <r_epik_Ionization_Penalty_Charging>  (1) 
1.1069707349969355e-11

>  <r_epik_Ionization_Penalty_Neutral>  (1) 
1.2496715491803843

>  <r_epik_State_Penalty>  (1) 
1.2391972074073692

>  <r_glide_ring_energy>  (1) 
0

>  <r_i_docking_score>  (1) 
-3.6538966958518566

>  <r_i_glide_ecoul>  (1) 
-2.6939609195956971

>  <r_i_glide_eff_state_penalty>  (1) 
1.2391972074073692

>  <r_i_glide_einternal>  (1) 
8.3958282868136038

>  <r_i_glide_emodel>  (1) 
-49.08791976381967

>  <r_i_glide_emodel_strain>  (1) 
1.953253231076161

>  <r_i_glide_energy>  (1) 
-44.320474420362892

>  <r_i_glide_erotb>  (1) 
0.82803537691766171

>  <r_i_glide_esite>  (1) 
-0.073278237955157019

>  <r_i_glide_evdw>  (1) 
-41.626513500767196

>  <r_i_glide_gscore>  (1) 
-4.893093903259226

>  <r_i_glide_gscore_strain>  (1) 
0

>  <r_i_glide_hbond>  (1) 
-0.16

>  <r_i_glide_ligand_efficiency>  (1) 
-0.10746754987799578

>  <r_i_glide_ligand_efficiency_ln>  (1) 
-0.80724826844448272

>  <r_i_glide_ligand_efficiency_sa>  (1) 
-0.34815314283913174

>  <r_i_glide_lipo>  (1) 
-1.7786335087653793

>  <r_i_glide_metal>  (1) 
-0

>  <r_i_glide_rewards>  (1) 
-1.2237977204786372

>  <r_lp_Energy>  (1) 
23.962672999999999

>  <s_epik_Chemistry_Notes>  (1) 
This compound has an imine and may undergo hydrolysis. This compound contains an acetal/aminal-like group ( X-CH(R)-Y where X, Y are N, S, or O) that may be acid/base labile, releasing an aldehyde.

>  <s_epik_cmdline>  (1) 
J2VwaWtfcHl0aG9uJywgJy1waHQnLCAnMS4wJywgJy1waCcsICc3LjQnLCAnLXRuJywgJzgnLCAnLW1hJywgJzUwMCcsICctaW1hZScsICc8aW5maWxlLm1hZT4nLCAnLW9tYWUnLCAnPG91dGZpbGUubWFlPic=

>  <s_epik_input>  (1) 
W1NIXVMoPU8pKD1PKVtDQEBdMShbQ0gyXVtDSDNdKVtDQEBdKFtDSDNdKShbQ0BASF0xW09IXSlPW0NASF0oW0NAQEhdMltDSDNdKVtOSF1bQ0BASF0oRilbQ0BIXTJbQ0gyXVxbQ0hdPVtDSF1cQyhbQ0gyXVtOSDJdKT1OXEMoPU5cW0hdKVxbQ0gyXVtDSDJdW0NIMl1bTkhdW0NIMl1bT0hd

>  <s_glide_docking_method>  (1) 
confgen

>  <s_i_glide_gridfile>  (1) 
gpcr_drd2_6luq_protein_autoprepared_prepared

>  <s_lp_Force_Field>  (1) 
S-OPLS

>  <s_lp_Variant>  (1) 
DiffSBDD_10_num_sample_50-20

>  <s_m_source_file>  (1) 
generated__ligand_DiffSBDD_2026-05-06_prepared.sdf

>  <GenAI_Model>  (1) 
DiffSBDD

>  <Protein>  (1) 
generic_title2

$$$$
DiffSBDD_31_num_sample_50
     RDKit          3D

  0  0  0  0  0  0  0  0  0  0999 V3000
M  V30 BEGIN CTAB
M  V30 COUNTS 71 76 0 0 1
M  V30 BEGIN ATOM
M  V30 1 C 6.872445 1.127860 -13.103344 0
M  V30 2 C 7.420159 3.878209 -13.464475 0
M  V30 3 C 9.743699 1.997113 -22.489361 0
M  V30 4 C 10.318795 3.609842 -19.767636 0
M  V30 5 C 7.836097 3.179278 -20.396898 0
M  V30 6 C 7.524699 4.869263 -17.517872 0
M  V30 7 C 6.391954 1.229129 -20.972515 0 CFG=2
M  V30 8 C 8.320384 6.192855 -12.633468 0
M  V30 9 F 6.607962 -0.190434 -12.943541 0
M  V30 10 C 5.835842 2.019089 -13.393931 0
M  V30 11 C 7.727781 5.340431 -13.736241 0
M  V30 12 C 8.618306 5.506499 -19.808386 0
M  V30 13 C 10.366516 5.398780 -16.419682 0
M  V30 14 C 9.404018 4.790774 -15.389233 0
M  V30 15 C 7.150020 5.478864 -16.137789 0
M  V30 16 C 6.104204 3.391974 -13.569459 0
M  V30 17 F 5.302531 1.995776 -21.039027 0
M  V30 18 C 8.182293 1.603868 -12.975268 0
M  V30 19 C 8.454427 2.975104 -13.132263 0
M  V30 20 C 8.554365 1.472821 -22.118743 0
M  V30 21 N 8.210861 5.585852 -15.118497 0
M  V30 22 C 10.341754 3.703915 -18.243333 0
M  V30 23 C 6.360519 0.383652 -19.680499 0
M  V30 24 C 9.017587 4.148733 -20.428748 0 CFG=1
M  V30 25 O 6.294303 1.203387 -18.528482 0
M  V30 26 C 6.899997 6.427112 -13.079491 0
M  V30 27 C 7.568249 6.356881 -20.496864 0
M  V30 28 C 7.650468 2.032037 -21.133360 0
M  V30 29 C 6.534798 0.357913 -22.303265 0 CFG=2
M  V30 30 O 5.834840 -0.871471 -22.299795 0
M  V30 31 C 9.013212 6.775610 -20.548163 0
M  V30 32 C 8.699010 5.548253 -18.271303 0 CFG=2
M  V30 33 N 10.034582 5.088342 -17.826196 0 CFG=1 CHG=1
M  V30 34 C 8.049938 0.218257 -22.742163 0
M  V30 35 H 10.339497 1.500361 -23.240940 0
M  V30 36 H 10.140965 2.883732 -22.082366 0
M  V30 37 H 10.498762 2.567403 -20.021982 0
M  V30 38 H 11.167624 4.170271 -20.163317 0
M  V30 39 H 7.050262 3.453826 -19.713620 0
M  V30 40 H 7.672714 3.794525 -17.420458 0
M  V30 41 H 6.630239 4.968118 -18.131603 0
M  V30 42 H 8.459121 5.740715 -11.654233 0
M  V30 43 H 9.032161 6.973973 -12.886235 0
M  V30 44 H 4.824089 1.651270 -13.493182 0
M  V30 45 H 11.372317 5.026451 -16.222260 0
M  V30 46 H 10.444018 6.475177 -16.296794 0
M  V30 47 H 9.077586 3.779186 -15.639966 0
M  V30 48 H 9.983999 4.739727 -14.468884 0
M  V30 49 H 6.321115 4.886851 -15.753861 0
M  V30 50 H 6.728851 6.474331 -16.279265 0
M  V30 51 H 5.298731 4.069588 -13.810660 0
M  V30 52 H 8.983858 0.918141 -12.747443 0
M  V30 53 H 9.465434 3.331285 -13.028293 0
M  V30 54 H 9.650974 2.984591 -17.806989 0
M  V30 55 H 11.336448 3.426227 -17.893622 0
M  V30 56 H 7.243252 -0.253275 -19.618400 0
M  V30 57 H 5.494570 -0.279058 -19.677598 0
M  V30 58 H 9.170742 4.416113 -21.470163 0
M  V30 59 H 5.466630 1.661383 -18.545984 0
M  V30 60 H 6.715284 7.349176 -13.627729 0
M  V30 61 H 6.124800 6.139323 -12.372164 0
M  V30 62 H 7.127308 5.981013 -21.418774 0
M  V30 63 H 6.904886 6.953358 -19.873772 0
M  V30 64 H 6.065921 0.938305 -23.099157 0
M  V30 65 H 4.899704 -0.666611 -22.291463 0
M  V30 66 H 9.307431 7.643567 -19.960156 0
M  V30 67 H 9.511990 6.690853 -21.511037 0
M  V30 68 H 8.644235 6.595223 -18.012185 0
M  V30 69 H 8.185165 0.182472 -23.821896 0
M  V30 70 H 8.533684 -0.640886 -22.275823 0
M  V30 71 H 10.681675 5.657303 -18.354245 0
M  V30 END ATOM
M  V30 BEGIN BOND
M  V30 1 1 9 1
M  V30 2 1 10 1
M  V30 3 1 11 2
M  V30 4 1 11 8
M  V30 5 1 14 13
M  V30 6 1 15 6
M  V30 7 1 16 2
M  V30 8 2 16 10
M  V30 9 1 7 17 CFG=3
M  V30 10 2 18 1
M  V30 11 2 19 2
M  V30 12 1 19 18
M  V30 13 2 20 3
M  V30 14 1 21 11
M  V30 15 1 21 14
M  V30 16 1 21 15
M  V30 17 1 22 4
M  V30 18 1 23 7
M  V30 19 1 24 4
M  V30 20 1 24 5
M  V30 21 1 24 12
M  V30 22 1 25 23
M  V30 23 1 26 8
M  V30 24 1 26 11
M  V30 25 1 27 12
M  V30 26 2 28 5
M  V30 27 1 28 7
M  V30 28 1 28 20
M  V30 29 1 29 7
M  V30 30 1 30 29
M  V30 31 1 31 12
M  V30 32 1 31 27
M  V30 33 1 32 6
M  V30 34 1 32 12
M  V30 35 1 33 13
M  V30 36 1 33 22
M  V30 37 1 33 32
M  V30 38 1 34 20
M  V30 39 1 34 29
M  V30 40 1 35 3
M  V30 41 1 36 3
M  V30 42 1 37 4
M  V30 43 1 38 4
M  V30 44 1 39 5
M  V30 45 1 40 6
M  V30 46 1 41 6
M  V30 47 1 42 8
M  V30 48 1 43 8
M  V30 49 1 44 10
M  V30 50 1 45 13
M  V30 51 1 46 13
M  V30 52 1 47 14
M  V30 53 1 48 14
M  V30 54 1 49 15
M  V30 55 1 50 15
M  V30 56 1 51 16
M  V30 57 1 52 18
M  V30 58 1 53 19
M  V30 59 1 54 22
M  V30 60 1 55 22
M  V30 61 1 56 23
M  V30 62 1 57 23
M  V30 63 1 24 58 CFG=3
M  V30 64 1 59 25
M  V30 65 1 60 26
M  V30 66 1 61 26
M  V30 67 1 62 27
M  V30 68 1 63 27
M  V30 69 1 29 64 CFG=3
M  V30 70 1 65 30
M  V30 71 1 66 31
M  V30 72 1 67 31
M  V30 73 1 32 68 CFG=1
M  V30 74 1 69 34
M  V30 75 1 70 34
M  V30 76 1 33 71 CFG=3
M  V30 END BOND
M  V30 END CTAB
M  END
>  <i_epik_Tot_Q>  (1) 
1

>  <i_epik_Tot_abs_Q>  (1) 
1

>  <i_i_glide_confnum>  (1) 
188

>  <i_i_glide_lignum>  (1) 
80

>  <i_i_glide_posenum>  (1) 
13

>  <i_i_glide_rotatable_bonds>  (1) 
6

>  <i_lp_mmshare_version>  (1) 
72125

>  <i_m_source_file_index>  (1) 
32

>  <i_f3d_flags>  (1) 
0

>  <num_sample>  (1) 
50

>  <b_lp_Chiralities_Consistent>  (1) 
1

>  <r_epik_Charging_Adjusted_Penalty>  (1) 
0.0036996964664751512

>  <r_epik_Ionization_Penalty>  (1) 
0.0040620325304727405

>  <r_epik_Ionization_Penalty_Charging>  (1) 
0.0036996964664751512

>  <r_epik_Ionization_Penalty_Neutral>  (1) 
0.00036233606399758918

>  <r_epik_State_Penalty>  (1) 
-0

>  <r_glide_ring_energy>  (1) 
0

>  <r_i_docking_score>  (1) 
-3.6535709864166224

>  <r_i_glide_ecoul>  (1) 
-7.7935766753469062

>  <r_i_glide_eff_state_penalty>  (1) 
-0

>  <r_i_glide_einternal>  (1) 
9.1066115202767328

>  <r_i_glide_emodel>  (1) 
-45.084656148495277

>  <r_i_glide_emodel_strain>  (1) 
0

>  <r_i_glide_energy>  (1) 
-20.220512697823928

>  <r_i_glide_erotb>  (1) 
0.36352394052346937

>  <r_i_glide_esite>  (1) 
-0.021286849036317827

>  <r_i_glide_evdw>  (1) 
-12.426936022477021

>  <r_i_glide_gscore>  (1) 
-3.6535709864166224

>  <r_i_glide_gscore_strain>  (1) 
0

>  <r_i_glide_hbond>  (1) 
-0.32000000000000001

>  <r_i_glide_ligand_efficiency>  (1) 
-0.10745797018872419

>  <r_i_glide_ligand_efficiency_ln>  (1) 
-0.80717631009439927

>  <r_i_glide_ligand_efficiency_sa>  (1) 
-0.34812210836471491

>  <r_i_glide_lipo>  (1) 
-1.6708452395856728

>  <r_i_glide_metal>  (1) 
-0

>  <r_i_glide_rewards>  (1) 
-0.21457953589221507

>  <r_lp_Energy>  (1) 
33.989857000000001

>  <r_lp_tautomer_probability>  (1) 
1

>  <s_epik_cmdline>  (1) 
J2VwaWtfcHl0aG9uJywgJy1waHQnLCAnMS4wJywgJy1waCcsICc3LjQnLCAnLXRuJywgJzgnLCAnLW1hJywgJzUwMCcsICctaW1hZScsICc8aW5maWxlLm1hZT4nLCAnLW9tYWUnLCAnPG91dGZpbGUubWFlPic=

>  <s_epik_input>  (1) 
RmMxW2NIXVtjSF1jKFtjSF1bY0hdMSlDMihbQ0gyXVtDSDJdMilOKFtDSDJdW0NIMl0zKVtDSDJdW0NIMl1OKFtDQEhdM0M0NVtDSDJdW0NIMl01KVtDSDJdW0NIMl1bQ0BIXTQvW0NIXT1DKC9bQ0BdNihGKVtDSDJdW09IXSlDKD1bQ0gyXSlbQ0gyXVtDQEhdNltPSF0=

>  <s_glide_docking_method>  (1) 
confgen

>  <s_i_glide_gridfile>  (1) 
gpcr_drd2_6luq_protein_autoprepared_prepared

>  <s_lp_Force_Field>  (1) 
S-OPLS

>  <s_lp_Variant>  (1) 
DiffSBDD_31_num_sample_50-3

>  <s_m_source_file>  (1) 
generated__ligand_DiffSBDD_2026-05-06_prepared.sdf

>  <GenAI_Model>  (1) 
DiffSBDD

>  <Protein>  (1) 
generic_title2

$$$$
DiffSBDD_2_num_sample_50
     RDKit          3D

  0  0  0  0  0  0  0  0  0  0999 V3000
M  V30 BEGIN CTAB
M  V30 COUNTS 54 57 0 0 1
M  V30 BEGIN ATOM
M  V30 1 C 9.193685 7.282622 -11.031803 0 CFG=1
M  V30 2 C 7.640309 5.021161 -10.171588 0
M  V30 3 O 9.434873 5.400610 -8.725735 0 CHG=-1
M  V30 4 C 8.360285 4.201072 -15.590059 0
M  V30 5 O 6.845496 0.520812 -17.476456 0
M  V30 6 C 7.672018 1.374626 -17.991831 0
M  V30 7 C 11.364079 8.773143 -7.255981 0
M  V30 8 C 6.611771 0.056988 -16.266699 0
M  V30 9 C 10.593927 8.458506 -8.542579 0
M  V30 10 O 6.216640 0.169392 -14.035022 0 CHG=-1
M  V30 11 C 8.102374 2.463501 -17.401577 0
M  V30 12 C 9.382871 4.521252 -17.754160 0
M  V30 13 C 6.641266 0.743288 -15.065153 0
M  V30 14 C 7.097748 6.472001 -12.113851 0
M  V30 15 N 9.834328 5.994848 -10.932691 0 CFG=2 CHG=1
M  V30 16 C 9.179185 5.056731 -9.961161 0 CFG=2
M  V30 17 C 11.355267 7.486954 -9.457063 0
M  V30 18 C 9.092305 4.950812 -16.425274 0
M  V30 19 C 6.175706 4.219102 -11.956157 0
M  V30 20 N 7.302086 5.092444 -11.604389 0
M  V30 21 C 7.128279 2.104322 -14.969007 0
M  V30 22 C 6.312286 3.824716 -13.415838 0
M  V30 23 N 6.972062 2.665545 -13.664956 0
M  V30 24 C 8.927916 3.356343 -18.215896 0
M  V30 25 C 7.791161 2.873584 -15.986326 0
M  V30 26 C 10.675322 7.204610 -10.797424 0 CFG=2
M  V30 27 O 5.834834 4.542371 -14.292251 0
M  V30 28 C 8.413918 7.247247 -12.310692 0
M  V30 29 H 8.635139 7.541693 -10.162569 0
M  V30 30 H 7.102750 5.769213 -9.604637 0
M  V30 31 H 7.283502 4.098481 -9.720566 0
M  V30 32 H 8.222037 4.576586 -14.602394 0
M  V30 33 H 7.908395 1.123138 -19.015422 0
M  V30 34 H 10.782030 9.420360 -6.599588 0
M  V30 35 H 12.305608 9.274020 -7.474004 0
M  V30 36 H 11.586836 7.858390 -6.705787 0
M  V30 37 H 6.242352 -0.956913 -16.323720 0
M  V30 38 H 9.629773 8.035813 -8.258895 0
M  V30 39 H 10.377800 9.369183 -9.093769 0
M  V30 40 H 9.984072 5.148872 -18.395121 0
M  V30 41 H 6.615384 6.481985 -13.087817 0
M  V30 42 H 6.400380 7.018447 -11.483870 0
M  V30 43 H 9.522676 4.090019 -10.329169 0
M  V30 44 H 12.330459 7.920592 -9.677735 0
M  V30 45 H 11.571111 6.569349 -8.925394 0
M  V30 46 H 9.488900 5.891196 -16.077630 0
M  V30 47 H 5.223678 4.718598 -11.768414 0
M  V30 48 H 6.173497 3.306830 -11.362490 0
M  V30 49 H 7.197059 2.065949 -12.884091 0
M  V30 50 H 9.170912 3.068918 -19.228763 0
M  V30 51 H 11.330298 7.248846 -11.664559 0
M  V30 52 H 8.202105 8.268685 -12.626830 0
M  V30 53 H 9.007990 6.779789 -13.091757 0
M  V30 54 H 9.852109 5.595156 -11.858661 0
M  V30 END ATOM
M  V30 BEGIN BOND
M  V30 1 1 6 5
M  V30 2 1 8 5
M  V30 3 1 9 7
M  V30 4 2 11 6
M  V30 5 2 13 8
M  V30 6 1 13 10
M  V30 7 1 15 1
M  V30 8 1 16 2
M  V30 9 1 16 3
M  V30 10 1 16 15
M  V30 11 1 17 9
M  V30 12 2 18 4
M  V30 13 1 18 12
M  V30 14 1 20 2
M  V30 15 1 20 14
M  V30 16 1 20 19
M  V30 17 1 21 13
M  V30 18 1 22 19
M  V30 19 1 23 21
M  V30 20 1 23 22
M  V30 21 1 24 11
M  V30 22 2 24 12
M  V30 23 1 25 4
M  V30 24 1 25 11
M  V30 25 2 25 21
M  V30 26 1 26 1
M  V30 27 1 26 15
M  V30 28 1 26 17
M  V30 29 2 27 22
M  V30 30 1 28 1
M  V30 31 1 28 14
M  V30 32 1 1 29 CFG=1
M  V30 33 1 30 2
M  V30 34 1 31 2
M  V30 35 1 32 4
M  V30 36 1 33 6
M  V30 37 1 34 7
M  V30 38 1 35 7
M  V30 39 1 36 7
M  V30 40 1 37 8
M  V30 41 1 38 9
M  V30 42 1 39 9
M  V30 43 1 40 12
M  V30 44 1 41 14
M  V30 45 1 42 14
M  V30 46 1 16 43 CFG=3
M  V30 47 1 44 17
M  V30 48 1 45 17
M  V30 49 1 46 18
M  V30 50 1 47 19
M  V30 51 1 48 19
M  V30 52 1 49 23
M  V30 53 1 50 24
M  V30 54 1 26 51 CFG=3
M  V30 55 1 52 28
M  V30 56 1 53 28
M  V30 57 1 15 54 CFG=3
M  V30 END BOND
M  V30 END CTAB
M  END
>  <i_epik_Tot_Q>  (1) 
-1

>  <i_epik_Tot_abs_Q>  (1) 
3

>  <i_i_glide_confnum>  (1) 
20

>  <i_i_glide_lignum>  (1) 
7

>  <i_i_glide_posenum>  (1) 
315

>  <i_i_glide_rotatable_bonds>  (1) 
6

>  <i_lp_mmshare_version>  (1) 
72125

>  <i_m_source_file_index>  (1) 
3

>  <i_f3d_flags>  (1) 
0

>  <num_sample>  (1) 
50

>  <b_lp_Chiralities_Consistent>  (1) 
1

>  <r_epik_Charging_Adjusted_Penalty>  (1) 
0.20824401478555332

>  <r_epik_Ionization_Penalty>  (1) 
0.10900575238268746

>  <r_epik_Ionization_Penalty_Charging>  (1) 
0.10898275236366674

>  <r_epik_Ionization_Penalty_Neutral>  (1) 
2.3000019020727684e-05

>  <r_epik_State_Penalty>  (1) 
0.099261262421886584

>  <r_glide_ring_energy>  (1) 
0

>  <r_i_docking_score>  (1) 
-3.6485386869841734

>  <r_i_glide_ecoul>  (1) 
-0.85571835754151071

>  <r_i_glide_eff_state_penalty>  (1) 
0.099261262421886584

>  <r_i_glide_einternal>  (1) 
2.8500705455075774

>  <r_i_glide_emodel>  (1) 
-36.922792272987131

>  <r_i_glide_emodel_strain>  (1) 
0

>  <r_i_glide_energy>  (1) 
-28.039216650610538

>  <r_i_glide_erotb>  (1) 
0.52616126561579779

>  <r_i_glide_esite>  (1) 
-0.024910844123272397

>  <r_i_glide_evdw>  (1) 
-27.183498293069025

>  <r_i_glide_gscore>  (1) 
-3.7477999494060601

>  <r_i_glide_gscore_strain>  (1) 
0

>  <r_i_glide_hbond>  (1) 
0

>  <r_i_glide_ligand_efficiency>  (1) 
-0.13030495310657761

>  <r_i_glide_ligand_efficiency_ln>  (1) 
-0.84218985470670182

>  <r_i_glide_ligand_efficiency_sa>  (1) 
-0.39568258358420899

>  <r_i_glide_lipo>  (1) 
-1.2723459007450659

>  <r_i_glide_metal>  (1) 
-0

>  <r_i_glide_rewards>  (1) 
-1.4891718018688418

>  <r_lp_Energy>  (1) 
97.502589999999998

>  <s_epik_Chemistry_Notes>  (1) 
This compound contains an acetal/aminal-like group ( X-CH(R)-Y where X, Y are N, S, or O) that may be acid/base labile, releasing an aldehyde.

>  <s_epik_cmdline>  (1) 
J2VwaWtfcHl0aG9uJywgJy1waHQnLCAnMS4wJywgJy1waCcsICc3LjQnLCAnLXRuJywgJzgnLCAnLW1hJywgJzUwMCcsICctaW1hZScsICc8aW5maWxlLm1hZT4nLCAnLW9tYWUnLCAnPG91dGZpbGUubWFlPic=

>  <s_epik_input>  (1) 
W0NIM11bQ0gyXVtDSDJdW0NIXTFOKFtDQEBIXTEyKVtDQEBIXShbT0hdKVtDSDJdTihbQ0gyXVtDSDJdMilbQ0gyXUMoPU8pW05IXUMoQyhbT0hdKT1bQ0hdT1tDSF09Myk9YyhjMzQpW2NIXVtjSF1bY0hdW2NIXTQ=

>  <s_glide_docking_method>  (1) 
confgen

>  <s_i_glide_gridfile>  (1) 
gpcr_drd2_6luq_protein_autoprepared_prepared

>  <s_lp_Force_Field>  (1) 
S-OPLS

>  <s_lp_Variant>  (1) 
DiffSBDD_2_num_sample_50-2

>  <s_m_source_file>  (1) 
generated__ligand_DiffSBDD_2026-05-06_prepared.sdf

>  <GenAI_Model>  (1) 
DiffSBDD

>  <Protein>  (1) 
generic_title2

$$$$
DiffSBDD_10_num_sample_50
     RDKit          3D

  0  0  0  0  0  0  0  0  0  0999 V3000
M  V30 BEGIN CTAB
M  V30 COUNTS 71 72 0 0 1
M  V30 BEGIN ATOM
M  V30 1 C 8.927214 3.764901 -17.682553 0 CFG=2
M  V30 2 C 11.239277 8.930327 -7.307396 0
M  V30 3 C 9.027195 6.373674 -10.091426 0
M  V30 4 C 7.171314 5.463049 -12.284774 0 CFG=1
M  V30 5 C 9.149590 4.639026 -16.443229 0 CFG=2
M  V30 6 N 13.034975 8.169306 -8.731383 0
M  V30 7 N 6.391585 5.221135 -14.524417 0
M  V30 8 C 7.821274 5.114937 -14.501589 0 CFG=1
M  V30 9 S 10.478405 3.495358 -18.706823 0
M  V30 10 C 12.110609 9.542655 -6.231756 0
M  V30 11 S 9.604187 2.999870 -20.569988 0 CHG=-1
M  V30 12 C 8.456699 1.298803 -17.064037 0
M  V30 13 O 12.634530 7.466216 -2.568281 0
M  V30 14 O 11.202238 4.762857 -18.893061 0
M  V30 15 C 8.499734 5.220315 -17.689956 0 CFG=2
M  V30 16 C 10.001645 6.090954 -7.722170 0
M  V30 17 C 5.909850 5.298523 -13.152794 0 CFG=1
M  V30 18 N 12.634843 9.369301 -3.840896 0
M  V30 19 N 10.844758 7.752947 -9.350771 0
M  V30 20 C 11.713359 8.940020 -4.878100 0
M  V30 21 C 8.316485 3.226762 -12.850683 0
M  V30 22 C 7.935438 2.594583 -17.701133 0
M  V30 23 C 10.528661 5.042747 -15.943043 0
M  V30 24 C 7.000329 5.011490 -10.817004 0
M  V30 25 C 10.019197 6.809556 -9.083197 0
M  V30 26 O 7.127387 5.486389 -17.484869 0
M  V30 27 C 11.705195 8.311374 -8.412268 0
M  V30 28 O 11.196078 2.308853 -18.215759 0
M  V30 29 F 5.257774 4.169311 -12.881715 0
M  V30 30 N 9.034839 6.684120 -6.809773 0
M  V30 31 C 12.290223 8.833765 -2.535527 0
M  V30 32 C 8.270190 4.753411 -13.080390 0 CFG=2
M  V30 33 O 8.279739 4.166399 -15.410970 0
M  V30 34 C 8.069927 5.451581 -9.827028 0
M  V30 35 H 10.172230 9.001710 -7.151885 0
M  V30 36 H 9.099256 6.851861 -11.054353 0
M  V30 37 H 7.376907 6.534300 -12.297274 0
M  V30 38 H 13.744404 8.678028 -8.225350 0
M  V30 39 H 5.980791 4.383285 -14.912108 0
M  V30 40 H 8.219595 6.099618 -14.757288 0
M  V30 41 H 11.956952 10.622266 -6.224807 0
M  V30 42 H 13.167287 9.369462 -6.434337 0
M  V30 43 H 7.653943 0.566365 -16.977280 0
M  V30 44 H 9.242955 0.840767 -17.662364 0
M  V30 45 H 8.847140 1.480280 -16.062703 0
M  V30 46 H 11.856354 6.950980 -2.414122 0
M  V30 47 H 9.023014 5.955809 -18.297147 0
M  V30 48 H 9.805634 5.028343 -7.855416 0
M  V30 49 H 10.988555 6.129173 -7.260031 0
M  V30 50 H 5.208232 6.122642 -13.018571 0
M  V30 51 H 13.570233 9.068955 -4.072813 0
M  V30 52 H 11.716372 7.850972 -4.945778 0
M  V30 53 H 10.698190 9.246797 -4.626882 0
M  V30 54 H 7.351409 2.749582 -13.016909 0
M  V30 55 H 9.034822 2.736912 -13.491649 0
M  V30 56 H 8.643629 2.996817 -11.840872 0
M  V30 57 H 7.031237 2.889701 -17.171822 0
M  V30 58 H 7.618290 2.403365 -18.725260 0
M  V30 59 H 10.984652 5.777066 -16.605475 0
M  V30 60 H 10.478702 5.485874 -14.950589 0
M  V30 61 H 11.178032 4.169515 -15.891641 0
M  V30 62 H 6.862813 3.934802 -10.744355 0
M  V30 63 H 6.069592 5.435120 -10.437716 0
M  V30 64 H 6.922179 5.205550 -16.602770 0
M  V30 65 H 8.109376 6.759538 -7.235558 0
M  V30 66 H 8.921178 6.115702 -5.983292 0
M  V30 67 H 11.239847 8.984002 -2.291652 0
M  V30 68 H 12.882915 9.331765 -1.768694 0
M  V30 69 H 9.254109 5.181741 -12.887972 0
M  V30 70 H 8.020064 4.991481 -8.854740 0
M  V30 71 H 13.306641 7.849836 -9.648058 0
M  V30 END ATOM
M  V30 BEGIN BOND
M  V30 1 1 5 1
M  V30 2 1 8 7
M  V30 3 1 9 1
M  V30 4 1 10 2
M  V30 5 1 11 9
M  V30 6 2 14 9
M  V30 7 1 15 1
M  V30 8 1 15 5
M  V30 9 1 17 4
M  V30 10 1 17 7
M  V30 11 1 20 10
M  V30 12 1 20 18
M  V30 13 1 1 22 CFG=1
M  V30 14 1 22 12
M  V30 15 1 23 5
M  V30 16 1 24 4
M  V30 17 1 25 3
M  V30 18 1 25 16
M  V30 19 2 25 19
M  V30 20 1 26 15
M  V30 21 2 27 2
M  V30 22 1 27 6
M  V30 23 1 27 19
M  V30 24 2 28 9
M  V30 25 1 29 17
M  V30 26 1 30 16
M  V30 27 1 31 13
M  V30 28 1 31 18
M  V30 29 1 32 4
M  V30 30 1 32 8
M  V30 31 1 32 21
M  V30 32 1 5 33 CFG=1
M  V30 33 1 33 8
M  V30 34 2 34 3
M  V30 35 1 34 24
M  V30 36 1 35 2
M  V30 37 1 36 3
M  V30 38 1 4 37 CFG=1
M  V30 39 1 38 6
M  V30 40 1 39 7
M  V30 41 1 8 40 CFG=3
M  V30 42 1 41 10
M  V30 43 1 42 10
M  V30 44 1 43 12
M  V30 45 1 44 12
M  V30 46 1 45 12
M  V30 47 1 46 13
M  V30 48 1 15 47 CFG=3
M  V30 49 1 48 16
M  V30 50 1 49 16
M  V30 51 1 17 50 CFG=3
M  V30 52 1 51 18
M  V30 53 1 52 20
M  V30 54 1 53 20
M  V30 55 1 54 21
M  V30 56 1 55 21
M  V30 57 1 56 21
M  V30 58 1 57 22
M  V30 59 1 58 22
M  V30 60 1 59 23
M  V30 61 1 60 23
M  V30 62 1 61 23
M  V30 63 1 62 24
M  V30 64 1 63 24
M  V30 65 1 64 26
M  V30 66 1 65 30
M  V30 67 1 66 30
M  V30 68 1 67 31
M  V30 69 1 68 31
M  V30 70 1 32 69 CFG=1
M  V30 71 1 70 34
M  V30 72 1 71 6
M  V30 END BOND
M  V30 END CTAB
M  END
>  <i_epik_Tot_Q>  (1) 
-1

>  <i_epik_Tot_abs_Q>  (1) 
1

>  <i_i_glide_confnum>  (1) 
2234

>  <i_i_glide_lignum>  (1) 
40

>  <i_i_glide_posenum>  (1) 
236

>  <i_i_glide_rotatable_bonds>  (1) 
15

>  <i_lp_mmshare_version>  (1) 
72125

>  <i_m_source_file_index>  (1) 
11

>  <i_f3d_flags>  (1) 
0

>  <num_sample>  (1) 
50

>  <b_lp_Chiralities_Consistent>  (1) 
1

>  <r_epik_Charging_Adjusted_Penalty>  (1) 
1.239197207418439

>  <r_epik_Ionization_Penalty>  (1) 
1.2496715491914541

>  <r_epik_Ionization_Penalty_Charging>  (1) 
1.1069707349969355e-11

>  <r_epik_Ionization_Penalty_Neutral>  (1) 
1.2496715491803843

>  <r_epik_State_Penalty>  (1) 
1.2391972074073692

>  <r_glide_ring_energy>  (1) 
0

>  <r_i_docking_score>  (1) 
-3.6445220826489626

>  <r_i_glide_ecoul>  (1) 
-2.7440640310832327

>  <r_i_glide_eff_state_penalty>  (1) 
1.2391972074073692

>  <r_i_glide_einternal>  (1) 
8.5635063560581983

>  <r_i_glide_emodel>  (1) 
-50.09670434447505

>  <r_i_glide_emodel_strain>  (1) 
1.0725950156044348

>  <r_i_glide_energy>  (1) 
-44.553358644325215

>  <r_i_glide_erotb>  (1) 
0.82803537691766171

>  <r_i_glide_esite>  (1) 
-0.074389460503834312

>  <r_i_glide_evdw>  (1) 
-41.809294613241981

>  <r_i_glide_gscore>  (1) 
-4.883719290056332

>  <r_i_glide_gscore_strain>  (1) 
0

>  <r_i_glide_hbond>  (1) 
-0.16

>  <r_i_glide_ligand_efficiency>  (1) 
-0.10719182596026361

>  <r_i_glide_ligand_efficiency_ln>  (1) 
-0.80517715343896967

>  <r_i_glide_ligand_efficiency_sa>  (1) 
-0.34725990438135212

>  <r_i_glide_lipo>  (1) 
-1.7406879565048143

>  <r_i_glide_metal>  (1) 
-0

>  <r_i_glide_rewards>  (1) 
-1.2346029146407607

>  <r_lp_Energy>  (1) 
23.962672999999999

>  <s_epik_Chemistry_Notes>  (1) 
This compound has an imine and may undergo hydrolysis. This compound contains an acetal/aminal-like group ( X-CH(R)-Y where X, Y are N, S, or O) that may be acid/base labile, releasing an aldehyde.

>  <s_epik_cmdline>  (1) 
J2VwaWtfcHl0aG9uJywgJy1waHQnLCAnMS4wJywgJy1waCcsICc3LjQnLCAnLXRuJywgJzgnLCAnLW1hJywgJzUwMCcsICctaW1hZScsICc8aW5maWxlLm1hZT4nLCAnLW9tYWUnLCAnPG91dGZpbGUubWFlPic=

>  <s_epik_input>  (1) 
W1NIXVMoPU8pKD1PKVtDQEBdMShbQ0gyXVtDSDNdKVtDQEBdKFtDSDNdKShbQ0BASF0xW09IXSlPW0NASF0oW0NAQEhdMltDSDNdKVtOSF1bQ0BASF0oRilbQ0BIXTJbQ0gyXVxbQ0hdPVtDSF1cQyhbQ0gyXVtOSDJdKT1OXEMoPU5cW0hdKVxbQ0gyXVtDSDJdW0NIMl1bTkhdW0NIMl1bT0hd

>  <s_glide_docking_method>  (1) 
confgen

>  <s_i_glide_gridfile>  (1) 
gpcr_drd2_6luq_protein_autoprepared_prepared

>  <s_lp_Force_Field>  (1) 
S-OPLS

>  <s_lp_Variant>  (1) 
DiffSBDD_10_num_sample_50-20

>  <s_m_source_file>  (1) 
generated__ligand_DiffSBDD_2026-05-06_prepared.sdf

>  <GenAI_Model>  (1) 
DiffSBDD

>  <Protein>  (1) 
generic_title2

$$$$
DiffSBDD_42_num_sample_50
     RDKit          3D

  0  0  0  0  0  0  0  0  0  0999 V3000
M  V30 BEGIN CTAB
M  V30 COUNTS 62 65 0 0 1
M  V30 BEGIN ATOM
M  V30 1 C 5.414535 6.985086 -17.932414 0 CFG=2
M  V30 2 S 5.528188 0.394857 -14.239947 0
M  V30 3 C 10.081857 6.296053 -8.450041 0
M  V30 4 O 8.203906 1.622724 -13.091255 0
M  V30 5 C 6.622488 6.594009 -18.816340 0
M  V30 6 O 6.194119 -0.630685 -15.426482 0
M  V30 7 O 6.074598 0.007578 -12.863902 0
M  V30 8 C 9.834957 8.089365 -10.090941 0
M  V30 9 C 6.257586 4.319606 -14.497104 0 CFG=2
M  V30 10 N 9.103548 5.795274 -10.649899 0
M  V30 11 O 6.260511 1.846325 -14.786381 0
M  V30 12 C 8.807327 5.374077 -18.351132 0
M  V30 13 C 6.856214 5.544581 -16.702297 0 CFG=1
M  V30 14 F 11.494476 9.372477 -7.074733 0
M  V30 15 C 9.434944 4.487477 -10.607028 0
M  V30 16 C 6.708427 4.091243 -18.858623 0
M  V30 17 C 6.491545 5.416211 -13.453138 0
M  V30 18 C 5.420200 6.072004 -16.744776 0
M  V30 19 N 8.215998 3.818113 -12.490243 0
M  V30 20 C 9.065353 3.577861 -11.468327 0
M  V30 21 C 10.888525 8.520657 -7.929676 0
M  V30 22 C 8.209801 6.323041 -11.689583 0
M  V30 23 C 6.389258 2.934586 -13.872553 0 CFG=1
M  V30 24 C 9.652703 6.736012 -9.735363 0
M  V30 25 C 10.467337 8.969165 -9.196239 0
M  V30 26 C 7.833508 5.231639 -12.774381 0 CFG=2
M  V30 27 C 7.122742 4.362663 -15.780388 0
M  V30 28 F 4.285839 6.837173 -18.625618 0
M  V30 29 C 5.434826 8.375922 -17.363690 0
M  V30 30 C 7.695844 2.746835 -13.143883 0
M  V30 31 C 7.273938 5.362329 -18.180237 0
M  V30 32 C 10.684984 7.189538 -7.556196 0
M  V30 33 H 9.942038 5.270879 -8.149132 0
M  V30 34 H 7.371985 7.369357 -18.835349 0
M  V30 35 H 6.335561 6.427662 -19.856276 0
M  V30 36 H 6.901072 -1.125735 -15.035829 0
M  V30 37 H 9.529750 8.451219 -11.056175 0
M  V30 38 H 5.215773 4.493146 -14.691632 0
M  V30 39 H 9.265957 6.246988 -17.892024 0
M  V30 40 H 9.264938 4.494224 -17.900258 0
M  V30 41 H 9.089534 5.389478 -19.404365 0
M  V30 42 H 7.434761 6.363649 -16.280691 0
M  V30 43 H 10.095803 4.230041 -9.802926 0
M  V30 44 H 5.635105 3.988311 -18.698204 0
M  V30 45 H 6.868986 4.123093 -19.937557 0
M  V30 46 H 7.194314 3.182576 -18.501971 0
M  V30 47 H 5.702138 5.384534 -12.699294 0
M  V30 48 H 6.435318 6.404060 -13.911106 0
M  V30 49 H 4.637815 5.369334 -16.942848 0
M  V30 50 H 5.136601 6.558809 -15.810467 0
M  V30 51 H 9.381740 2.569336 -11.387856 0
M  V30 52 H 7.298460 6.646783 -11.187390 0
M  V30 53 H 8.610275 7.177710 -12.224735 0
M  V30 54 H 5.606150 2.839967 -13.120745 0
M  V30 55 H 10.634783 9.992871 -9.491661 0
M  V30 56 H 8.555552 5.451947 -13.560802 0
M  V30 57 H 8.186666 4.328569 -15.539219 0
M  V30 58 H 6.950142 3.449776 -16.343733 0
M  V30 59 H 6.276432 8.566870 -16.691686 0
M  V30 60 H 5.434837 9.025790 -18.227666 0
M  V30 61 H 4.541866 8.564281 -16.765506 0
M  V30 62 H 11.003376 6.844814 -6.584101 0
M  V30 END ATOM
M  V30 BEGIN BOND
M  V30 1 1 5 1
M  V30 2 1 2 6 CFG=3
M  V30 3 2 7 2
M  V30 4 1 11 2
M  V30 5 1 15 10
M  V30 6 1 17 9
M  V30 7 1 18 1
M  V30 8 1 18 13
M  V30 9 2 20 15
M  V30 10 1 20 19
M  V30 11 1 21 14
M  V30 12 1 22 10
M  V30 13 1 23 9
M  V30 14 1 23 11
M  V30 15 2 24 3
M  V30 16 1 24 8
M  V30 17 1 24 10
M  V30 18 2 25 8
M  V30 19 1 25 21
M  V30 20 1 26 17
M  V30 21 1 26 19
M  V30 22 1 26 22
M  V30 23 1 27 9
M  V30 24 1 27 13
M  V30 25 1 1 28 CFG=3
M  V30 26 1 29 1
M  V30 27 2 30 4
M  V30 28 1 30 19
M  V30 29 1 30 23
M  V30 30 1 31 5
M  V30 31 1 31 12
M  V30 32 1 31 13
M  V30 33 1 31 16
M  V30 34 1 32 3
M  V30 35 2 32 21
M  V30 36 1 33 3
M  V30 37 1 34 5
M  V30 38 1 35 5
M  V30 39 1 36 6
M  V30 40 1 37 8
M  V30 41 1 9 38 CFG=3
M  V30 42 1 39 12
M  V30 43 1 40 12
M  V30 44 1 41 12
M  V30 45 1 13 42 CFG=1
M  V30 46 1 43 15
M  V30 47 1 44 16
M  V30 48 1 45 16
M  V30 49 1 46 16
M  V30 50 1 47 17
M  V30 51 1 48 17
M  V30 52 1 49 18
M  V30 53 1 50 18
M  V30 54 1 51 20
M  V30 55 1 52 22
M  V30 56 1 53 22
M  V30 57 1 23 54 CFG=1
M  V30 58 1 55 25
M  V30 59 1 26 56 CFG=3
M  V30 60 1 57 27
M  V30 61 1 58 27
M  V30 62 1 59 29
M  V30 63 1 60 29
M  V30 64 1 61 29
M  V30 65 1 62 32
M  V30 END BOND
M  V30 END CTAB
M  END
>  <i_epik_Tot_Q>  (1) 
0

>  <i_epik_Tot_abs_Q>  (1) 
0

>  <i_i_glide_confnum>  (1) 
146

>  <i_i_glide_lignum>  (1) 
105

>  <i_i_glide_posenum>  (1) 
50

>  <i_i_glide_rotatable_bonds>  (1) 
6

>  <i_lp_mmshare_version>  (1) 
72125

>  <i_m_source_file_index>  (1) 
43

>  <i_f3d_flags>  (1) 
0

>  <num_sample>  (1) 
50

>  <b_lp_Chiralities_Consistent>  (1) 
1

>  <r_epik_Charging_Adjusted_Penalty>  (1) 
7.4277235651080948e-06

>  <r_epik_Ionization_Penalty>  (1) 
7.4296713957726515e-06

>  <r_epik_Ionization_Penalty_Charging>  (1) 
7.4277235651080948e-06

>  <r_epik_Ionization_Penalty_Neutral>  (1) 
1.9478306645570326e-09

>  <r_epik_State_Penalty>  (1) 
-0

>  <r_glide_ring_energy>  (1) 
0.66106447592014972

>  <r_i_docking_score>  (1) 
-3.6367957972409046

>  <r_i_glide_ecoul>  (1) 
-1.3920342508771095

>  <r_i_glide_eff_state_penalty>  (1) 
-0

>  <r_i_glide_einternal>  (1) 
5.1906438598100166

>  <r_i_glide_emodel>  (1) 
-4.1360044471971058

>  <r_i_glide_emodel_strain>  (1) 
6.3717457585111674

>  <r_i_glide_energy>  (1) 
-7.7625267068185106

>  <r_i_glide_erotb>  (1) 
0.45981395595686525

>  <r_i_glide_esite>  (1) 
-0.097166364999283578

>  <r_i_glide_evdw>  (1) 
-6.3704924559414007

>  <r_i_glide_gscore>  (1) 
-3.6367957972409046

>  <r_i_glide_gscore_strain>  (1) 
0.59293643962779186

>  <r_i_glide_hbond>  (1) 
-0.25764176675335426

>  <r_i_glide_ligand_efficiency>  (1) 
-0.11364986866377827

>  <r_i_glide_ligand_efficiency_ln>  (1) 
-0.8143777143115134

>  <r_i_glide_ligand_efficiency_sa>  (1) 
-0.36081584214585871

>  <r_i_glide_lipo>  (1) 
-1.8928225959106251

>  <r_i_glide_metal>  (1) 
-0

>  <r_i_glide_rewards>  (1) 
-1.9145857047336625

>  <r_lp_Energy>  (1) 
34.324670999999995

>  <r_lp_tautomer_probability>  (1) 
1

>  <s_epik_Chemistry_Notes>  (1) 
This compound has an imine and may undergo hydrolysis.

>  <s_epik_cmdline>  (1) 
J2VwaWtfcHl0aG9uJywgJy1waHQnLCAnMS4wJywgJy1waCcsICc3LjQnLCAnLXRuJywgJzgnLCAnLW1hJywgJzUwMCcsICctaW1hZScsICc8aW5maWxlLm1hZT4nLCAnLW9tYWUnLCAnPG91dGZpbGUubWFlPic=

>  <s_epik_input>  (1) 
RltDQF0xKFtDSDNdKVtDSDJdQyhbQ0gzXSkoW0NIM10pW0NAQEhdKFtDSDJdMSlbQ0gyXVtDQEBIXShbQ0BIXShDMj1PKU9TKD1PKVtPSF0pW0NIMl1bQ0BIXShOMjMpW0NIMl1OKFtDSF09W0NIXTMpYyhbY0hdW2NIXTQpW2NIXVtjSF1jNEY=

>  <s_glide_docking_method>  (1) 
confgen

>  <s_i_glide_gridfile>  (1) 
gpcr_drd2_6luq_protein_autoprepared_prepared

>  <s_lp_Force_Field>  (1) 
S-OPLS

>  <s_lp_Variant>  (1) 
DiffSBDD_42_num_sample_50-1

>  <s_m_source_file>  (1) 
generated__ligand_DiffSBDD_2026-05-06_prepared.sdf

>  <GenAI_Model>  (1) 
DiffSBDD

>  <Protein>  (1) 
generic_title2

$$$$
DiffSBDD_39_num_sample_50
     RDKit          3D

  0  0  0  0  0  0  0  0  0  0999 V3000
M  V30 BEGIN CTAB
M  V30 COUNTS 60 63 0 0 1
M  V30 BEGIN ATOM
M  V30 1 C 7.400248 6.003823 -11.412008 0
M  V30 2 C 5.654013 4.259434 -11.670319 0
M  V30 3 C 10.319570 8.598601 -8.961513 0 CFG=1
M  V30 4 O 6.367245 6.518614 -13.913936 0
M  V30 5 C 11.149624 8.123460 -7.733420 0 CFG=2
M  V30 6 C 10.840280 8.985909 -6.460287 0
M  V30 7 C 9.339884 7.704692 -11.037020 0 CFG=1
M  V30 8 O 7.564265 3.971408 -17.005865 0
M  V30 9 C 9.016511 5.209629 -8.060840 0
M  V30 10 O 11.456758 6.970633 -11.826578 0
M  V30 11 C 7.299654 3.201794 -14.881692 0
M  V30 12 C 8.847340 6.410923 -11.702277 0
M  V30 13 N 9.540962 6.209853 -7.344845 0
M  V30 14 C 8.011057 1.615115 -16.513227 0
M  V30 15 O 7.833960 4.931395 -7.899113 0
M  V30 16 C 6.934262 4.818963 -12.307766 0 CFG=1
M  V30 17 N 10.272081 7.465589 -9.888670 0
M  V30 18 C 11.686478 6.084438 -6.270491 0
M  V30 19 C 7.637893 2.902917 -16.136999 0
M  V30 20 C 12.624376 8.330314 -8.180068 0
M  V30 21 C 8.016058 0.600350 -15.540835 0
M  V30 22 C 7.264797 2.228804 -13.856492 0
M  V30 23 C 10.811529 7.727071 -11.093056 0
M  V30 24 F 8.374850 -0.650273 -15.882993 0
M  V30 25 C 7.636345 0.901223 -14.196507 0
M  V30 26 C 7.045997 5.104966 -16.175131 0
M  V30 27 O 9.032385 8.969301 -8.598058 0
M  V30 28 C 10.934487 6.600159 -7.456531 0 CFG=2
M  V30 29 O 9.730129 4.575573 -8.859771 0 CHG=-1
M  V30 30 C 6.723394 5.346007 -13.753469 0
M  V30 31 C 11.119903 8.283049 -5.148123 0
M  V30 32 N 6.978172 4.525530 -14.832855 0
M  V30 33 C 11.474962 6.988487 -5.057827 0
M  V30 34 H 7.325482 5.742468 -10.356415 0
M  V30 35 H 6.746099 6.874456 -11.527247 0
M  V30 36 H 5.030840 3.754436 -12.395891 0
M  V30 37 H 5.878795 3.566033 -10.857790 0
M  V30 38 H 5.055453 5.057215 -11.230351 0
M  V30 39 H 10.754914 9.496225 -9.390462 0
M  V30 40 H 11.323763 9.964868 -6.506187 0
M  V30 41 H 9.779686 9.198568 -6.360219 0
M  V30 42 H 8.832794 8.656989 -11.205765 0
M  V30 43 H 9.008441 6.525433 -12.775743 0
M  V30 44 H 9.470776 5.571316 -11.387681 0
M  V30 45 H 8.952033 6.723818 -6.699340 0
M  V30 46 H 8.286126 1.397949 -17.536077 0
M  V30 47 H 7.771031 4.126614 -12.251707 0
M  V30 48 H 12.687090 6.145363 -6.625577 0
M  V30 49 H 11.626493 5.003928 -6.163991 0
M  V30 50 H 13.381688 7.992657 -7.496463 0
M  V30 51 H 12.835614 7.826599 -9.124499 0
M  V30 52 H 12.832820 9.369215 -8.335846 0
M  V30 53 H 6.955062 2.454706 -12.861807 0
M  V30 54 H 7.626342 0.123587 -13.446329 0
M  V30 55 H 6.055614 5.424446 -16.486356 0
M  V30 56 H 7.748339 5.932793 -16.174118 0
M  V30 57 H 8.418137 8.249363 -8.762547 0
M  V30 58 H 11.417718 6.084856 -8.278756 0
M  V30 59 H 11.019776 8.878689 -4.246836 0
M  V30 60 H 11.672798 6.556338 -4.092126 0
M  V30 END ATOM
M  V30 BEGIN BOND
M  V30 1 1 5 3
M  V30 2 1 6 5
M  V30 3 1 12 1
M  V30 4 1 12 7
M  V30 5 1 13 9
M  V30 6 2 15 9
M  V30 7 1 16 1
M  V30 8 1 16 2
M  V30 9 1 17 3
M  V30 10 1 17 7
M  V30 11 1 19 8
M  V30 12 2 19 11
M  V30 13 1 19 14
M  V30 14 1 5 20 CFG=3
M  V30 15 2 21 14
M  V30 16 1 22 11
M  V30 17 1 23 7
M  V30 18 2 23 10
M  V30 19 1 23 17
M  V30 20 1 24 21
M  V30 21 1 25 21
M  V30 22 2 25 22
M  V30 23 1 26 8
M  V30 24 1 27 3
M  V30 25 1 28 5
M  V30 26 1 28 13
M  V30 27 1 28 18
M  V30 28 1 29 9
M  V30 29 2 30 4
M  V30 30 1 30 16
M  V30 31 1 31 6
M  V30 32 1 32 11
M  V30 33 1 32 26
M  V30 34 1 32 30
M  V30 35 1 33 18
M  V30 36 2 33 31
M  V30 37 1 34 1
M  V30 38 1 35 1
M  V30 39 1 36 2
M  V30 40 1 37 2
M  V30 41 1 38 2
M  V30 42 1 3 39 CFG=3
M  V30 43 1 40 6
M  V30 44 1 41 6
M  V30 45 1 7 42 CFG=1
M  V30 46 1 43 12
M  V30 47 1 44 12
M  V30 48 1 45 13
M  V30 49 1 46 14
M  V30 50 1 16 47 CFG=3
M  V30 51 1 48 18
M  V30 52 1 49 18
M  V30 53 1 50 20
M  V30 54 1 51 20
M  V30 55 1 52 20
M  V30 56 1 53 22
M  V30 57 1 54 25
M  V30 58 1 55 26
M  V30 59 1 56 26
M  V30 60 1 57 27
M  V30 61 1 28 58 CFG=3
M  V30 62 1 59 31
M  V30 63 1 60 33
M  V30 END BOND
M  V30 END CTAB
M  END
>  <i_epik_Tot_Q>  (1) 
-1

>  <i_epik_Tot_abs_Q>  (1) 
1

>  <i_i_glide_confnum>  (1) 
275

>  <i_i_glide_lignum>  (1) 
97

>  <i_i_glide_posenum>  (1) 
220

>  <i_i_glide_rotatable_bonds>  (1) 
10

>  <i_lp_mmshare_version>  (1) 
72125

>  <i_m_source_file_index>  (1) 
40

>  <i_f3d_flags>  (1) 
0

>  <num_sample>  (1) 
50

>  <b_lp_Chiralities_Consistent>  (1) 
1

>  <r_epik_Charging_Adjusted_Penalty>  (1) 
0.003396760876195394

>  <r_epik_Ionization_Penalty>  (1) 
0.00096209118661649666

>  <r_epik_Ionization_Penalty_Charging>  (1) 
0.00096096227606769398

>  <r_epik_Ionization_Penalty_Neutral>  (1) 
1.1289105488026586e-06

>  <r_epik_State_Penalty>  (1) 
0.0024357986001277

>  <r_glide_ring_energy>  (1) 
0

>  <r_i_docking_score>  (1) 
-3.6358997488371863

>  <r_i_glide_ecoul>  (1) 
-1.113434000185952

>  <r_i_glide_eff_state_penalty>  (1) 
0.0024357986001277

>  <r_i_glide_einternal>  (1) 
9.1293006924601769

>  <r_i_glide_emodel>  (1) 
-14.510078927365342

>  <r_i_glide_emodel_strain>  (1) 
1.9949865364279162

>  <r_i_glide_energy>  (1) 
-16.331609508357356

>  <r_i_glide_erotb>  (1) 
0.66448012662833866

>  <r_i_glide_esite>  (1) 
-0.18911879530040898

>  <r_i_glide_evdw>  (1) 
-15.218175508171406

>  <r_i_glide_gscore>  (1) 
-3.6383355474373138

>  <r_i_glide_gscore_strain>  (1) 
0

>  <r_i_glide_hbond>  (1) 
-0.13863671600305252

>  <r_i_glide_ligand_efficiency>  (1) 
-0.11017878026779353

>  <r_i_glide_ligand_efficiency_ln>  (1) 
-0.80860527846001951

>  <r_i_glide_ligand_efficiency_sa>  (1) 
-0.35340222014601452

>  <r_i_glide_lipo>  (1) 
-2.2913659872120662

>  <r_i_glide_metal>  (1) 
-0

>  <r_i_glide_rewards>  (1) 
-0.75577030011366209

>  <r_lp_Energy>  (1) 
30.570542999999997

>  <r_lp_tautomer_probability>  (1) 
1

>  <s_epik_Chemistry_Notes>  (1) 
This compound contains an acetal/aminal-like group ( X-CH(R)-Y where X, Y are N, S, or O) that may be acid/base labile, releasing an aldehyde.

>  <s_epik_cmdline>  (1) 
J2VwaWtfcHl0aG9uJywgJy1waHQnLCAnMS4wJywgJy1waCcsICc3LjQnLCAnLXRuJywgJzgnLCAnLW1hJywgJzUwMCcsICctaW1hZScsICc8aW5maWxlLm1hZT4nLCAnLW9tYWUnLCAnPG91dGZpbGUubWFlPic=

>  <s_epik_input>  (1) 
W2NIXTFbY0hdYyhGKVtjSF1jKGMxMilPW0NIMl1OMkMoPU8pW0NASF0oW0NIM10pW0NIMl1bQ0gyXVtDQEhdM04oQzM9TylbQ0BASF0oW09IXSlbQ0BAXTQoW0NIM10pW0NIMl1bQ0hdPVtDSF1bQ0gyXVtDQEhdNFtOSF1DKD1PKVtPSF0=

>  <s_glide_docking_method>  (1) 
confgen

>  <s_i_glide_gridfile>  (1) 
gpcr_drd2_6luq_protein_autoprepared_prepared

>  <s_lp_Force_Field>  (1) 
S-OPLS

>  <s_lp_Variant>  (1) 
DiffSBDD_39_num_sample_50-1

>  <s_m_source_file>  (1) 
generated__ligand_DiffSBDD_2026-05-06_prepared.sdf

>  <GenAI_Model>  (1) 
DiffSBDD

>  <Protein>  (1) 
generic_title2

$$$$
DiffSBDD_29_num_sample_50
     RDKit          3D

  0  0  0  0  0  0  0  0  0  0999 V3000
M  V30 BEGIN CTAB
M  V30 COUNTS 63 66 0 0 1
M  V30 BEGIN ATOM
M  V30 1 C 15.876840 6.647559 -18.633675 0
M  V30 2 O 9.048492 5.416189 -15.074938 0
M  V30 3 C 5.577768 6.436384 -13.818403 0
M  V30 4 C 14.718480 6.964280 -19.540661 0
M  V30 5 O 7.034653 3.265235 -15.220604 0
M  V30 6 N 11.945805 5.164292 -17.443816 0
M  V30 7 C 6.233022 5.513566 -14.856221 0
M  V30 8 C 7.882123 6.907066 -12.704914 0
M  V30 9 C 10.127398 5.782020 -12.348111 0
M  V30 10 C 17.964467 7.030399 -17.526661 0
M  V30 11 C 12.592392 6.209282 -18.243542 0
M  V30 12 C 12.963189 4.597277 -16.548837 0
M  V30 13 C 6.666080 1.982461 -14.717318 0
M  V30 14 C 8.492424 4.707295 -13.967925 0 CFG=1
M  V30 15 C 15.781201 5.471764 -17.994311 0
M  V30 16 C 14.080119 3.886496 -17.322349 0
M  V30 17 C 13.776348 5.705073 -19.108777 0 CFG=2
M  V30 18 C 8.647733 5.565123 -12.688617 0 CFG=2
M  V30 19 C 16.981989 7.478685 -18.425316 0
M  V30 20 C 9.963030 4.709536 -15.896533 0
M  V30 21 N 16.685468 4.977607 -17.107282 0
M  V30 22 C 7.032066 4.330480 -14.272541 0 CFG=2
M  V30 23 C 6.364671 6.747094 -12.534777 0
M  V30 24 N 14.652431 4.776268 -18.329311 0
M  V30 25 C 17.772432 5.776265 -16.889442 0
M  V30 26 N 17.222424 9.768434 -19.660393 0
M  V30 27 C 10.790080 5.712713 -16.723129 0
M  V30 28 C 17.115605 8.756135 -19.111606 0
M  V30 29 C 7.871889 1.209516 -14.180135 0
M  V30 30 H 4.637654 5.978487 -13.521329 0
M  V30 31 H 5.319686 7.373643 -14.313158 0
M  V30 32 H 14.267278 7.935310 -19.330495 0
M  V30 33 H 15.021135 6.914153 -20.587731 0
M  V30 34 H 5.435291 5.131685 -15.486738 0
M  V30 35 H 6.841583 6.106217 -15.538527 0
M  V30 36 H 8.228386 7.506754 -11.861122 0
M  V30 37 H 8.112618 7.490447 -13.594499 0
M  V30 38 H 10.642578 6.363282 -13.110605 0
M  V30 39 H 10.238636 6.301602 -11.396474 0
M  V30 40 H 10.635345 4.824141 -12.260346 0
M  V30 41 H 18.842019 7.625148 -17.324327 0
M  V30 42 H 12.952996 6.991887 -17.573534 0
M  V30 43 H 11.860224 6.688599 -18.894076 0
M  V30 44 H 12.532749 3.847890 -15.893514 0
M  V30 45 H 13.377568 5.372191 -15.901180 0
M  V30 46 H 5.883257 2.044207 -13.959695 0
M  V30 47 H 6.240663 1.419275 -15.547726 0
M  V30 48 H 9.036610 3.784061 -13.785716 0
M  V30 49 H 13.662171 3.025458 -17.843697 0
M  V30 50 H 14.818761 3.483834 -16.629260 0
M  V30 51 H 13.394743 5.183477 -19.986853 0
M  V30 52 H 8.248251 4.979521 -11.860140 0
M  V30 53 H 9.445891 3.986055 -16.527193 0
M  V30 54 H 10.634370 4.169307 -15.251311 0
M  V30 55 H 6.546721 4.000484 -13.352429 0
M  V30 56 H 6.162103 5.983577 -11.782844 0
M  V30 57 H 5.958581 7.667695 -12.110951 0
M  V30 58 H 18.507176 5.401902 -16.191257 0
M  V30 59 H 11.129516 6.514602 -16.067393 0
M  V30 60 H 10.112002 6.170100 -17.443858 0
M  V30 61 H 7.583261 0.203217 -13.876368 0
M  V30 62 H 8.634926 1.113392 -14.950235 0
M  V30 63 H 8.310568 1.698541 -13.311238 0
M  V30 END ATOM
M  V30 BEGIN BOND
M  V30 1 1 4 1
M  V30 2 1 7 3
M  V30 3 1 11 6
M  V30 4 1 12 6
M  V30 5 1 13 5
M  V30 6 1 14 2
M  V30 7 1 15 1
M  V30 8 1 16 12
M  V30 9 1 17 4
M  V30 10 1 17 11
M  V30 11 1 18 8
M  V30 12 1 18 9
M  V30 13 1 18 14
M  V30 14 2 19 1
M  V30 15 1 19 10
M  V30 16 1 20 2
M  V30 17 2 21 15
M  V30 18 1 22 5
M  V30 19 1 22 7
M  V30 20 1 22 14
M  V30 21 1 23 3
M  V30 22 1 23 8
M  V30 23 1 24 15
M  V30 24 1 24 16
M  V30 25 1 24 17
M  V30 26 2 25 10
M  V30 27 1 25 21
M  V30 28 1 27 6
M  V30 29 1 27 20
M  V30 30 1 28 19
M  V30 31 3 28 26
M  V30 32 1 29 13
M  V30 33 1 30 3
M  V30 34 1 31 3
M  V30 35 1 32 4
M  V30 36 1 33 4
M  V30 37 1 34 7
M  V30 38 1 35 7
M  V30 39 1 36 8
M  V30 40 1 37 8
M  V30 41 1 38 9
M  V30 42 1 39 9
M  V30 43 1 40 9
M  V30 44 1 41 10
M  V30 45 1 42 11
M  V30 46 1 43 11
M  V30 47 1 44 12
M  V30 48 1 45 12
M  V30 49 1 46 13
M  V30 50 1 47 13
M  V30 51 1 14 48 CFG=1
M  V30 52 1 49 16
M  V30 53 1 50 16
M  V30 54 1 17 51 CFG=3
M  V30 55 1 18 52 CFG=1
M  V30 56 1 53 20
M  V30 57 1 54 20
M  V30 58 1 22 55 CFG=1
M  V30 59 1 56 23
M  V30 60 1 57 23
M  V30 61 1 58 25
M  V30 62 1 59 27
M  V30 63 1 60 27
M  V30 64 1 61 29
M  V30 65 1 62 29
M  V30 66 1 63 29
M  V30 END BOND
M  V30 END CTAB
M  END
>  <i_epik_Tot_Q>  (1) 
0

>  <i_epik_Tot_abs_Q>  (1) 
0

>  <i_i_glide_confnum>  (1) 
359

>  <i_i_glide_lignum>  (1) 
71

>  <i_i_glide_posenum>  (1) 
216

>  <i_i_glide_rotatable_bonds>  (1) 
6

>  <i_lp_mmshare_version>  (1) 
72125

>  <i_m_source_file_index>  (1) 
30

>  <i_f3d_flags>  (1) 
0

>  <num_sample>  (1) 
50

>  <b_lp_Chiralities_Consistent>  (1) 
1

>  <r_epik_Charging_Adjusted_Penalty>  (1) 
0.33209033116494396

>  <r_epik_Ionization_Penalty>  (1) 
0.33211857123964

>  <r_epik_Ionization_Penalty_Charging>  (1) 
0

>  <r_epik_Ionization_Penalty_Neutral>  (1) 
0.33211857123964

>  <r_epik_State_Penalty>  (1) 
0.33209033116494396

>  <r_glide_ring_energy>  (1) 
0.98173149914430957

>  <r_i_docking_score>  (1) 
-3.6348152294415619

>  <r_i_glide_ecoul>  (1) 
-3.9352774921092353

>  <r_i_glide_eff_state_penalty>  (1) 
0.33209033116494396

>  <r_i_glide_einternal>  (1) 
2.7234011303814611

>  <r_i_glide_emodel>  (1) 
-32.155881314689879

>  <r_i_glide_emodel_strain>  (1) 
0.12178357875674806

>  <r_i_glide_energy>  (1) 
-27.061463464926604

>  <r_i_glide_erotb>  (1) 
0.61650785367983663

>  <r_i_glide_esite>  (1) 
0

>  <r_i_glide_evdw>  (1) 
-23.126185972817368

>  <r_i_glide_gscore>  (1) 
-3.9669055606065058

>  <r_i_glide_gscore_strain>  (1) 
0

>  <r_i_glide_hbond>  (1) 
-0.26467985421160917

>  <r_i_glide_ligand_efficiency>  (1) 
-0.12533845618764006

>  <r_i_glide_ligand_efficiency_ln>  (1) 
-0.83228051658062718

>  <r_i_glide_ligand_efficiency_sa>  (1) 
-0.38507944785077503

>  <r_i_glide_lipo>  (1) 
-1.6051252872964614

>  <r_i_glide_metal>  (1) 
-0

>  <r_i_glide_rewards>  (1) 
-0.96700735032101859

>  <r_lp_Energy>  (1) 
50.742739

>  <s_epik_cmdline>  (1) 
J2VwaWtfcHl0aG9uJywgJy1waHQnLCAnMS4wJywgJy1waCcsICc3LjQnLCAnLXRuJywgJzgnLCAnLW1hJywgJzUwMCcsICctaW1hZScsICc8aW5maWxlLm1hZT4nLCAnLW9tYWUnLCAnPG91dGZpbGUubWFlPic=

>  <s_epik_input>  (1) 
TiNDYzFbY0hdW2NIXW5jKGMxMilOM1tDQEhdKFtDSDJdMilbQ0gyXU4oW0NIMl1bQ0gyXTMpW0NIMl1bQ0gyXU9bQ0BIXTRbQ0BASF0oW0NIM10pW0NIMl1bQ0gyXVtDSDJdW0NIMl1bQ0BIXTRPW0NIMl1bQ0gzXQ==

>  <s_glide_docking_method>  (1) 
confgen

>  <s_i_glide_gridfile>  (1) 
gpcr_drd2_6luq_protein_autoprepared_prepared

>  <s_lp_Force_Field>  (1) 
S-OPLS

>  <s_lp_Variant>  (1) 
DiffSBDD_29_num_sample_50-1

>  <s_m_source_file>  (1) 
generated__ligand_DiffSBDD_2026-05-06_prepared.sdf

>  <GenAI_Model>  (1) 
DiffSBDD

>  <Protein>  (1) 
generic_title2

$$$$
DiffSBDD_8_num_sample_50
     RDKit          3D

  0  0  0  0  0  0  0  0  0  0999 V3000
M  V30 BEGIN CTAB
M  V30 COUNTS 63 68 0 0 1
M  V30 BEGIN ATOM
M  V30 1 C 8.730115 5.816343 -11.008602 0 CFG=2
M  V30 2 O 6.312755 1.193211 -17.889697 0 CHG=-1
M  V30 3 C 9.340769 6.334516 -8.448533 0 CFG=1
M  V30 4 N 10.390673 8.231126 -7.517795 0
M  V30 5 F 9.035214 -0.709288 -16.982258 0
M  V30 6 C 8.561794 0.370741 -17.609153 0 CFG=2
M  V30 7 C 8.670896 0.112894 -19.131138 0
M  V30 8 C 6.902471 0.925551 -14.490942 0
M  V30 9 C 7.496605 3.684492 -14.552467 0
M  V30 10 C 7.658238 -0.447886 -20.120571 0
M  V30 11 O 11.330212 3.106196 -19.897622 0
M  V30 12 C 10.434964 8.602041 -8.914255 0 CFG=2
M  V30 13 O 11.216739 3.523071 -17.491841 0 CHG=-1
M  V30 14 O 9.834848 6.569306 -6.107661 0
M  V30 15 O 9.482356 1.440677 -17.460693 0
M  V30 16 N 7.223945 1.596383 -15.771374 0
M  V30 17 C 7.455917 5.216925 -14.589457 0
M  V30 18 N 10.858242 2.822286 -18.674870 0 CHG=1
M  V30 19 N 9.593893 1.052232 -19.706645 0
M  V30 20 C 9.971144 1.744956 -18.691647 0
M  V30 21 C 7.488049 2.971939 -15.859368 0
M  V30 22 O 7.685831 3.548361 -16.939972 0
M  V30 23 C 9.884087 7.049864 -7.233349 0
M  V30 24 C 9.052575 4.525353 -10.265814 0
M  V30 25 C 10.177988 7.170631 -9.470148 0 CFG=2
M  V30 26 O 11.729958 9.020627 -9.289733 0
M  V30 27 C 8.845555 -1.277983 -19.716200 0
M  V30 28 C 8.642409 6.164349 -12.502501 0 CFG=2
M  V30 29 C 9.031352 7.600107 -11.994441 0
M  V30 30 C 7.146637 0.712294 -16.995367 0 CFG=1
M  V30 31 C 7.627354 1.501054 -13.308499 0
M  V30 32 C 9.448839 4.820593 -8.762590 0
M  V30 33 C 7.321131 5.979950 -13.252056 0
M  V30 34 C 9.830564 6.867163 -10.918317 0 CFG=2
M  V30 35 C 7.559193 2.986462 -13.396583 0
M  V30 36 H 7.788938 6.169418 -10.581195 0
M  V30 37 H 8.281044 6.569208 -8.451627 0
M  V30 38 H 10.784232 8.832261 -6.810918 0
M  V30 39 H 7.105233 -0.149606 -14.477676 0
M  V30 40 H 5.826483 1.024186 -14.331307 0
M  V30 41 H 6.687508 -0.763195 -19.744043 0
M  V30 42 H 7.647331 -0.028624 -21.124615 0
M  V30 43 H 9.646821 9.304909 -9.187182 0
M  V30 44 H 6.593585 5.480435 -15.204188 0
M  V30 45 H 8.325143 5.582081 -15.138295 0
M  V30 46 H 9.834821 3.966090 -10.775754 0
M  V30 47 H 8.163458 3.901555 -10.291811 0
M  V30 48 H 11.163760 6.702535 -9.377019 0
M  V30 49 H 11.845930 8.855573 -10.213000 0
M  V30 50 H 9.631796 -1.430941 -20.453794 0
M  V30 51 H 8.634865 -2.132690 -19.077161 0
M  V30 52 H 9.474802 5.707350 -13.045381 0
M  V30 53 H 9.634538 8.179185 -12.691667 0
M  V30 54 H 8.194981 8.185710 -11.604412 0
M  V30 55 H 6.853394 -0.260686 -16.600402 0
M  V30 56 H 8.672138 1.188455 -13.288290 0
M  V30 57 H 7.165953 1.155278 -12.383104 0
M  V30 58 H 10.454917 4.470391 -8.549762 0
M  V30 59 H 8.792197 4.267421 -8.090216 0
M  V30 60 H 6.564793 5.517963 -12.616334 0
M  V30 61 H 6.916865 6.966730 -13.480850 0
M  V30 62 H 10.750134 6.557378 -11.420133 0
M  V30 63 H 7.579357 3.514353 -12.459076 0
M  V30 END ATOM
M  V30 BEGIN BOND
M  V30 1 1 6 5 CFG=1
M  V30 2 1 7 6
M  V30 3 1 10 7
M  V30 4 1 12 4
M  V30 5 1 15 6
M  V30 6 1 16 8
M  V30 7 1 17 9
M  V30 8 2 18 11
M  V30 9 1 18 13
M  V30 10 1 19 7
M  V30 11 1 20 15
M  V30 12 1 20 18
M  V30 13 2 20 19
M  V30 14 1 21 9
M  V30 15 1 21 16
M  V30 16 2 22 21
M  V30 17 1 23 3
M  V30 18 1 23 4
M  V30 19 2 23 14
M  V30 20 1 24 1
M  V30 21 1 25 3
M  V30 22 1 25 12
M  V30 23 1 26 12
M  V30 24 1 27 7
M  V30 25 1 27 10
M  V30 26 1 28 1
M  V30 27 1 29 28
M  V30 28 1 30 2
M  V30 29 1 30 6
M  V30 30 1 30 16
M  V30 31 1 31 8
M  V30 32 1 32 3
M  V30 33 1 32 24
M  V30 34 1 33 17
M  V30 35 1 33 28
M  V30 36 1 34 1
M  V30 37 1 34 25
M  V30 38 1 34 29
M  V30 39 2 35 9
M  V30 40 1 35 31
M  V30 41 1 1 36 CFG=1
M  V30 42 1 3 37 CFG=3
M  V30 43 1 38 4
M  V30 44 1 39 8
M  V30 45 1 40 8
M  V30 46 1 41 10
M  V30 47 1 42 10
M  V30 48 1 12 43 CFG=1
M  V30 49 1 44 17
M  V30 50 1 45 17
M  V30 51 1 46 24
M  V30 52 1 47 24
M  V30 53 1 25 48 CFG=3
M  V30 54 1 49 26
M  V30 55 1 50 27
M  V30 56 1 51 27
M  V30 57 1 28 52 CFG=3
M  V30 58 1 53 29
M  V30 59 1 54 29
M  V30 60 1 30 55 CFG=1
M  V30 61 1 56 31
M  V30 62 1 57 31
M  V30 63 1 58 32
M  V30 64 1 59 32
M  V30 65 1 60 33
M  V30 66 1 61 33
M  V30 67 1 34 62 CFG=3
M  V30 68 1 63 35
M  V30 END BOND
M  V30 END CTAB
M  END
>  <i_epik_Tot_Q>  (1) 
-1

>  <i_epik_Tot_abs_Q>  (1) 
3

>  <i_i_glide_confnum>  (1) 
70

>  <i_i_glide_lignum>  (1) 
18

>  <i_i_glide_posenum>  (1) 
142

>  <i_i_glide_rotatable_bonds>  (1) 
7

>  <i_lp_mmshare_version>  (1) 
72125

>  <i_m_source_file_index>  (1) 
9

>  <i_f3d_flags>  (1) 
0

>  <num_sample>  (1) 
50

>  <b_lp_Chiralities_Consistent>  (1) 
1

>  <r_epik_Charging_Adjusted_Penalty>  (1) 
0.25838740980645414

>  <r_epik_Ionization_Penalty>  (1) 
0.12923734989215022

>  <r_epik_Ionization_Penalty_Charging>  (1) 
0.12919370490322707

>  <r_epik_Ionization_Penalty_Neutral>  (1) 
4.364498892313774e-05

>  <r_epik_State_Penalty>  (1) 
0.1291937049032271

>  <r_glide_ring_energy>  (1) 
0.016691843605602361

>  <r_i_docking_score>  (1) 
-3.6339168994400088

>  <r_i_glide_ecoul>  (1) 
1.5900710116825594

>  <r_i_glide_eff_state_penalty>  (1) 
0.1291937049032271

>  <r_i_glide_einternal>  (1) 
8.2271692705128707

>  <r_i_glide_emodel>  (1) 
-36.827043911156707

>  <r_i_glide_emodel_strain>  (1) 
0.073381793562390385

>  <r_i_glide_energy>  (1) 
-35.005808413309822

>  <r_i_glide_erotb>  (1) 
0.42136342035921531

>  <r_i_glide_esite>  (1) 
-0.042492812348529786

>  <r_i_glide_evdw>  (1) 
-36.595879424992383

>  <r_i_glide_gscore>  (1) 
-3.7631106043432361

>  <r_i_glide_gscore_strain>  (1) 
0

>  <r_i_glide_hbond>  (1) 
0

>  <r_i_glide_ligand_efficiency>  (1) 
-0.10382619712685739

>  <r_i_glide_ligand_efficiency_ln>  (1) 
-0.79772540986733431

>  <r_i_glide_ligand_efficiency_sa>  (1) 
-0.33962237553666264

>  <r_i_glide_lipo>  (1) 
-1.2418042758462824

>  <r_i_glide_metal>  (1) 
-0

>  <r_i_glide_rewards>  (1) 
-1.308893617010404

>  <r_lp_Energy>  (1) 
83.181056999999996

>  <s_epik_Chemistry_Notes>  (1) 
This compound has an imine and may undergo hydrolysis. This compound contains an acetal/aminal-like group ( X-CH(R)-Y where X, Y are N, S, or O) that may be acid/base labile, releasing an aldehyde.

>  <s_epik_cmdline>  (1) 
J2VwaWtfcHl0aG9uJywgJy1waHQnLCAnMS4wJywgJy1waCcsICc3LjQnLCAnLXRuJywgJzgnLCAnLW1hJywgJzUwMCcsICctaW1hZScsICc8aW5maWxlLm1hZT4nLCAnLW9tYWUnLCAnPG91dGZpbGUubWFlPic=

>  <s_epik_input>  (1) 
W09IXVtDQEBIXTFbTkhdQyg9TylbQ0BIXShbQ0gyXVtDSDJdMilbQ0BIXTFbQ0BASF0oW0NASF0yMylbQ0gyXVtDQEBIXTNbQ0gyXVtDSDJdQzQ9W0NIXVtDSDJdW0NIMl1OKEM0PU8pW0NAQEhdKFtPSF0pW0NAQF0oRikoQzU2W0NIMl1bQ0gyXTYpT0MoPU41KVtOK10oPU8pW08tXQ==

>  <s_glide_docking_method>  (1) 
confgen

>  <s_i_glide_gridfile>  (1) 
gpcr_drd2_6luq_protein_autoprepared_prepared

>  <s_lp_Force_Field>  (1) 
S-OPLS

>  <s_lp_Variant>  (1) 
DiffSBDD_8_num_sample_50-1

>  <s_m_source_file>  (1) 
generated__ligand_DiffSBDD_2026-05-06_prepared.sdf

>  <GenAI_Model>  (1) 
DiffSBDD

>  <Protein>  (1) 
generic_title2

$$$$
DiffSBDD_33_num_sample_50
     RDKit          3D

  0  0  0  0  0  0  0  0  0  0999 V3000
M  V30 BEGIN CTAB
M  V30 COUNTS 69 72 0 0 1
M  V30 BEGIN ATOM
M  V30 1 O 7.920974 5.369311 -9.536296 0
M  V30 2 C 5.631305 4.469989 -12.137954 0
M  V30 3 O 9.831446 5.554293 -11.534910 0
M  V30 4 C 8.460937 4.441261 -13.193530 0
M  V30 5 C 10.377345 5.339786 -16.979349 0
M  V30 6 C 8.234839 1.920259 -15.437230 0
M  V30 7 C 5.374543 6.283829 -17.356407 0
M  V30 8 C 9.861087 6.788332 -9.496625 0
M  V30 9 N 6.196431 3.559660 -13.069327 0
M  V30 10 C 6.394128 6.278409 -16.204336 0
M  V30 11 C 7.120691 5.319915 -18.924881 0
M  V30 12 C 7.440307 3.161893 -15.085247 0
M  V30 13 N 6.379024 4.441738 -10.935057 0
M  V30 14 C 6.057811 6.414918 -18.728479 0 CFG=1
M  V30 15 N 14.227562 5.609310 -16.949917 0 CHG=1
M  V30 16 C 8.148982 5.328187 -17.806519 0
M  V30 17 C 9.828949 6.874636 -11.018425 0 CFG=2
M  V30 18 C 8.608298 4.990947 -11.818874 0
M  V30 19 C 14.525412 6.938147 -17.536249 0
M  V30 20 C 15.223649 5.233002 -15.921533 0
M  V30 21 N 9.402219 5.369313 -18.045813 0
M  V30 22 C 7.554798 5.273505 -16.389609 0 CFG=2
M  V30 23 F 8.849043 7.651644 -11.487449 0
M  V30 24 C 5.028537 6.417294 -19.866881 0
M  V30 25 C 7.653743 4.928209 -10.816524 0
M  V30 26 O 7.034839 3.975296 -16.176533 0
M  V30 27 C 9.237110 5.475670 -9.030464 0
M  V30 28 C 12.841033 5.489107 -16.438695 0
M  V30 29 C 11.786991 5.477174 -17.556023 0
M  V30 30 C 6.747093 1.830880 -15.359115 0
M  V30 31 C 7.389502 3.772662 -13.714493 0
M  V30 32 F 9.527639 4.569300 -13.990363 0
M  V30 33 H 4.613038 4.169305 -11.923863 0
M  V30 34 H 5.605479 5.480006 -12.549724 0
M  V30 35 H 10.221898 6.169292 -16.290959 0
M  V30 36 H 10.298669 4.407828 -16.415157 0
M  V30 37 H 8.700707 1.881064 -16.419710 0
M  V30 38 H 8.742912 1.369291 -14.649444 0
M  V30 39 H 4.667192 7.100939 -17.209693 0
M  V30 40 H 4.789093 5.369304 -17.335232 0
M  V30 41 H 10.891793 6.821571 -9.143543 0
M  V30 42 H 9.353528 7.646694 -9.055080 0
M  V30 43 H 5.515265 3.008226 -13.570049 0
M  V30 44 H 5.881036 6.072765 -15.263948 0
M  V30 45 H 6.795336 7.284695 -16.097580 0
M  V30 46 H 7.624647 5.453774 -19.883682 0
M  V30 47 H 6.576429 7.369313 -18.757092 0
M  V30 48 H 10.741675 7.363656 -11.357480 0
M  V30 49 H 5.818367 4.439295 -10.090776 0
M  V30 50 H 14.331944 7.736740 -16.818700 0
M  V30 51 H 15.569847 7.001197 -17.842330 0
M  V30 52 H 13.923591 7.127820 -18.423923 0
M  V30 53 H 15.204399 5.939109 -15.091693 0
M  V30 54 H 15.027852 4.234889 -15.525417 0
M  V30 55 H 16.230959 5.228389 -16.339103 0
M  V30 56 H 8.283998 5.537489 -15.639271 0
M  V30 57 H 4.463377 5.484986 -19.895091 0
M  V30 58 H 4.317208 7.234271 -19.741811 0
M  V30 59 H 5.510725 6.546864 -20.836249 0
M  V30 60 H 9.834797 4.601599 -9.293218 0
M  V30 61 H 9.175131 5.477009 -7.942071 0
M  V30 62 H 12.639212 6.286134 -15.720856 0
M  V30 63 H 12.750204 4.550413 -15.891684 0
M  V30 64 H 11.982828 4.654140 -18.244419 0
M  V30 65 H 11.832681 6.395855 -18.140893 0
M  V30 66 H 6.340535 1.261542 -14.524964 0
M  V30 67 H 6.233718 1.690728 -16.307515 0
M  V30 68 H 14.317376 4.931540 -17.694157 0
M  V30 69 H 6.649457 4.337243 -18.954622 0
M  V30 END ATOM
M  V30 BEGIN BOND
M  V30 1 1 9 2
M  V30 2 1 10 7
M  V30 3 1 12 6
M  V30 4 1 13 2
M  V30 5 1 14 7
M  V30 6 1 14 11
M  V30 7 1 16 11
M  V30 8 1 17 3
M  V30 9 1 17 8
M  V30 10 1 18 3
M  V30 11 1 18 4
M  V30 12 1 19 15
M  V30 13 1 20 15
M  V30 14 1 21 5
M  V30 15 2 21 16
M  V30 16 1 22 10
M  V30 17 1 22 16
M  V30 18 1 23 17
M  V30 19 1 24 14
M  V30 20 1 25 1
M  V30 21 1 25 13
M  V30 22 2 25 18
M  V30 23 1 26 12
M  V30 24 1 26 22
M  V30 25 1 27 1
M  V30 26 1 27 8
M  V30 27 1 28 15
M  V30 28 1 29 5
M  V30 29 1 29 28
M  V30 30 1 30 6
M  V30 31 1 30 12
M  V30 32 2 31 4
M  V30 33 1 31 9
M  V30 34 1 31 12
M  V30 35 1 32 4
M  V30 36 1 33 2
M  V30 37 1 34 2
M  V30 38 1 35 5
M  V30 39 1 36 5
M  V30 40 1 37 6
M  V30 41 1 38 6
M  V30 42 1 39 7
M  V30 43 1 40 7
M  V30 44 1 41 8
M  V30 45 1 42 8
M  V30 46 1 43 9
M  V30 47 1 44 10
M  V30 48 1 45 10
M  V30 49 1 46 11
M  V30 50 1 14 47 CFG=1
M  V30 51 1 17 48 CFG=3
M  V30 52 1 49 13
M  V30 53 1 50 19
M  V30 54 1 51 19
M  V30 55 1 52 19
M  V30 56 1 53 20
M  V30 57 1 54 20
M  V30 58 1 55 20
M  V30 59 1 22 56 CFG=1
M  V30 60 1 57 24
M  V30 61 1 58 24
M  V30 62 1 59 24
M  V30 63 1 60 27
M  V30 64 1 61 27
M  V30 65 1 62 28
M  V30 66 1 63 28
M  V30 67 1 64 29
M  V30 68 1 65 29
M  V30 69 1 66 30
M  V30 70 1 67 30
M  V30 71 1 68 15
M  V30 72 1 69 11
M  V30 END BOND
M  V30 END CTAB
M  END
>  <i_epik_Tot_Q>  (1) 
1

>  <i_epik_Tot_abs_Q>  (1) 
1

>  <i_i_glide_confnum>  (1) 
20

>  <i_i_glide_lignum>  (1) 
85

>  <i_i_glide_posenum>  (1) 
290

>  <i_i_glide_rotatable_bonds>  (1) 
7

>  <i_lp_mmshare_version>  (1) 
72125

>  <i_m_source_file_index>  (1) 
34

>  <i_f3d_flags>  (1) 
0

>  <num_sample>  (1) 
50

>  <b_lp_Chiralities_Consistent>  (1) 
1

>  <r_epik_Charging_Adjusted_Penalty>  (1) 
0.41789118993368612

>  <r_epik_Ionization_Penalty>  (1) 
0.0076682513750627552

>  <r_epik_Ionization_Penalty_Charging>  (1) 
0.0072113509810821487

>  <r_epik_Ionization_Penalty_Neutral>  (1) 
0.0004569003939806066

>  <r_epik_State_Penalty>  (1) 
0.41067983895260396

>  <r_glide_ring_energy>  (1) 
0

>  <r_i_docking_score>  (1) 
-3.629426734771799

>  <r_i_glide_ecoul>  (1) 
-0.23237415462210448

>  <r_i_glide_eff_state_penalty>  (1) 
0.41067983895260396

>  <r_i_glide_einternal>  (1) 
3.2542144049770116

>  <r_i_glide_emodel>  (1) 
-40.051129395737888

>  <r_i_glide_emodel_strain>  (1) 
1.2292525940917471

>  <r_i_glide_energy>  (1) 
-31.403481145968637

>  <r_i_glide_erotb>  (1) 
0.58078846603177925

>  <r_i_glide_esite>  (1) 
-0.12958744409091266

>  <r_i_glide_evdw>  (1) 
-31.171106991346534

>  <r_i_glide_gscore>  (1) 
-4.0401065737244028

>  <r_i_glide_gscore_strain>  (1) 
0

>  <r_i_glide_hbond>  (1) 
-0.17758347851009768

>  <r_i_glide_ligand_efficiency>  (1) 
-0.11341958546161872

>  <r_i_glide_ligand_efficiency_ln>  (1) 
-0.8127275803516244

>  <r_i_glide_ligand_efficiency_sa>  (1) 
-0.36008473855114137

>  <r_i_glide_lipo>  (1) 
-1.7959530118314919

>  <r_i_glide_metal>  (1) 
-0

>  <r_i_glide_rewards>  (1) 
-0.92435963256303721

>  <r_lp_Energy>  (1) 
47.505379999999995

>  <r_lp_tautomer_probability>  (1) 
0.49999519497573586

>  <s_epik_Chemistry_Notes>  (1) 
This compound has an imine and may undergo hydrolysis. This compound contains an acetal/aminal-like group ( X-CH(R)-Y where X, Y are N, S, or O) that may be acid/base labile, releasing an aldehyde.

>  <s_epik_cmdline>  (1) 
J2VwaWtfcHl0aG9uJywgJy1waHQnLCAnMS4wJywgJy1waCcsICc3LjQnLCAnLXRuJywgJzgnLCAnLW1hJywgJzUwMCcsICctaW1hZScsICc8aW5maWxlLm1hZT4nLCAnLW9tYWUnLCAnPG91dGZpbGUubWFlPic=

>  <s_epik_input>  (1) 
TzFbQ0BASF0oRilbQ0gyXVtDSDJdT0MoW0NAQEhdMTIpPU5bQ0gyXVtOSF1DKD1DMkYpQzMoW0NIMl1bQ0gyXTMpT1tDQEBIXShbQ0gyXVtDSDJdW0NAQEhdNFtDSDNdKUMoPVtDSF00KVtOSF1bQ0gyXVtDSDJdW0NIMl1OKFtDSDNdKVtDSDNd

>  <s_glide_docking_method>  (1) 
confgen

>  <s_i_glide_gridfile>  (1) 
gpcr_drd2_6luq_protein_autoprepared_prepared

>  <s_lp_Force_Field>  (1) 
S-OPLS

>  <s_lp_Variant>  (1) 
DiffSBDD_33_num_sample_50-3

>  <s_m_source_file>  (1) 
generated__ligand_DiffSBDD_2026-05-06_prepared.sdf

>  <GenAI_Model>  (1) 
DiffSBDD

>  <Protein>  (1) 
generic_title2

$$$$
DiffSBDD_1_num_sample_50
     RDKit          3D

  0  0  0  0  0  0  0  0  0  0999 V3000
M  V30 BEGIN CTAB
M  V30 COUNTS 72 77 0 0 1
M  V30 BEGIN ATOM
M  V30 1 N 7.740590 5.191361 -14.765307 0
M  V30 2 C 12.154263 7.801419 -10.132138 0
M  V30 3 C 6.849165 1.228536 -17.905001 0
M  V30 4 O 6.691920 -1.092714 -17.273027 0
M  V30 5 C 7.418422 6.487553 -12.829211 0
M  V30 6 O 5.912391 6.383002 -15.670734 0
M  V30 7 C 6.841598 3.700012 -18.527670 0
M  V30 8 C 7.607586 3.765537 -14.989758 0
M  V30 9 C 5.749070 -1.034624 -16.198863 0
M  V30 10 C 6.455633 -0.098477 -18.185087 0
M  V30 11 C 7.914075 7.055018 -11.506851 0
M  V30 12 C 9.658687 5.774613 -8.860867 0
M  V30 13 C 9.544761 5.419198 -13.168163 0
M  V30 14 C 5.872420 1.957400 -20.014724 0
M  V30 15 O 4.243638 -2.023652 -18.931133 0
M  V30 16 C 6.533040 2.276771 -18.812114 0
M  V30 17 C 5.961634 6.823621 -13.206822 0 CFG=2
M  V30 18 C 5.735978 7.364488 -14.646348 0
M  V30 19 N 9.295946 6.719844 -11.182588 0
M  V30 20 C 8.068342 3.294060 -16.356013 0 CFG=2
M  V30 21 O 5.442553 -1.685656 -19.681414 0
M  V30 22 C 8.202252 5.693314 -13.591159 0
M  V30 23 C 7.490034 4.171599 -17.441184 0
M  V30 24 C 5.524945 0.628590 -20.307293 0
M  V30 25 C 9.630269 6.220925 -7.394383 0
M  V30 26 C 7.256190 6.075010 -15.781807 0 CFG=2
M  V30 27 O 5.411838 7.751456 -12.291121 0
M  V30 28 C 10.766483 8.381267 -8.000830 0 CFG=1
M  V30 29 S 7.724702 1.559716 -16.429694 0
M  V30 30 C 10.032492 5.934321 -12.045881 0
M  V30 31 C 5.802580 -0.397146 -19.392955 0
M  V30 32 C 10.770451 8.068737 -9.528647 0 CFG=2
M  V30 33 C 7.680562 5.652955 -17.215563 0
M  V30 34 C 9.699218 6.996755 -9.798844 0 CFG=2
M  V30 35 C 10.809768 7.141589 -7.094397 0
M  V30 36 C 11.840803 9.369544 -7.592400 0
M  V30 37 H 12.634761 6.969340 -9.645965 0
M  V30 38 H 12.092846 7.600613 -11.198767 0
M  V30 39 H 12.810699 8.664166 -10.028899 0
M  V30 40 H 6.473525 4.412179 -19.251730 0
M  V30 41 H 6.554612 3.515798 -14.847454 0
M  V30 42 H 8.151271 3.218723 -14.217774 0
M  V30 43 H 5.834520 -1.897671 -15.556441 0
M  V30 44 H 5.885794 -0.167588 -15.556609 0
M  V30 45 H 4.718502 -1.008404 -16.552445 0
M  V30 46 H 7.780136 8.137116 -11.491492 0
M  V30 47 H 7.287908 6.568991 -10.765180 0
M  V30 48 H 8.765854 5.181366 -9.064609 0
M  V30 49 H 10.507889 5.127263 -9.018906 0
M  V30 50 H 10.182815 4.812535 -13.792986 0
M  V30 51 H 5.631812 2.738914 -20.719250 0
M  V30 52 H 4.626035 -2.384577 -18.143758 0
M  V30 53 H 5.387746 5.904094 -13.085855 0
M  V30 54 H 6.382628 8.218478 -14.830426 0
M  V30 55 H 4.734997 7.770283 -14.761341 0
M  V30 56 H 9.150988 3.403642 -16.415047 0
M  V30 57 H 5.034959 0.399588 -21.232547 0
M  V30 58 H 8.688710 6.732158 -7.181739 0
M  V30 59 H 9.665714 5.369292 -6.726367 0
M  V30 60 H 7.809201 6.969360 -15.491918 0
M  V30 61 H 4.475289 7.622121 -12.245594 0
M  V30 62 H 9.812348 8.871608 -7.795823 0
M  V30 63 H 11.034839 5.769302 -11.751395 0
M  V30 64 H 10.412896 8.968839 -10.024051 0
M  V30 65 H 8.746467 5.849012 -17.333355 0
M  V30 66 H 7.153319 6.262642 -17.949806 0
M  V30 67 H 8.865805 7.547296 -9.410596 0
M  V30 68 H 10.767322 7.440397 -6.044820 0
M  V30 69 H 11.748647 6.607131 -7.228736 0
M  V30 70 H 12.832355 8.915805 -7.585254 0
M  V30 71 H 11.834835 10.169300 -8.325997 0
M  V30 72 H 11.654978 9.789947 -6.602853 0
M  V30 END ATOM
M  V30 BEGIN BOND
M  V30 1 1 8 1
M  V30 2 1 9 4
M  V30 3 1 10 3
M  V30 4 1 10 4
M  V30 5 1 11 5
M  V30 6 2 16 3
M  V30 7 1 16 7
M  V30 8 1 16 14
M  V30 9 1 17 5
M  V30 10 1 18 6
M  V30 11 1 18 17
M  V30 12 1 19 11
M  V30 13 1 20 8
M  V30 14 1 21 15
M  V30 15 1 22 1
M  V30 16 2 22 5
M  V30 17 1 22 13
M  V30 18 2 23 7
M  V30 19 1 23 20
M  V30 20 2 24 14
M  V30 21 1 25 12
M  V30 22 1 26 1
M  V30 23 1 26 6
M  V30 24 1 27 17
M  V30 25 1 29 3
M  V30 26 1 29 20
M  V30 27 2 30 13
M  V30 28 1 30 19
M  V30 29 2 31 10
M  V30 30 1 31 21
M  V30 31 1 31 24
M  V30 32 1 32 2
M  V30 33 1 32 28
M  V30 34 1 33 23
M  V30 35 1 33 26
M  V30 36 1 34 12
M  V30 37 1 34 19
M  V30 38 1 34 32
M  V30 39 1 35 25
M  V30 40 1 35 28
M  V30 41 1 36 28
M  V30 42 1 37 2
M  V30 43 1 38 2
M  V30 44 1 39 2
M  V30 45 1 40 7
M  V30 46 1 41 8
M  V30 47 1 42 8
M  V30 48 1 43 9
M  V30 49 1 44 9
M  V30 50 1 45 9
M  V30 51 1 46 11
M  V30 52 1 47 11
M  V30 53 1 48 12
M  V30 54 1 49 12
M  V30 55 1 50 13
M  V30 56 1 51 14
M  V30 57 1 52 15
M  V30 58 1 17 53 CFG=3
M  V30 59 1 54 18
M  V30 60 1 55 18
M  V30 61 1 20 56 CFG=1
M  V30 62 1 57 24
M  V30 63 1 58 25
M  V30 64 1 59 25
M  V30 65 1 26 60 CFG=1
M  V30 66 1 61 27
M  V30 67 1 28 62 CFG=1
M  V30 68 1 63 30
M  V30 69 1 32 64 CFG=3
M  V30 70 1 65 33
M  V30 71 1 66 33
M  V30 72 1 34 67 CFG=1
M  V30 73 1 68 35
M  V30 74 1 69 35
M  V30 75 1 70 36
M  V30 76 1 71 36
M  V30 77 1 72 36
M  V30 END BOND
M  V30 END CTAB
M  END
>  <i_epik_Tot_Q>  (1) 
0

>  <i_epik_Tot_abs_Q>  (1) 
0

>  <i_i_glide_confnum>  (1) 
2

>  <i_i_glide_lignum>  (1) 
4

>  <i_i_glide_posenum>  (1) 
279

>  <i_i_glide_rotatable_bonds>  (1) 
5

>  <i_lp_mmshare_version>  (1) 
72125

>  <i_m_source_file_index>  (1) 
2

>  <i_f3d_flags>  (1) 
0

>  <num_sample>  (1) 
50

>  <b_lp_Chiralities_Consistent>  (1) 
1

>  <r_epik_Charging_Adjusted_Penalty>  (1) 
1.7947178929853217e-12

>  <r_epik_Ionization_Penalty>  (1) 
2.2136665369831182e-05

>  <r_epik_Ionization_Penalty_Charging>  (1) 
1.7947178929853217e-12

>  <r_epik_Ionization_Penalty_Neutral>  (1) 
2.2136663575113287e-05

>  <r_epik_State_Penalty>  (1) 
-0

>  <r_glide_ring_energy>  (1) 
0

>  <r_i_docking_score>  (1) 
-3.6252396816582122

>  <r_i_glide_ecoul>  (1) 
-2.080700091460725

>  <r_i_glide_eff_state_penalty>  (1) 
-0

>  <r_i_glide_einternal>  (1) 
2.8719291860838538

>  <r_i_glide_emodel>  (1) 
-24.493552089849448

>  <r_i_glide_emodel_strain>  (1) 
6.1299421169872659

>  <r_i_glide_energy>  (1) 
-23.404420996036272

>  <r_i_glide_erotb>  (1) 
0.15600053340392078

>  <r_i_glide_esite>  (1) 
-0.064921257672683003

>  <r_i_glide_evdw>  (1) 
-21.323720904575548

>  <r_i_glide_gscore>  (1) 
-3.6252396816582122

>  <r_i_glide_gscore_strain>  (1) 
0.53248552924681647

>  <r_i_glide_hbond>  (1) 
0

>  <r_i_glide_ligand_efficiency>  (1) 
-0.10070110226828367

>  <r_i_glide_ligand_efficiency_ln>  (1) 
-0.79092935588029234

>  <r_i_glide_ligand_efficiency_sa>  (1) 
-0.33250771357337044

>  <r_i_glide_lipo>  (1) 
-1.9913302451090522

>  <r_i_glide_metal>  (1) 
-0

>  <r_i_glide_rewards>  (1) 
-0.87918318257932793

>  <r_lp_Energy>  (1) 
70.104143999999991

>  <r_lp_tautomer_probability>  (1) 
1

>  <s_epik_Chemistry_Notes>  (1) 
This compound has an imine and may undergo hydrolysis. This compound contains an acetal/aminal-like group ( X-CH(R)-Y where X, Y are N, S, or O) that may be acid/base labile, releasing an aldehyde.

>  <s_epik_cmdline>  (1) 
J2VwaWtfcHl0aG9uJywgJy1waHQnLCAnMS4wJywgJy1waCcsICc3LjQnLCAnLXRuJywgJzgnLCAnLW1hJywgJzUwMCcsICctaW1hZScsICc8aW5maWxlLm1hZT4nLCAnLW9tYWUnLCAnPG91dGZpbGUubWFlPic=

>  <s_epik_input>  (1) 
W0NIMl0xW0NIMl1bQ0gyXVtDQEBIXShbQ0BIXShbQ0gzXSlbQ0BASF0xW0NIM10pTihbQ0hdPVtDSF0yKVtDSDJdQyg9QzJOMzQpW0NAQEhdKFtPSF0pW0NIMl1PW0NAQEhdNFtDSDJdQzVbQ0BASF0oW0NIMl0zKVNjNmMoW0NIXT01KVtjSF1bY0hdYyhPW09IXSljNk9bQ0gzXQ==

>  <s_glide_docking_method>  (1) 
confgen

>  <s_i_glide_gridfile>  (1) 
gpcr_drd2_6luq_protein_autoprepared_prepared

>  <s_lp_Force_Field>  (1) 
S-OPLS

>  <s_lp_Variant>  (1) 
DiffSBDD_1_num_sample_50-1

>  <s_m_source_file>  (1) 
generated__ligand_DiffSBDD_2026-05-06_prepared.sdf

>  <GenAI_Model>  (1) 
DiffSBDD

>  <Protein>  (1) 
generic_title2

$$$$
DiffSBDD_31_num_sample_50
     RDKit          3D

  0  0  0  0  0  0  0  0  0  0999 V3000
M  V30 BEGIN CTAB
M  V30 COUNTS 71 76 0 0 1
M  V30 BEGIN ATOM
M  V30 1 C 10.496471 5.091002 -21.553588 0
M  V30 2 C 8.091680 5.924812 -20.321268 0
M  V30 3 C 8.060279 4.677848 -8.506890 0
M  V30 4 C 6.287114 6.881071 -12.691280 0
M  V30 5 C 7.822044 5.652223 -11.202342 0
M  V30 6 C 7.476421 4.624130 -16.264344 0
M  V30 7 C 9.462268 7.482578 -10.532049 0 CFG=2
M  V30 8 C 5.660347 6.618350 -20.620231 0
M  V30 9 F 11.648132 4.690591 -22.143173 0
M  V30 10 C 9.371272 4.247768 -21.563981 0
M  V30 11 C 6.808995 6.366344 -19.655954 0
M  V30 12 C 7.519390 4.993143 -13.681564 0
M  V30 13 C 5.827942 7.113115 -16.462950 0
M  V30 14 C 5.399498 6.159682 -17.582259 0
M  V30 15 C 7.713691 5.294921 -17.625637 0
M  V30 16 C 8.172890 4.661734 -20.950711 0
M  V30 17 F 8.850453 8.453574 -11.214092 0
M  V30 18 C 10.425619 6.349656 -20.930632 0
M  V30 19 C 9.229145 6.767021 -20.317143 0
M  V30 20 C 8.721414 5.765652 -8.944314 0
M  V30 21 N 6.504538 5.624879 -18.396784 0
M  V30 22 C 6.052445 7.437348 -14.090071 0
M  V30 23 C 10.853168 7.212355 -11.102459 0
M  V30 24 C 7.613479 6.126495 -12.637359 0 CFG=1
M  V30 25 O 10.870479 6.580036 -12.361383 0
M  V30 26 C 6.287824 7.778797 -19.891959 0
M  V30 27 C 6.726168 3.728622 -13.374313 0
M  V30 28 C 8.634852 6.240532 -10.273493 0
M  V30 29 C 9.681053 7.870633 -8.978938 0 CFG=2
M  V30 30 O 10.875772 8.569442 -8.677433 0
M  V30 31 C 8.231503 3.671848 -13.417699 0
M  V30 32 C 7.375692 5.628498 -15.092818 0 CFG=2
M  V30 33 N 6.111340 6.429005 -15.164840 0 CFG=2 CHG=1
M  V30 34 C 9.570194 6.586726 -8.044615 0
M  V30 35 H 8.143476 4.364838 -7.491668 0
M  V30 36 H 7.429904 4.097602 -9.148676 0
M  V30 37 H 5.461663 6.227147 -12.403877 0
M  V30 38 H 6.291358 7.699462 -11.969230 0
M  V30 39 H 7.247317 4.793206 -10.925696 0
M  V30 40 H 6.634840 3.936346 -16.298365 0
M  V30 41 H 8.358034 4.006628 -16.111816 0
M  V30 42 H 5.863803 6.547515 -21.686373 0
M  V30 43 H 4.650286 6.333885 -20.336941 0
M  V30 44 H 9.427038 3.281382 -22.042460 0
M  V30 45 H 4.977254 7.779399 -16.312683 0
M  V30 46 H 6.634833 7.769446 -16.770909 0
M  V30 47 H 4.830126 5.369298 -17.120868 0
M  V30 48 H 4.649501 6.639955 -18.206149 0
M  V30 49 H 8.296163 4.585603 -18.213278 0
M  V30 50 H 8.350429 6.169301 -17.507963 0
M  V30 51 H 7.312803 4.009555 -20.958576 0
M  V30 52 H 11.289921 6.996704 -20.923064 0
M  V30 53 H 9.181739 7.734894 -19.840897 0
M  V30 54 H 5.083722 7.941180 -14.111944 0
M  V30 55 H 6.831096 8.169286 -14.306559 0
M  V30 56 H 11.329230 6.569349 -10.383886 0
M  V30 57 H 11.456340 8.118744 -11.091744 0
M  V30 58 H 8.417334 6.795030 -12.930565 0
M  V30 59 H 10.424616 7.135231 -12.980824 0
M  V30 60 H 5.653576 8.273314 -19.162397 0
M  V30 61 H 6.902902 8.456638 -20.480244 0
M  V30 62 H 6.237617 3.627218 -12.408254 0
M  V30 63 H 6.211394 3.219830 -14.183791 0
M  V30 64 H 8.894149 8.562545 -8.685568 0
M  V30 65 H 10.850122 9.406581 -9.115800 0
M  V30 66 H 8.634836 3.085387 -14.231648 0
M  V30 67 H 8.747601 3.527707 -12.470038 0
M  V30 68 H 8.217364 6.313362 -15.200064 0
M  V30 69 H 9.093908 6.799953 -7.086251 0
M  V30 70 H 10.530850 6.094782 -7.889024 0
M  V30 71 H 5.355888 5.780615 -14.994530 0
M  V30 END ATOM
M  V30 BEGIN BOND
M  V30 1 1 9 1
M  V30 2 1 10 1
M  V30 3 1 11 2
M  V30 4 1 11 8
M  V30 5 1 14 13
M  V30 6 1 15 6
M  V30 7 1 16 2
M  V30 8 2 16 10
M  V30 9 1 7 17 CFG=3
M  V30 10 2 18 1
M  V30 11 2 19 2
M  V30 12 1 19 18
M  V30 13 2 20 3
M  V30 14 1 21 11
M  V30 15 1 21 14
M  V30 16 1 21 15
M  V30 17 1 22 4
M  V30 18 1 23 7
M  V30 19 1 24 4
M  V30 20 1 24 5
M  V30 21 1 24 12
M  V30 22 1 25 23
M  V30 23 1 26 8
M  V30 24 1 26 11
M  V30 25 1 27 12
M  V30 26 2 28 5
M  V30 27 1 28 7
M  V30 28 1 28 20
M  V30 29 1 29 7
M  V30 30 1 30 29
M  V30 31 1 31 12
M  V30 32 1 31 27
M  V30 33 1 32 6
M  V30 34 1 32 12
M  V30 35 1 33 13
M  V30 36 1 33 22
M  V30 37 1 33 32
M  V30 38 1 34 20
M  V30 39 1 34 29
M  V30 40 1 35 3
M  V30 41 1 36 3
M  V30 42 1 37 4
M  V30 43 1 38 4
M  V30 44 1 39 5
M  V30 45 1 40 6
M  V30 46 1 41 6
M  V30 47 1 42 8
M  V30 48 1 43 8
M  V30 49 1 44 10
M  V30 50 1 45 13
M  V30 51 1 46 13
M  V30 52 1 47 14
M  V30 53 1 48 14
M  V30 54 1 49 15
M  V30 55 1 50 15
M  V30 56 1 51 16
M  V30 57 1 52 18
M  V30 58 1 53 19
M  V30 59 1 54 22
M  V30 60 1 55 22
M  V30 61 1 56 23
M  V30 62 1 57 23
M  V30 63 1 24 58 CFG=3
M  V30 64 1 59 25
M  V30 65 1 60 26
M  V30 66 1 61 26
M  V30 67 1 62 27
M  V30 68 1 63 27
M  V30 69 1 29 64 CFG=1
M  V30 70 1 65 30
M  V30 71 1 66 31
M  V30 72 1 67 31
M  V30 73 1 32 68 CFG=3
M  V30 74 1 69 34
M  V30 75 1 70 34
M  V30 76 1 33 71 CFG=1
M  V30 END BOND
M  V30 END CTAB
M  END
>  <i_epik_Tot_Q>  (1) 
1

>  <i_epik_Tot_abs_Q>  (1) 
1

>  <i_i_glide_confnum>  (1) 
114

>  <i_i_glide_lignum>  (1) 
79

>  <i_i_glide_posenum>  (1) 
235

>  <i_i_glide_rotatable_bonds>  (1) 
6

>  <i_lp_mmshare_version>  (1) 
72125

>  <i_m_source_file_index>  (1) 
32

>  <i_f3d_flags>  (1) 
0

>  <num_sample>  (1) 
50

>  <b_lp_Chiralities_Consistent>  (1) 
1

>  <r_epik_Charging_Adjusted_Penalty>  (1) 
0.0036996964664751512

>  <r_epik_Ionization_Penalty>  (1) 
0.0040620325304727405

>  <r_epik_Ionization_Penalty_Charging>  (1) 
0.0036996964664751512

>  <r_epik_Ionization_Penalty_Neutral>  (1) 
0.00036233606399758918

>  <r_epik_State_Penalty>  (1) 
-0

>  <r_glide_ring_energy>  (1) 
0

>  <r_i_docking_score>  (1) 
-3.6228773421206362

>  <r_i_glide_ecoul>  (1) 
0.14402421344243432

>  <r_i_glide_eff_state_penalty>  (1) 
-0

>  <r_i_glide_einternal>  (1) 
1.8821860365497098

>  <r_i_glide_emodel>  (1) 
-23.577692091168888

>  <r_i_glide_emodel_strain>  (1) 
0.17486896020093923

>  <r_i_glide_energy>  (1) 
-21.275893517827718

>  <r_i_glide_erotb>  (1) 
0.36352394052346937

>  <r_i_glide_esite>  (1) 
-0.10000000000000001

>  <r_i_glide_evdw>  (1) 
-21.419917731270154

>  <r_i_glide_gscore>  (1) 
-3.6228773421206362

>  <r_i_glide_gscore_strain>  (1) 
0

>  <r_i_glide_hbond>  (1) 
0

>  <r_i_glide_ligand_efficiency>  (1) 
-0.1065552159447246

>  <r_i_glide_ligand_efficiency_ln>  (1) 
-0.80039522314185496

>  <r_i_glide_ligand_efficiency_sa>  (1) 
-0.34519753506220052

>  <r_i_glide_lipo>  (1) 
-1.743482369006053

>  <r_i_glide_metal>  (1) 
-0

>  <r_i_glide_rewards>  (1) 
-1.0935266590909105

>  <r_lp_Energy>  (1) 
28.935495999999997

>  <r_lp_tautomer_probability>  (1) 
1

>  <s_epik_cmdline>  (1) 
J2VwaWtfcHl0aG9uJywgJy1waHQnLCAnMS4wJywgJy1waCcsICc3LjQnLCAnLXRuJywgJzgnLCAnLW1hJywgJzUwMCcsICctaW1hZScsICc8aW5maWxlLm1hZT4nLCAnLW9tYWUnLCAnPG91dGZpbGUubWFlPic=

>  <s_epik_input>  (1) 
RmMxW2NIXVtjSF1jKFtjSF1bY0hdMSlDMihbQ0gyXVtDSDJdMilOKFtDSDJdW0NIMl0zKVtDSDJdW0NIMl1OKFtDQEhdM0M0NVtDSDJdW0NIMl01KVtDSDJdW0NIMl1bQ0BIXTQvW0NIXT1DKFxbQ0BdNihGKVtDSDJdW09IXSlDKD1bQ0gyXSlbQ0gyXVtDQEhdNltPSF0=

>  <s_glide_docking_method>  (1) 
confgen

>  <s_i_glide_gridfile>  (1) 
gpcr_drd2_6luq_protein_autoprepared_prepared

>  <s_lp_Force_Field>  (1) 
S-OPLS

>  <s_lp_Variant>  (1) 
DiffSBDD_31_num_sample_50-2

>  <s_m_source_file>  (1) 
generated__ligand_DiffSBDD_2026-05-06_prepared.sdf

>  <GenAI_Model>  (1) 
DiffSBDD

>  <Protein>  (1) 
generic_title2

$$$$
DiffSBDD_10_num_sample_50
     RDKit          3D

  0  0  0  0  0  0  0  0  0  0999 V3000
M  V30 BEGIN CTAB
M  V30 COUNTS 73 74 0 0 1
M  V30 BEGIN ATOM
M  V30 1 C 6.187970 7.269817 -22.151849 0 CFG=2
M  V30 2 C 8.094335 4.153909 -11.662455 0
M  V30 3 C 7.794559 3.008835 -14.759818 0
M  V30 4 C 8.550655 3.394119 -18.315965 0 CFG=1
M  V30 5 C 5.962143 6.071521 -21.211555 0 CFG=2
M  V30 6 N 5.861757 4.881140 -12.234401 0
M  V30 7 N 8.684656 4.197015 -20.501139 0
M  V30 8 C 7.368767 4.524306 -20.040215 0 CFG=1
M  V30 9 S 4.664723 8.131234 -22.839681 0
M  V30 10 C 8.544109 5.461605 -11.040247 0
M  V30 11 S 3.929027 9.079413 -21.091671 0 CHG=-1
M  V30 12 C 7.267294 9.428249 -21.260943 0
M  V30 13 O 9.434855 7.825235 -7.091092 0
M  V30 14 O 5.093017 9.195589 -23.760437 0
M  V30 15 C 6.252888 5.843257 -22.684144 0 CFG=2
M  V30 16 C 6.528687 0.806400 -14.265985 0
M  V30 17 C 9.537264 3.948850 -19.354330 0 CFG=1
M  V30 18 N 9.034842 6.569283 -8.871577 0 CHG=1
M  V30 19 N 6.509607 2.706953 -12.721701 0
M  V30 20 C 8.788419 5.278117 -9.535136 0
M  V30 21 C 7.187286 5.522404 -17.678625 0
M  V30 22 C 7.427512 8.168153 -22.118070 0
M  V30 23 C 4.634872 5.710999 -20.564355 0
M  V30 24 C 9.125003 3.292945 -16.889215 0
M  V30 25 C 6.921421 2.225074 -13.833170 0
M  V30 26 O 7.565743 5.427210 -23.018402 0
M  V30 27 C 6.868546 3.941011 -12.185514 0
M  V30 28 O 3.660758 7.147914 -23.276195 0
M  V30 29 F 10.084727 5.099782 -18.962845 0
M  V30 30 N 5.624825 0.169302 -13.281886 0 CHG=1
M  V30 31 C 9.158402 6.480023 -7.407297 0
M  V30 32 C 7.274636 4.232172 -18.523435 0 CFG=2
M  V30 33 O 7.059550 5.860934 -20.316968 0
M  V30 34 C 8.234838 2.518738 -15.935822 0
M  V30 35 H 8.821151 3.353330 -11.668823 0
M  V30 36 H 8.061608 4.004077 -14.438190 0
M  V30 37 H 8.316300 2.376485 -18.635295 0
M  V30 38 H 5.978432 5.808165 -11.847034 0
M  V30 39 H 9.050612 4.915879 -21.110945 0
M  V30 40 H 6.680865 3.873423 -20.581977 0
M  V30 41 H 7.800933 6.242447 -11.202360 0
M  V30 42 H 9.454656 5.792407 -11.540805 0
M  V30 43 H 8.229181 9.911134 -21.092034 0
M  V30 44 H 6.614521 10.159719 -21.737098 0
M  V30 45 H 6.836075 9.179289 -20.291708 0
M  V30 46 H 8.686805 8.169456 -6.622276 0
M  V30 47 H 5.480835 5.451328 -23.342215 0
M  V30 48 H 6.026665 0.833779 -15.233587 0
M  V30 49 H 7.425850 0.193666 -14.363880 0
M  V30 50 H 10.344235 3.254348 -19.589796 0
M  V30 51 H 8.197021 7.144620 -9.078132 0
M  V30 52 H 9.628437 4.603778 -9.361393 0
M  V30 53 H 7.908203 4.822419 -9.077775 0
M  V30 54 H 8.046652 6.169511 -17.849622 0
M  V30 55 H 6.288223 6.091833 -17.915797 0
M  V30 56 H 7.144834 5.296463 -16.613788 0
M  V30 57 H 8.271715 7.596926 -21.732825 0
M  V30 58 H 7.687848 8.452044 -23.138240 0
M  V30 59 H 3.826785 5.755432 -21.285831 0
M  V30 60 H 4.650535 4.698884 -20.162694 0
M  V30 61 H 4.421605 6.400419 -19.747638 0
M  V30 62 H 9.346470 4.281897 -16.485366 0
M  V30 63 H 10.080241 2.769256 -16.934718 0
M  V30 64 H 7.825523 5.873269 -23.810011 0
M  V30 65 H 5.435493 -0.812112 -13.493086 0
M  V30 66 H 6.054928 0.230270 -12.370513 0
M  V30 67 H 9.984725 5.831680 -7.113405 0
M  V30 68 H 8.234854 6.139220 -6.936552 0
M  V30 69 H 6.386342 3.627648 -18.337686 0
M  V30 70 H 7.959285 1.523112 -16.246013 0
M  V30 71 H 4.953283 4.667993 -12.615938 0
M  V30 72 H 9.851573 7.019153 -9.255026 0
M  V30 73 H 4.754660 0.679182 -13.256548 0
M  V30 END ATOM
M  V30 BEGIN BOND
M  V30 1 1 5 1
M  V30 2 1 8 7
M  V30 3 1 9 1
M  V30 4 1 10 2
M  V30 5 1 11 9
M  V30 6 2 14 9
M  V30 7 1 15 1
M  V30 8 1 15 5
M  V30 9 1 17 4
M  V30 10 1 17 7
M  V30 11 1 20 10
M  V30 12 1 20 18
M  V30 13 1 1 22 CFG=1
M  V30 14 1 22 12
M  V30 15 1 23 5
M  V30 16 1 24 4
M  V30 17 1 25 3
M  V30 18 1 25 16
M  V30 19 2 25 19
M  V30 20 1 26 15
M  V30 21 2 27 2
M  V30 22 1 27 6
M  V30 23 1 27 19
M  V30 24 2 28 9
M  V30 25 1 29 17
M  V30 26 1 30 16
M  V30 27 1 31 13
M  V30 28 1 31 18
M  V30 29 1 32 4
M  V30 30 1 32 8
M  V30 31 1 32 21
M  V30 32 1 5 33 CFG=1
M  V30 33 1 33 8
M  V30 34 2 34 3
M  V30 35 1 34 24
M  V30 36 1 35 2
M  V30 37 1 36 3
M  V30 38 1 4 37 CFG=3
M  V30 39 1 38 6
M  V30 40 1 39 7
M  V30 41 1 8 40 CFG=3
M  V30 42 1 41 10
M  V30 43 1 42 10
M  V30 44 1 43 12
M  V30 45 1 44 12
M  V30 46 1 45 12
M  V30 47 1 46 13
M  V30 48 1 15 47 CFG=3
M  V30 49 1 48 16
M  V30 50 1 49 16
M  V30 51 1 17 50 CFG=3
M  V30 52 1 51 18
M  V30 53 1 52 20
M  V30 54 1 53 20
M  V30 55 1 54 21
M  V30 56 1 55 21
M  V30 57 1 56 21
M  V30 58 1 57 22
M  V30 59 1 58 22
M  V30 60 1 59 23
M  V30 61 1 60 23
M  V30 62 1 61 23
M  V30 63 1 62 24
M  V30 64 1 63 24
M  V30 65 1 64 26
M  V30 66 1 65 30
M  V30 67 1 66 30
M  V30 68 1 67 31
M  V30 69 1 68 31
M  V30 70 1 32 69 CFG=3
M  V30 71 1 70 34
M  V30 72 1 71 6
M  V30 73 1 72 18
M  V30 74 1 73 30
M  V30 END BOND
M  V30 END CTAB
M  END
>  <i_epik_Tot_Q>  (1) 
1

>  <i_epik_Tot_abs_Q>  (1) 
3

>  <i_i_glide_confnum>  (1) 
2249

>  <i_i_glide_lignum>  (1) 
30

>  <i_i_glide_posenum>  (1) 
34

>  <i_i_glide_rotatable_bonds>  (1) 
15

>  <i_lp_mmshare_version>  (1) 
72125

>  <i_m_source_file_index>  (1) 
11

>  <i_f3d_flags>  (1) 
0

>  <num_sample>  (1) 
50

>  <b_lp_Chiralities_Consistent>  (1) 
1

>  <r_epik_Charging_Adjusted_Penalty>  (1) 
2.168687317063887

>  <r_epik_Ionization_Penalty>  (1) 
1.1047352072338965

>  <r_epik_Ionization_Penalty_Charging>  (1) 
1.0999234457570315

>  <r_epik_Ionization_Penalty_Neutral>  (1) 
0.0048117614768649203

>  <r_epik_State_Penalty>  (1) 
1.0687638713068555

>  <r_glide_ring_energy>  (1) 
0

>  <r_i_docking_score>  (1) 
-3.6154152037970224

>  <r_i_glide_ecoul>  (1) 
-11.898222702376938

>  <r_i_glide_eff_state_penalty>  (1) 
1.0687638713068555

>  <r_i_glide_einternal>  (1) 
6.866846088617045

>  <r_i_glide_emodel>  (1) 
-56.120863175825207

>  <r_i_glide_emodel_strain>  (1) 
0.02966403243391369

>  <r_i_glide_energy>  (1) 
-41.262287184700142

>  <r_i_glide_erotb>  (1) 
0.82219216958862984

>  <r_i_glide_esite>  (1) 
-0.24495589708448309

>  <r_i_glide_evdw>  (1) 
-29.364064482323204

>  <r_i_glide_gscore>  (1) 
-4.6841790751038781

>  <r_i_glide_gscore_strain>  (1) 
0

>  <r_i_glide_hbond>  (1) 
-0.37088576964730202

>  <r_i_glide_ligand_efficiency>  (1) 
-0.10633574128814771

>  <r_i_glide_ligand_efficiency_ln>  (1) 
-0.79874662748027836

>  <r_i_glide_ligand_efficiency_sa>  (1) 
-0.34448652237467275

>  <r_i_glide_lipo>  (1) 
-1.098311436173641

>  <r_i_glide_metal>  (1) 
-0

>  <r_i_glide_rewards>  (1) 
-0.53928151231438104

>  <r_lp_Energy>  (1) 
21.193534

>  <s_epik_Chemistry_Notes>  (1) 
This compound has an imine and may undergo hydrolysis. This compound contains an acetal/aminal-like group ( X-CH(R)-Y where X, Y are N, S, or O) that may be acid/base labile, releasing an aldehyde.

>  <s_epik_cmdline>  (1) 
J2VwaWtfcHl0aG9uJywgJy1waHQnLCAnMS4wJywgJy1waCcsICc3LjQnLCAnLXRuJywgJzgnLCAnLW1hJywgJzUwMCcsICctaW1hZScsICc8aW5maWxlLm1hZT4nLCAnLW9tYWUnLCAnPG91dGZpbGUubWFlPic=

>  <s_epik_input>  (1) 
W1NIXVMoPU8pKD1PKVtDQEBdMShbQ0gyXVtDSDNdKVtDQEBdKFtDSDNdKShbQ0BASF0xW09IXSlPW0NASF0oW0NAQEhdMltDSDNdKVtOSF1bQ0BASF0oRilbQ0BIXTJbQ0gyXVxbQ0hdPVtDSF1cQyhbQ0gyXVtOSDJdKT1OL0MoPU4vW0hdKS9bQ0gyXVtDSDJdW0NIMl1bTkhdW0NIMl1bT0hd

>  <s_glide_docking_method>  (1) 
confgen

>  <s_i_glide_gridfile>  (1) 
gpcr_drd2_6luq_protein_autoprepared_prepared

>  <s_lp_Force_Field>  (1) 
S-OPLS

>  <s_lp_Variant>  (1) 
DiffSBDD_10_num_sample_50-10

>  <s_m_source_file>  (1) 
generated__ligand_DiffSBDD_2026-05-06_prepared.sdf

>  <GenAI_Model>  (1) 
DiffSBDD

>  <Protein>  (1) 
generic_title2

$$$$
DiffSBDD_47_num_sample_50
     RDKit          3D

  0  0  0  0  0  0  0  0  0  0999 V3000
M  V30 BEGIN CTAB
M  V30 COUNTS 61 63 0 0 1
M  V30 BEGIN ATOM
M  V30 1 C 11.954781 1.037200 -19.070558 0
M  V30 2 C 5.162851 4.221296 -12.616165 0
M  V30 3 O 5.434904 3.853235 -10.291713 0
M  V30 4 N 9.137325 3.210875 -17.689466 0
M  V30 5 C 6.436598 6.820660 -17.576693 0
M  V30 6 O 9.074953 1.970608 -16.868650 0
M  V30 7 N 10.555981 0.111893 -20.280066 0
M  V30 8 C 7.651210 4.442968 -16.144298 0
M  V30 9 C 5.915449 4.351084 -11.454077 0
M  V30 10 C 6.071047 7.948011 -15.335914 0
M  V30 11 O 9.370747 5.497986 -17.392163 0
M  V30 12 C 7.691175 5.463993 -12.725469 0
M  V30 13 C 6.899676 5.294123 -13.921462 0
M  V30 14 C 13.835857 2.694636 -19.233498 0
M  V30 15 O 7.846282 5.158129 -10.312412 0
M  V30 16 N 11.909915 0.220648 -20.088355 0
M  V30 17 F 9.722304 5.756055 -13.857000 0
M  V30 18 C 9.061699 4.303136 -16.747868 0 CFG=2
M  V30 19 C 9.070523 6.154919 -12.772963 0
M  V30 20 C 13.256800 1.493046 -18.479634 0
M  V30 21 C 5.646403 4.685929 -13.824999 0
M  V30 22 C 10.137121 5.759020 -11.742909 0
M  V30 23 N 9.762934 0.814485 -19.411769 0
M  V30 24 C 7.162322 4.990699 -11.482857 0
M  V30 25 C 10.746862 5.665931 -17.708215 0
M  V30 26 C 10.662692 1.398814 -18.664844 0
M  V30 27 C 6.275378 6.610421 -16.049868 0
M  V30 28 C 8.860922 7.673023 -12.685195 0
M  V30 29 C 10.286776 2.338691 -17.551021 0 CFG=1
M  V30 30 C 7.382343 5.748884 -15.327607 0 CFG=2
M  V30 31 H 4.192540 3.769314 -12.580920 0
M  V30 32 H 5.809932 4.248411 -9.513317 0
M  V30 33 H 7.434769 7.112959 -17.891669 0
M  V30 34 H 5.745749 7.585797 -17.933835 0
M  V30 35 H 6.187253 5.920987 -18.138276 0
M  V30 36 H 6.919688 4.299480 -16.935013 0
M  V30 37 H 7.522066 3.566369 -15.507829 0
M  V30 38 H 6.968049 8.565453 -15.372278 0
M  V30 39 H 5.811910 7.769289 -14.291297 0
M  V30 40 H 5.257637 8.521125 -15.781414 0
M  V30 41 H 14.783638 3.008206 -18.795674 0
M  V30 42 H 13.155773 3.546244 -19.203778 0
M  V30 43 H 14.015319 2.450213 -20.280894 0
M  V30 44 H 7.629160 5.990363 -9.898305 0
M  V30 45 H 9.779837 4.169200 -15.936697 0
M  V30 46 H 13.980705 0.677010 -18.502895 0
M  V30 47 H 13.137447 1.744492 -17.425666 0
M  V30 48 H 5.053059 4.569290 -14.691675 0
M  V30 49 H 9.951273 6.161921 -10.748276 0
M  V30 50 H 11.105624 6.168973 -12.034751 0
M  V30 51 H 10.234832 4.674207 -11.682482 0
M  V30 52 H 10.887158 6.594163 -18.258348 0
M  V30 53 H 11.127697 4.866744 -18.343842 0
M  V30 54 H 11.353259 5.711319 -16.802755 0
M  V30 55 H 10.165446 -0.453403 -21.020621 0
M  V30 56 H 5.314161 6.108180 -15.993433 0
M  V30 57 H 8.359838 7.931959 -11.751059 0
M  V30 58 H 8.234772 8.047220 -13.491321 0
M  V30 59 H 9.808346 8.209402 -12.691663 0
M  V30 60 H 11.116806 2.638672 -16.916003 0
M  V30 61 H 8.247720 6.392833 -15.306525 0
M  V30 END ATOM
M  V30 BEGIN BOND
M  V30 1 1 6 4
M  V30 2 2 9 2
M  V30 3 1 9 3
M  V30 4 1 13 12
M  V30 5 2 16 1
M  V30 6 1 16 7
M  V30 7 1 18 4
M  V30 8 1 18 8
M  V30 9 1 18 11
M  V30 10 1 19 12
M  V30 11 1 19 17
M  V30 12 1 20 1
M  V30 13 1 20 14
M  V30 14 1 21 2
M  V30 15 2 21 13
M  V30 16 1 22 19
M  V30 17 1 23 7
M  V30 18 1 24 9
M  V30 19 2 24 12
M  V30 20 1 24 15
M  V30 21 1 25 11
M  V30 22 1 26 1
M  V30 23 2 26 23
M  V30 24 1 27 5
M  V30 25 1 27 10
M  V30 26 1 28 19
M  V30 27 1 29 4
M  V30 28 1 29 6
M  V30 29 1 29 26
M  V30 30 1 30 8
M  V30 31 1 30 13
M  V30 32 1 30 27
M  V30 33 1 31 2
M  V30 34 1 32 3
M  V30 35 1 33 5
M  V30 36 1 34 5
M  V30 37 1 35 5
M  V30 38 1 36 8
M  V30 39 1 37 8
M  V30 40 1 38 10
M  V30 41 1 39 10
M  V30 42 1 40 10
M  V30 43 1 41 14
M  V30 44 1 42 14
M  V30 45 1 43 14
M  V30 46 1 44 15
M  V30 47 1 18 45 CFG=1
M  V30 48 1 46 20
M  V30 49 1 47 20
M  V30 50 1 48 21
M  V30 51 1 49 22
M  V30 52 1 50 22
M  V30 53 1 51 22
M  V30 54 1 52 25
M  V30 55 1 53 25
M  V30 56 1 54 25
M  V30 57 1 55 7
M  V30 58 1 56 27
M  V30 59 1 57 28
M  V30 60 1 58 28
M  V30 61 1 59 28
M  V30 62 1 29 60 CFG=1
M  V30 63 1 30 61 CFG=1
M  V30 END BOND
M  V30 END CTAB
M  END
>  <i_epik_Tot_Q>  (1) 
0

>  <i_epik_Tot_abs_Q>  (1) 
0

>  <i_i_glide_confnum>  (1) 
20

>  <i_i_glide_lignum>  (1) 
114

>  <i_i_glide_posenum>  (1) 
129

>  <i_i_glide_rotatable_bonds>  (1) 
11

>  <i_lp_mmshare_version>  (1) 
72125

>  <i_m_source_file_index>  (1) 
48

>  <i_f3d_flags>  (1) 
0

>  <num_sample>  (1) 
50

>  <b_lp_Chiralities_Consistent>  (1) 
1

>  <r_epik_Charging_Adjusted_Penalty>  (1) 
0.45906188326467423

>  <r_epik_Ionization_Penalty>  (1) 
0.024085043624638366

>  <r_epik_Ionization_Penalty_Charging>  (1) 
0

>  <r_epik_Ionization_Penalty_Neutral>  (1) 
0.024085043624638366

>  <r_epik_State_Penalty>  (1) 
0.45906188326467423

>  <r_glide_ring_energy>  (1) 
0

>  <r_i_docking_score>  (1) 
-3.5958508352975302

>  <r_i_glide_ecoul>  (1) 
-6.3003280644256776

>  <r_i_glide_eff_state_penalty>  (1) 
0.45906188326467423

>  <r_i_glide_einternal>  (1) 
12.236161425692664

>  <r_i_glide_emodel>  (1) 
-17.092955638062005

>  <r_i_glide_emodel_strain>  (1) 
4.3697577607225995

>  <r_i_glide_energy>  (1) 
-18.045038384583442

>  <r_i_glide_erotb>  (1) 
0.55490112727109764

>  <r_i_glide_esite>  (1) 
-0.0015333618841259916

>  <r_i_glide_evdw>  (1) 
-11.744710320157765

>  <r_i_glide_gscore>  (1) 
-4.0549127185622043

>  <r_i_glide_gscore_strain>  (1) 
0.092439440180649868

>  <r_i_glide_hbond>  (1) 
-0.36458428447960983

>  <r_i_glide_ligand_efficiency>  (1) 
-0.11986169450991767

>  <r_i_glide_ligand_efficiency_ln>  (1) 
-0.81701648971251584

>  <r_i_glide_ligand_efficiency_sa>  (1) 
-0.37243815339992742

>  <r_i_glide_lipo>  (1) 
-1.7557967061371187

>  <r_i_glide_metal>  (1) 
-0

>  <r_i_glide_rewards>  (1) 
-1.0480542078413573

>  <r_lp_Energy>  (1) 
27.782063999999998

>  <r_lp_tautomer_probability>  (1) 
0.65234765234750614

>  <s_epik_Chemistry_Notes>  (1) 
This compound contains an acetal/aminal-like group ( X-CH(R)-Y where X, Y are N, S, or O) that may be acid/base labile, releasing an aldehyde. This compound has a N-S or N-O group and may undergo hydrolysis at high or low pH.

>  <s_epik_cmdline>  (1) 
J2VwaWtfcHl0aG9uJywgJy1waHQnLCAnMS4wJywgJy1waCcsICc3LjQnLCAnLXRuJywgJzgnLCAnLW1hJywgJzUwMCcsICctaW1hZScsICc8aW5maWxlLm1hZT4nLCAnLW9tYWUnLCAnPG91dGZpbGUubWFlPic=

>  <s_epik_input>  (1) 
W0NIM11bQ0gyXUMxPU5OPU5bQ0BIXTFbQ0BASF0yT04yW0NAQEhdKE9bQ0gzXSlbQ0gyXVtDQEBIXShbQ0hdKFtDSDNdKVtDSDNdKUMoQyhDKEYpKFtDSDNdKVtDSDNdKT1DM1tPSF0pPVtDSF1bQ0gyXUMzPU8=

>  <s_glide_docking_method>  (1) 
confgen

>  <s_i_glide_gridfile>  (1) 
gpcr_drd2_6luq_protein_autoprepared_prepared

>  <s_lp_Force_Field>  (1) 
S-OPLS

>  <s_lp_Variant>  (1) 
DiffSBDD_47_num_sample_50-1

>  <s_m_source_file>  (1) 
generated__ligand_DiffSBDD_2026-05-06_prepared.sdf

>  <GenAI_Model>  (1) 
DiffSBDD

>  <Protein>  (1) 
generic_title2

$$$$
DiffSBDD_24_num_sample_50
     RDKit          3D

  0  0  0  0  0  0  0  0  0  0999 V3000
M  V30 BEGIN CTAB
M  V30 COUNTS 85 91 0 0 1
M  V30 BEGIN ATOM
M  V30 1 N 9.646406 3.653995 -18.918303 0
M  V30 2 C 7.340779 3.321717 -12.691642 0
M  V30 3 O 8.634820 -1.400394 -18.947863 0
M  V30 4 C 11.294392 1.459217 -19.024856 0 CFG=2
M  V30 5 C 13.698620 6.658525 -19.491671 0 CFG=1
M  V30 6 C 6.935381 5.640998 -11.537273 0 CFG=2
M  V30 7 C 6.850734 -0.374490 -17.517633 0 CFG=2
M  V30 8 C 9.111458 0.785110 -17.921577 0
M  V30 9 N 14.084230 6.658232 -18.081620 0
M  V30 10 N 7.301893 0.337032 -15.201519 0 CFG=1 CHG=1
M  V30 11 C 7.073344 2.048042 -17.152601 0
M  V30 12 C 9.427368 2.827604 -20.116291 0
M  V30 13 C 12.183599 6.487057 -19.624332 0
M  V30 14 C 8.516021 1.992717 -17.620427 0
M  V30 15 C 15.497193 7.032827 -18.092029 0
M  V30 16 C 10.208012 5.001550 -19.152798 0
M  V30 17 C 13.790642 5.353923 -17.469198 0 CFG=2
M  V30 18 O 9.412278 4.002657 -16.683927 0
M  V30 19 C 5.459667 5.716567 -11.192694 0
M  V30 20 F 6.330290 -1.522429 -17.091631 0
M  V30 21 C 12.267633 5.083807 -17.566787 0
M  V30 22 C 13.259241 0.113493 -18.062211 0
M  V30 23 C 15.600295 8.309034 -18.941964 0 CFG=1
M  V30 24 C 8.076164 -1.027741 -20.199084 0
M  V30 25 C 11.742042 5.142655 -19.018811 0 CFG=2
M  V30 26 C 10.629154 1.910718 -20.335434 0
M  V30 27 F 5.834833 6.704151 -13.396521 0
M  V30 28 C 7.266168 4.832324 -12.778364 0 CFG=2
M  V30 29 C 9.249857 3.276327 -17.661978 0
M  V30 30 C 12.547536 0.619094 -19.326632 0
M  V30 31 C 8.368157 -0.549110 -17.835176 0 CFG=2
M  V30 32 C 6.602271 0.736414 -16.471451 0 CFG=1
M  V30 33 C 14.242328 5.315537 -15.996715 0
M  V30 34 S 14.293875 8.218670 -20.178120 0
M  V30 35 C 7.520340 1.160786 -14.005163 0 CFG=1
M  V30 36 O 10.450500 0.617660 -18.257849 0
M  V30 37 C 5.942562 5.560949 -12.624975 0 CFG=1
M  V30 38 Cl 15.386729 9.763548 -17.932217 0
M  V30 39 C 7.229596 2.649242 -14.062325 0
M  V30 40 C 6.444557 0.111263 -14.036487 0
M  V30 41 H 8.297042 3.061568 -12.235984 0
M  V30 42 H 6.553445 2.962358 -12.028692 0
M  V30 43 H 11.648951 2.287629 -18.417397 0
M  V30 44 H 14.213983 5.849450 -20.012746 0
M  V30 45 H 7.490991 6.569303 -11.423257 0
M  V30 46 H 6.291037 -0.122187 -18.417640 0
M  V30 47 H 6.888503 2.935487 -16.558223 0
M  V30 48 H 6.468139 2.214841 -18.044920 0
M  V30 49 H 9.304915 3.452364 -21.001267 0
M  V30 50 H 8.492292 2.270417 -20.086732 0
M  V30 51 H 11.672812 7.314091 -19.127516 0
M  V30 52 H 11.904537 6.535292 -20.677524 0
M  V30 53 H 15.895642 7.189420 -17.091733 0
M  V30 54 H 16.077705 6.232598 -18.554116 0
M  V30 55 H 9.918902 5.325930 -20.152709 0
M  V30 56 H 9.722118 5.729922 -18.500183 0
M  V30 57 H 14.322411 4.574202 -18.016975 0
M  V30 58 H 5.034843 4.846872 -10.697268 0
M  V30 59 H 5.054824 6.678872 -10.884042 0
M  V30 60 H 12.052399 4.111736 -17.125795 0
M  V30 61 H 11.731272 5.813925 -16.957952 0
M  V30 62 H 14.166694 -0.433988 -18.318920 0
M  V30 63 H 12.620651 -0.561624 -17.491664 0
M  V30 64 H 13.539992 0.939158 -17.407538 0
M  V30 65 H 16.575226 8.388514 -19.422750 0
M  V30 66 H 8.523778 -1.636415 -20.984448 0
M  V30 67 H 8.262978 0.015699 -20.442867 0
M  V30 68 H 7.001732 -1.207485 -20.225976 0
M  V30 69 H 12.217760 4.347894 -19.593689 0
M  V30 70 H 10.340954 1.051750 -20.941576 0
M  V30 71 H 11.368869 2.454463 -20.924155 0
M  V30 72 H 7.997387 5.275223 -13.452831 0
M  V30 73 H 12.279746 -0.230456 -19.954824 0
M  V30 74 H 13.250365 1.216902 -19.908099 0
M  V30 75 H 8.824194 -1.060206 -16.986358 0
M  V30 76 H 5.528018 0.817885 -16.302437 0
M  V30 77 H 13.938683 4.382200 -15.522481 0
M  V30 78 H 13.801974 6.132157 -15.423245 0
M  V30 79 H 15.325207 5.378947 -15.895148 0
M  V30 80 H 8.480297 0.887449 -13.569877 0
M  V30 81 H 7.967208 3.113981 -14.713162 0
M  V30 82 H 6.235069 2.828321 -14.467650 0
M  V30 83 H 5.407598 0.408538 -14.180113 0
M  V30 84 H 6.634701 -0.873747 -13.615247 0
M  V30 85 H 7.942478 -0.439826 -15.295603 0
M  V30 END ATOM
M  V30 BEGIN BOND
M  V30 1 1 9 5
M  V30 2 1 12 1
M  V30 3 1 13 5
M  V30 4 2 14 8
M  V30 5 1 14 11
M  V30 6 1 15 9
M  V30 7 1 16 1
M  V30 8 1 17 9
M  V30 9 1 19 6
M  V30 10 1 20 7
M  V30 11 1 21 17
M  V30 12 1 23 15
M  V30 13 1 24 3
M  V30 14 1 25 13
M  V30 15 1 25 16
M  V30 16 1 25 21
M  V30 17 1 26 4
M  V30 18 1 26 12
M  V30 19 1 28 2
M  V30 20 1 28 6
M  V30 21 1 29 1
M  V30 22 1 29 14
M  V30 23 2 29 18
M  V30 24 1 30 4
M  V30 25 1 30 22
M  V30 26 1 31 3
M  V30 27 1 31 7
M  V30 28 1 31 8
M  V30 29 1 32 7
M  V30 30 1 32 10
M  V30 31 1 32 11
M  V30 32 1 33 17
M  V30 33 1 34 5
M  V30 34 1 34 23
M  V30 35 1 35 10
M  V30 36 1 36 4
M  V30 37 1 36 8
M  V30 38 1 37 6
M  V30 39 1 37 19
M  V30 40 1 37 27 CFG=3
M  V30 41 1 37 28
M  V30 42 1 38 23
M  V30 43 1 39 2
M  V30 44 1 39 35
M  V30 45 1 40 10
M  V30 46 1 40 35
M  V30 47 1 41 2
M  V30 48 1 42 2
M  V30 49 1 4 43 CFG=1
M  V30 50 1 5 44 CFG=3
M  V30 51 1 6 45 CFG=3
M  V30 52 1 7 46 CFG=3
M  V30 53 1 47 11
M  V30 54 1 48 11
M  V30 55 1 49 12
M  V30 56 1 50 12
M  V30 57 1 51 13
M  V30 58 1 52 13
M  V30 59 1 53 15
M  V30 60 1 54 15
M  V30 61 1 55 16
M  V30 62 1 56 16
M  V30 63 1 17 57 CFG=3
M  V30 64 1 58 19
M  V30 65 1 59 19
M  V30 66 1 60 21
M  V30 67 1 61 21
M  V30 68 1 62 22
M  V30 69 1 63 22
M  V30 70 1 64 22
M  V30 71 1 23 65 CFG=3
M  V30 72 1 66 24
M  V30 73 1 67 24
M  V30 74 1 68 24
M  V30 75 1 25 69 CFG=3
M  V30 76 1 70 26
M  V30 77 1 71 26
M  V30 78 1 28 72 CFG=3
M  V30 79 1 73 30
M  V30 80 1 74 30
M  V30 81 1 31 75 CFG=1
M  V30 82 1 32 76 CFG=1
M  V30 83 1 77 33
M  V30 84 1 78 33
M  V30 85 1 79 33
M  V30 86 1 35 80 CFG=1
M  V30 87 1 81 39
M  V30 88 1 82 39
M  V30 89 1 83 40
M  V30 90 1 84 40
M  V30 91 1 10 85 CFG=3
M  V30 END BOND
M  V30 END CTAB
M  END
>  <i_epik_Tot_Q>  (1) 
1

>  <i_epik_Tot_abs_Q>  (1) 
1

>  <i_i_glide_confnum>  (1) 
50

>  <i_i_glide_lignum>  (1) 
65

>  <i_i_glide_posenum>  (1) 
342

>  <i_i_glide_rotatable_bonds>  (1) 
8

>  <i_lp_mmshare_version>  (1) 
72125

>  <i_m_source_file_index>  (1) 
25

>  <i_f3d_flags>  (1) 
0

>  <num_sample>  (1) 
50

>  <b_lp_Chiralities_Consistent>  (1) 
1

>  <r_epik_Charging_Adjusted_Penalty>  (1) 
0.63439585009227506

>  <r_epik_Ionization_Penalty>  (1) 
0.31719815469996288

>  <r_epik_Ionization_Penalty_Charging>  (1) 
0.31719792504613759

>  <r_epik_Ionization_Penalty_Neutral>  (1) 
2.2965382529121371e-07

>  <r_epik_State_Penalty>  (1) 
0.31719792504613753

>  <r_glide_ring_energy>  (1) 
0

>  <r_i_docking_score>  (1) 
-3.5772688956592043

>  <r_i_glide_ecoul>  (1) 
-1.6136134417081323

>  <r_i_glide_eff_state_penalty>  (1) 
0.31719792504613753

>  <r_i_glide_einternal>  (1) 
5.8196160310600558

>  <r_i_glide_emodel>  (1) 
-42.254105951087993

>  <r_i_glide_emodel_strain>  (1) 
0.91979909649239744

>  <r_i_glide_energy>  (1) 
-36.979620158574221

>  <r_i_glide_erotb>  (1) 
0.23102689348128655

>  <r_i_glide_esite>  (1) 
-0.0024000529085580024

>  <r_i_glide_evdw>  (1) 
-35.366006716866089

>  <r_i_glide_gscore>  (1) 
-3.8944668207053419

>  <r_i_glide_gscore_strain>  (1) 
0

>  <r_i_glide_hbond>  (1) 
0

>  <r_i_glide_ligand_efficiency>  (1) 
-0.089431722391480103

>  <r_i_glide_ligand_efficiency_ln>  (1) 
-0.76292618112000621

>  <r_i_glide_ligand_efficiency_sa>  (1) 
-0.30585218831859756

>  <r_i_glide_lipo>  (1) 
-1.6333053673699094

>  <r_i_glide_metal>  (1) 
-0

>  <r_i_glide_rewards>  (1) 
-0.47944594180863731

>  <r_lp_Energy>  (1) 
53.388234999999995

>  <s_epik_Chemistry_Notes>  (1) 
This compound contains an acetal/aminal-like group ( X-CH(R)-Y where X, Y are N, S, or O) that may be acid/base labile, releasing an aldehyde.

>  <s_epik_cmdline>  (1) 
J2VwaWtfcHl0aG9uJywgJy1waHQnLCAnMS4wJywgJy1waCcsICc3LjQnLCAnLXRuJywgJzgnLCAnLW1hJywgJzUwMCcsICctaW1hZScsICc8aW5maWxlLm1hZT4nLCAnLW9tYWUnLCAnPG91dGZpbGUubWFlPic=

>  <s_epik_input>  (1) 
UzFbQ0BASF0oQ2wpW0NIMl1OKFtDQEhdMTIpW0NAQEhdKFtDSDNdKVtDSDJdW0NASF0oW0NIMl0yKVtDSDJdTihbQ0gyXVtDSDJdW0NAQEhdKE8zKVtDSDJdW0NIM10pQyg9TylDKD1DMzQpW0NIMl1bQ0BASF0oW0NASF0oRilbQ0BIXTRPW0NIM10pTjVbQ0BIXShbQ0gyXTUpW0NIMl1bQ0gyXVtDQEBIXTZbQ0hdKFtDSDJdNylDNjdG

>  <s_glide_docking_method>  (1) 
confgen

>  <s_i_glide_gridfile>  (1) 
gpcr_drd2_6luq_protein_autoprepared_prepared

>  <s_lp_Force_Field>  (1) 
S-OPLS

>  <s_lp_Variant>  (1) 
DiffSBDD_24_num_sample_50-2

>  <s_m_source_file>  (1) 
generated__ligand_DiffSBDD_2026-05-06_prepared.sdf

>  <GenAI_Model>  (1) 
DiffSBDD

>  <Protein>  (1) 
generic_title2

$$$$
DiffSBDD_2_num_sample_50
     RDKit          3D

  0  0  0  0  0  0  0  0  0  0999 V3000
M  V30 BEGIN CTAB
M  V30 COUNTS 54 57 0 0 1
M  V30 BEGIN ATOM
M  V30 1 C 9.214990 7.908037 -11.004728 0 CFG=1
M  V30 2 C 7.791250 5.192733 -10.114939 0
M  V30 3 O 9.536642 5.268845 -8.635915 0 CHG=-1
M  V30 4 C 8.277926 4.174979 -15.607398 0
M  V30 5 O 6.682118 0.395374 -17.192222 0
M  V30 6 C 7.483451 1.210699 -17.799016 0
M  V30 7 C 13.513443 8.569761 -11.080203 0
M  V30 8 C 6.540376 -0.012122 -15.949091 0
M  V30 9 C 12.911207 8.367104 -9.677486 0
M  V30 10 O 6.283826 0.212195 -13.705696 0 CHG=-1
M  V30 11 C 7.940606 2.331643 -17.297245 0
M  V30 12 C 9.186391 4.369865 -17.836980 0
M  V30 13 C 6.634818 0.736278 -14.789241 0
M  V30 14 C 7.337485 6.568040 -12.085219 0
M  V30 15 N 9.434901 7.066086 -9.836823 0 CFG=1 CHG=1
M  V30 16 C 9.262719 5.597873 -9.872543 0 CFG=2
M  V30 17 C 11.392614 8.584055 -9.571556 0
M  V30 18 C 8.959045 4.877860 -16.523123 0
M  V30 19 C 6.287448 4.386713 -11.857961 0
M  V30 20 N 7.468612 5.209872 -11.542719 0
M  V30 21 C 7.105398 2.107067 -14.797289 0
M  V30 22 C 6.360044 3.911224 -13.304486 0
M  V30 23 N 7.014013 2.741472 -13.520091 0
M  V30 24 C 8.717308 3.176735 -18.204331 0
M  V30 25 C 7.701721 2.822446 -15.893454 0
M  V30 26 C 10.610697 7.649869 -10.483423 0 CFG=2
M  V30 27 O 5.834826 4.574876 -14.198941 0
M  V30 28 C 8.712624 7.218037 -12.256641 0
M  V30 29 H 8.677335 8.801430 -10.691477 0
M  V30 30 H 7.080022 5.769282 -9.528046 0
M  V30 31 H 7.678820 4.169333 -9.760992 0
M  V30 32 H 8.188484 4.608042 -14.638030 0
M  V30 33 H 7.665461 0.898739 -18.816590 0
M  V30 34 H 14.580976 8.347913 -11.068479 0
M  V30 35 H 13.434846 9.599815 -11.418877 0
M  V30 36 H 13.034846 7.951473 -11.840620 0
M  V30 37 H 6.184455 -1.031199 -15.931540 0
M  V30 38 H 13.140321 7.369326 -9.347759 0
M  V30 39 H 13.427227 8.989861 -8.952958 0
M  V30 40 H 9.750839 4.960212 -18.543899 0
M  V30 41 H 6.895437 6.544242 -13.079302 0
M  V30 42 H 6.657524 7.178757 -11.491671 0
M  V30 43 H 9.834966 5.173541 -10.698189 0
M  V30 44 H 11.084891 8.426770 -8.536778 0
M  V30 45 H 11.161017 9.617524 -9.808159 0
M  V30 46 H 9.363603 5.840566 -16.253462 0
M  V30 47 H 5.368502 4.947361 -11.678613 0
M  V30 48 H 6.235120 3.502145 -11.222577 0
M  V30 49 H 7.281322 2.187502 -12.719101 0
M  V30 50 H 8.910493 2.829014 -19.208893 0
M  V30 51 H 11.193894 6.917691 -11.029481 0
M  V30 52 H 8.631388 7.987145 -13.023742 0
M  V30 53 H 9.443953 6.502113 -12.633647 0
M  V30 54 H 9.071685 7.509797 -9.006684 0
M  V30 END ATOM
M  V30 BEGIN BOND
M  V30 1 1 6 5
M  V30 2 1 8 5
M  V30 3 1 9 7
M  V30 4 2 11 6
M  V30 5 2 13 8
M  V30 6 1 13 10
M  V30 7 1 15 1
M  V30 8 1 16 2
M  V30 9 1 16 3
M  V30 10 1 16 15
M  V30 11 1 17 9
M  V30 12 2 18 4
M  V30 13 1 18 12
M  V30 14 1 20 2
M  V30 15 1 20 14
M  V30 16 1 20 19
M  V30 17 1 21 13
M  V30 18 1 22 19
M  V30 19 1 23 21
M  V30 20 1 23 22
M  V30 21 1 24 11
M  V30 22 2 24 12
M  V30 23 1 25 4
M  V30 24 1 25 11
M  V30 25 2 25 21
M  V30 26 1 26 1
M  V30 27 1 26 15
M  V30 28 1 26 17
M  V30 29 2 27 22
M  V30 30 1 28 1
M  V30 31 1 28 14
M  V30 32 1 1 29 CFG=1
M  V30 33 1 30 2
M  V30 34 1 31 2
M  V30 35 1 32 4
M  V30 36 1 33 6
M  V30 37 1 34 7
M  V30 38 1 35 7
M  V30 39 1 36 7
M  V30 40 1 37 8
M  V30 41 1 38 9
M  V30 42 1 39 9
M  V30 43 1 40 12
M  V30 44 1 41 14
M  V30 45 1 42 14
M  V30 46 1 16 43 CFG=3
M  V30 47 1 44 17
M  V30 48 1 45 17
M  V30 49 1 46 18
M  V30 50 1 47 19
M  V30 51 1 48 19
M  V30 52 1 49 23
M  V30 53 1 50 24
M  V30 54 1 26 51 CFG=3
M  V30 55 1 52 28
M  V30 56 1 53 28
M  V30 57 1 15 54 CFG=1
M  V30 END BOND
M  V30 END CTAB
M  END
>  <i_epik_Tot_Q>  (1) 
-1

>  <i_epik_Tot_abs_Q>  (1) 
3

>  <i_i_glide_confnum>  (1) 
10

>  <i_i_glide_lignum>  (1) 
6

>  <i_i_glide_posenum>  (1) 
285

>  <i_i_glide_rotatable_bonds>  (1) 
6

>  <i_lp_mmshare_version>  (1) 
72125

>  <i_m_source_file_index>  (1) 
3

>  <i_f3d_flags>  (1) 
0

>  <num_sample>  (1) 
50

>  <b_lp_Chiralities_Consistent>  (1) 
1

>  <r_epik_Charging_Adjusted_Penalty>  (1) 
0.20824401478555332

>  <r_epik_Ionization_Penalty>  (1) 
0.10900575238268746

>  <r_epik_Ionization_Penalty_Charging>  (1) 
0.10898275236366674

>  <r_epik_Ionization_Penalty_Neutral>  (1) 
2.3000019020727684e-05

>  <r_epik_State_Penalty>  (1) 
0.099261262421886584

>  <r_glide_ring_energy>  (1) 
0

>  <r_i_docking_score>  (1) 
-3.5766605707491892

>  <r_i_glide_ecoul>  (1) 
-0.91951774141309928

>  <r_i_glide_eff_state_penalty>  (1) 
0.099261262421886584

>  <r_i_glide_einternal>  (1) 
7.4599560629282777

>  <r_i_glide_emodel>  (1) 
-30.482730332256683

>  <r_i_glide_emodel_strain>  (1) 
0.39802325834642716

>  <r_i_glide_energy>  (1) 
-28.700724199458104

>  <r_i_glide_erotb>  (1) 
0.52616126561579779

>  <r_i_glide_esite>  (1) 
-0.1421429567839948

>  <r_i_glide_evdw>  (1) 
-27.781206458045006

>  <r_i_glide_gscore>  (1) 
-3.6759218331710759

>  <r_i_glide_gscore_strain>  (1) 
0

>  <r_i_glide_hbond>  (1) 
-0.016290315302203092

>  <r_i_glide_ligand_efficiency>  (1) 
-0.12773787752675675

>  <r_i_glide_ligand_efficiency_ln>  (1) 
-0.82559827504647076

>  <r_i_glide_ligand_efficiency_sa>  (1) 
-0.38788743018855365

>  <r_i_glide_lipo>  (1) 
-1.1596268569950496

>  <r_i_glide_metal>  (1) 
-0

>  <r_i_glide_rewards>  (1) 
-1.3570349855914112

>  <r_lp_Energy>  (1) 
78.401380000000003

>  <s_epik_Chemistry_Notes>  (1) 
This compound contains an acetal/aminal-like group ( X-CH(R)-Y where X, Y are N, S, or O) that may be acid/base labile, releasing an aldehyde.

>  <s_epik_cmdline>  (1) 
J2VwaWtfcHl0aG9uJywgJy1waHQnLCAnMS4wJywgJy1waCcsICc3LjQnLCAnLXRuJywgJzgnLCAnLW1hJywgJzUwMCcsICctaW1hZScsICc8aW5maWxlLm1hZT4nLCAnLW9tYWUnLCAnPG91dGZpbGUubWFlPic=

>  <s_epik_input>  (1) 
W0NIM11bQ0gyXVtDSDJdW0NIXTFOKFtDQEBIXTEyKVtDQEBIXShbT0hdKVtDSDJdTihbQ0gyXVtDSDJdMilbQ0gyXUMoPU8pW05IXUMoQyhbT0hdKT1bQ0hdT1tDSF09Myk9YyhjMzQpW2NIXVtjSF1bY0hdW2NIXTQ=

>  <s_glide_docking_method>  (1) 
confgen

>  <s_i_glide_gridfile>  (1) 
gpcr_drd2_6luq_protein_autoprepared_prepared

>  <s_lp_Force_Field>  (1) 
S-OPLS

>  <s_lp_Variant>  (1) 
DiffSBDD_2_num_sample_50-1

>  <s_m_source_file>  (1) 
generated__ligand_DiffSBDD_2026-05-06_prepared.sdf

>  <GenAI_Model>  (1) 
DiffSBDD

>  <Protein>  (1) 
generic_title2

$$$$
DiffSBDD_4_num_sample_50
     RDKit          3D

  0  0  0  0  0  0  0  0  0  0999 V3000
M  V30 BEGIN CTAB
M  V30 COUNTS 43 44 0 0 1
M  V30 BEGIN ATOM
M  V30 1 C 5.040184 -0.479468 -17.156931 0
M  V30 2 C 5.286452 4.051833 -12.933328 0
M  V30 3 C 8.190961 6.289550 -13.746784 0
M  V30 4 C 8.828100 5.369330 -17.718265 0
M  V30 5 C 5.891283 2.646837 -13.219512 0
M  V30 6 O 5.160196 -0.214309 -18.350969 0
M  V30 7 N 6.903522 2.688569 -14.294446 0
M  V30 8 O 7.848874 1.263825 -17.565228 0
M  V30 9 C 7.295610 5.070568 -13.932756 0 CFG=2
M  V30 10 C 6.418597 5.043236 -12.694963 0 CFG=1
M  V30 11 C 6.265617 -0.612265 -16.259794 0
M  V30 12 C 7.957853 3.705566 -14.080079 0
M  V30 13 O 8.243835 7.078074 -11.491667 0
M  V30 14 C 7.603963 2.072530 -16.671549 0
M  V30 15 O 7.897441 3.375643 -16.768944 0
M  V30 16 C 6.112664 6.516607 -12.455359 0
M  V30 17 C 7.493001 7.158744 -12.681089 0 CFG=2
M  V30 18 C 6.917482 1.722254 -15.348108 0
M  V30 19 C 6.324551 0.494429 -15.206517 0
M  V30 20 C 8.545116 3.879271 -17.924022 0
M  V30 21 H 4.078580 -0.636638 -16.667856 0
M  V30 22 H 4.676907 4.379710 -13.774874 0
M  V30 23 H 4.635252 4.043433 -12.062445 0
M  V30 24 H 8.234840 6.815907 -14.697819 0
M  V30 25 H 9.207996 6.015680 -13.460662 0
M  V30 26 H 9.318331 5.799147 -18.591897 0
M  V30 27 H 9.479257 5.527583 -16.857859 0
M  V30 28 H 7.904010 5.921967 -17.546439 0
M  V30 29 H 6.340923 2.227931 -12.318543 0
M  V30 30 H 5.053438 2.006500 -13.491680 0
M  V30 31 H 6.676161 5.255246 -14.813475 0
M  V30 32 H 7.000271 4.690453 -11.840010 0
M  V30 33 H 6.122077 -1.537342 -15.714084 0
M  V30 34 H 7.182492 -0.759046 -16.825509 0
M  V30 35 H 8.452443 3.447047 -13.142024 0
M  V30 36 H 8.795871 3.769308 -14.763935 0
M  V30 37 H 7.698533 7.369363 -10.754230 0
M  V30 38 H 5.404867 6.882119 -13.199864 0
M  V30 39 H 5.696224 6.714848 -11.466580 0
M  V30 40 H 7.434248 8.202412 -12.982113 0
M  V30 41 H 5.843158 0.253744 -14.272174 0
M  V30 42 H 7.910592 3.730882 -18.798868 0
M  V30 43 H 9.477530 3.338908 -18.093285 0
M  V30 END ATOM
M  V30 BEGIN BOND
M  V30 1 1 5 2
M  V30 2 2 6 1
M  V30 3 1 7 5
M  V30 4 1 9 3
M  V30 5 1 10 2
M  V30 6 1 10 9
M  V30 7 1 11 1
M  V30 8 1 12 7
M  V30 9 1 12 9
M  V30 10 2 14 8
M  V30 11 1 15 14
M  V30 12 1 16 10
M  V30 13 1 17 3
M  V30 14 1 17 13
M  V30 15 1 17 16
M  V30 16 1 18 7
M  V30 17 1 18 14
M  V30 18 1 19 11
M  V30 19 2 19 18
M  V30 20 1 20 4
M  V30 21 1 20 15
M  V30 22 1 21 1
M  V30 23 1 22 2
M  V30 24 1 23 2
M  V30 25 1 24 3
M  V30 26 1 25 3
M  V30 27 1 26 4
M  V30 28 1 27 4
M  V30 29 1 28 4
M  V30 30 1 29 5
M  V30 31 1 30 5
M  V30 32 1 9 31 CFG=3
M  V30 33 1 10 32 CFG=1
M  V30 34 1 33 11
M  V30 35 1 34 11
M  V30 36 1 35 12
M  V30 37 1 36 12
M  V30 38 1 37 13
M  V30 39 1 38 16
M  V30 40 1 39 16
M  V30 41 1 17 40 CFG=3
M  V30 42 1 41 19
M  V30 43 1 42 20
M  V30 44 1 43 20
M  V30 END BOND
M  V30 END CTAB
M  END
>  <i_epik_Tot_Q>  (1) 
0

>  <i_epik_Tot_abs_Q>  (1) 
0

>  <i_i_glide_confnum>  (1) 
7

>  <i_i_glide_lignum>  (1) 
13

>  <i_i_glide_posenum>  (1) 
273

>  <i_i_glide_rotatable_bonds>  (1) 
7

>  <i_lp_mmshare_version>  (1) 
72125

>  <i_m_source_file_index>  (1) 
5

>  <i_f3d_flags>  (1) 
0

>  <num_sample>  (1) 
50

>  <b_lp_Chiralities_Consistent>  (1) 
1

>  <r_epik_Charging_Adjusted_Penalty>  (1) 
0.41067984158451698

>  <r_epik_Ionization_Penalty>  (1) 
6.7674502354530413e-05

>  <r_epik_Ionization_Penalty_Charging>  (1) 
2.6319130011581777e-09

>  <r_epik_Ionization_Penalty_Neutral>  (1) 
6.7671870441529249e-05

>  <r_epik_State_Penalty>  (1) 
0.41067983895260396

>  <r_glide_ring_energy>  (1) 
0

>  <r_i_docking_score>  (1) 
-3.5688593409334697

>  <r_i_glide_ecoul>  (1) 
-4.2758495695349659

>  <r_i_glide_eff_state_penalty>  (1) 
0.41067983895260396

>  <r_i_glide_einternal>  (1) 
4.9387694756146487

>  <r_i_glide_emodel>  (1) 
-24.734639711281552

>  <r_i_glide_emodel_strain>  (1) 
1.0117095570297465

>  <r_i_glide_energy>  (1) 
-21.530769880743971

>  <r_i_glide_erotb>  (1) 
0.91336080097250838

>  <r_i_glide_esite>  (1) 
0

>  <r_i_glide_evdw>  (1) 
-17.254920311209005

>  <r_i_glide_gscore>  (1) 
-3.9795391798860735

>  <r_i_glide_gscore_strain>  (1) 
0

>  <r_i_glide_hbond>  (1) 
-0.16

>  <r_i_glide_ligand_efficiency>  (1) 
-0.17844296704667348

>  <r_i_glide_ligand_efficiency_ln>  (1) 
-0.89316778417668097

>  <r_i_glide_ligand_efficiency_sa>  (1) 
-0.48436873330895491

>  <r_i_glide_lipo>  (1) 
-0.96883473232302053

>  <r_i_glide_metal>  (1) 
-0

>  <r_i_glide_rewards>  (1) 
-2.2599417975448666

>  <r_lp_Energy>  (1) 
30.399182

>  <r_lp_tautomer_probability>  (1) 
0.5

>  <s_epik_Chemistry_Notes>  (1) 
This compound has an ester and may undergo hydrolysis at high or low pH. This compound has an imine and may undergo hydrolysis.

>  <s_epik_cmdline>  (1) 
J2VwaWtfcHl0aG9uJywgJy1waHQnLCAnMS4wJywgJy1waCcsICc3LjQnLCAnLXRuJywgJzgnLCAnLW1hJywgJzUwMCcsICctaW1hZScsICc8aW5maWxlLm1hZT4nLCAnLW9tYWUnLCAnPG91dGZpbGUubWFlPic=

>  <s_epik_input>  (1) 
W0NIM11bQ0gyXU9DKD1PKUMoPVtDSF0vW0NIMl1bQ0hdPU8pXE4oW0NIMl0xKVtDSDJdW0NIMl1bQ0BASF0oW0NASF0xMilbQ0gyXVtDQEhdKFtDSDJdMilbT0hd

>  <s_glide_docking_method>  (1) 
confgen

>  <s_i_glide_gridfile>  (1) 
gpcr_drd2_6luq_protein_autoprepared_prepared

>  <s_lp_Force_Field>  (1) 
S-OPLS

>  <s_lp_Variant>  (1) 
DiffSBDD_4_num_sample_50-2

>  <s_m_source_file>  (1) 
generated__ligand_DiffSBDD_2026-05-06_prepared.sdf

>  <GenAI_Model>  (1) 
DiffSBDD

>  <Protein>  (1) 
generic_title2

$$$$
DiffSBDD_10_num_sample_50
     RDKit          3D

  0  0  0  0  0  0  0  0  0  0999 V3000
M  V30 BEGIN CTAB
M  V30 COUNTS 71 72 0 0 1
M  V30 BEGIN ATOM
M  V30 1 C 5.986822 7.269671 -20.429356 0 CFG=2
M  V30 2 C 10.032394 6.687641 -8.938008 0
M  V30 3 C 8.879297 3.499681 -12.041717 0
M  V30 4 C 7.210616 4.324776 -15.449733 0 CFG=1
M  V30 5 C 5.522568 6.749908 -19.043329 0 CFG=2
M  V30 6 N 8.234845 5.332356 -8.074710 0
M  V30 7 N 7.874581 4.511240 -17.714558 0
M  V30 8 C 6.652756 5.243086 -17.549671 0 CFG=1
M  V30 9 S 4.952580 8.626256 -21.222427 0
M  V30 10 C 9.912254 7.794089 -7.902788 0
M  V30 11 S 4.235040 7.587624 -22.921826 0 CHG=-1
M  V30 12 C 7.707617 7.036909 -22.338515 0
M  V30 13 O 12.087942 8.570774 -4.291692 0
M  V30 14 O 3.780126 8.969419 -20.410198 0
M  V30 15 C 5.247482 5.951256 -20.304023 0 CFG=2
M  V30 16 C 7.711755 5.754320 -11.350223 0
M  V30 17 C 8.410898 4.183944 -16.404849 0 CFG=1
M  V30 18 N 10.966171 9.129242 -6.184976 0
M  V30 19 N 9.390127 4.620256 -9.956764 0
M  V30 20 C 11.187041 7.993959 -7.072078 0
M  V30 21 C 6.747660 6.880600 -15.541440 0
M  V30 22 C 7.458705 7.339275 -20.853185 0
M  V30 23 C 4.381745 7.234392 -18.155457 0
M  V30 24 C 7.560490 4.547287 -13.976007 0
M  V30 25 C 8.715368 4.628937 -11.047033 0
M  V30 26 O 6.040821 4.787148 -20.428558 0
M  V30 27 C 9.243807 5.595551 -8.972750 0
M  V30 28 O 5.838461 9.698061 -21.703768 0
M  V30 29 F 9.382467 5.053195 -16.129309 0
M  V30 30 N 6.341168 5.369692 -11.055688 0
M  V30 31 C 12.130892 9.452839 -5.385656 0
M  V30 32 C 6.377681 5.473579 -16.051452 0 CFG=2
M  V30 33 O 6.686651 6.432561 -18.273464 0
M  V30 34 C 8.367521 3.459329 -13.303657 0
M  V30 35 H 10.802259 6.811460 -9.684424 0
M  V30 36 H 9.460272 2.667686 -11.681240 0
M  V30 37 H 6.634826 3.402802 -15.523254 0
M  V30 38 H 7.873549 6.074517 -7.483384 0
M  V30 39 H 8.568451 5.059761 -18.201828 0
M  V30 40 H 5.860342 4.610247 -17.948896 0
M  V30 41 H 9.068711 7.610347 -7.236266 0
M  V30 42 H 9.666659 8.708062 -8.444513 0
M  V30 43 H 8.775573 7.029896 -22.556382 0
M  V30 44 H 7.306070 6.062334 -22.618003 0
M  V30 45 H 7.248733 7.783483 -22.986742 0
M  V30 46 H 11.342240 8.004802 -4.422330 0
M  V30 47 H 4.233242 5.848046 -20.676385 0
M  V30 48 H 7.915459 6.577816 -10.691612 0
M  V30 49 H 7.843164 6.261806 -12.291915 0
M  V30 50 H 8.848131 3.184651 -16.387690 0
M  V30 51 H 10.722408 9.927629 -6.754041 0
M  V30 52 H 12.036924 8.190981 -7.727301 0
M  V30 53 H 11.411469 7.095054 -6.496312 0
M  V30 54 H 7.819567 6.969162 -15.415005 0
M  V30 55 H 6.399277 7.683671 -16.188435 0
M  V30 56 H 6.308255 7.058260 -14.560129 0
M  V30 57 H 7.835830 8.334615 -20.628713 0
M  V30 58 H 8.051728 6.646272 -20.257351 0
M  V30 59 H 3.449435 7.370437 -18.691645 0
M  V30 60 H 4.163986 6.505761 -17.378939 0
M  V30 61 H 4.654552 8.169290 -17.674185 0
M  V30 62 H 6.626629 4.726484 -13.452024 0
M  V30 63 H 8.209252 5.415157 -13.968743 0
M  V30 64 H 6.822529 4.921292 -19.911941 0
M  V30 65 H 6.304915 5.082586 -10.086540 0
M  V30 66 H 5.795375 6.220273 -11.076297 0
M  V30 67 H 12.039191 10.475697 -5.021294 0
M  V30 68 H 13.062204 9.369634 -5.948629 0
M  V30 69 H 5.314687 5.369297 -15.854802 0
M  V30 70 H 8.551236 2.580183 -13.901022 0
M  V30 71 H 7.587458 4.579422 -8.250751 0
M  V30 END ATOM
M  V30 BEGIN BOND
M  V30 1 1 5 1
M  V30 2 1 8 7
M  V30 3 1 9 1
M  V30 4 1 10 2
M  V30 5 1 11 9
M  V30 6 2 14 9
M  V30 7 1 15 1
M  V30 8 1 15 5
M  V30 9 1 17 4
M  V30 10 1 17 7
M  V30 11 1 20 10
M  V30 12 1 20 18
M  V30 13 1 1 22 CFG=1
M  V30 14 1 22 12
M  V30 15 1 23 5
M  V30 16 1 24 4
M  V30 17 1 25 3
M  V30 18 1 25 16
M  V30 19 2 25 19
M  V30 20 1 26 15
M  V30 21 2 27 2
M  V30 22 1 27 6
M  V30 23 1 27 19
M  V30 24 2 28 9
M  V30 25 1 29 17
M  V30 26 1 30 16
M  V30 27 1 31 13
M  V30 28 1 31 18
M  V30 29 1 32 4
M  V30 30 1 32 8
M  V30 31 1 32 21
M  V30 32 1 5 33 CFG=1
M  V30 33 1 33 8
M  V30 34 2 34 3
M  V30 35 1 34 24
M  V30 36 1 35 2
M  V30 37 1 36 3
M  V30 38 1 4 37 CFG=1
M  V30 39 1 38 6
M  V30 40 1 39 7
M  V30 41 1 8 40 CFG=3
M  V30 42 1 41 10
M  V30 43 1 42 10
M  V30 44 1 43 12
M  V30 45 1 44 12
M  V30 46 1 45 12
M  V30 47 1 46 13
M  V30 48 1 15 47 CFG=3
M  V30 49 1 48 16
M  V30 50 1 49 16
M  V30 51 1 17 50 CFG=3
M  V30 52 1 51 18
M  V30 53 1 52 20
M  V30 54 1 53 20
M  V30 55 1 54 21
M  V30 56 1 55 21
M  V30 57 1 56 21
M  V30 58 1 57 22
M  V30 59 1 58 22
M  V30 60 1 59 23
M  V30 61 1 60 23
M  V30 62 1 61 23
M  V30 63 1 62 24
M  V30 64 1 63 24
M  V30 65 1 64 26
M  V30 66 1 65 30
M  V30 67 1 66 30
M  V30 68 1 67 31
M  V30 69 1 68 31
M  V30 70 1 32 69 CFG=3
M  V30 71 1 70 34
M  V30 72 1 71 6
M  V30 END BOND
M  V30 END CTAB
M  END
>  <i_epik_Tot_Q>  (1) 
-1

>  <i_epik_Tot_abs_Q>  (1) 
1

>  <i_i_glide_confnum>  (1) 
2217

>  <i_i_glide_lignum>  (1) 
39

>  <i_i_glide_posenum>  (1) 
368

>  <i_i_glide_rotatable_bonds>  (1) 
15

>  <i_lp_mmshare_version>  (1) 
72125

>  <i_m_source_file_index>  (1) 
11

>  <i_f3d_flags>  (1) 
0

>  <num_sample>  (1) 
50

>  <b_lp_Chiralities_Consistent>  (1) 
1

>  <r_epik_Charging_Adjusted_Penalty>  (1) 
1.239197207418439

>  <r_epik_Ionization_Penalty>  (1) 
1.2496715491914541

>  <r_epik_Ionization_Penalty_Charging>  (1) 
1.1069707349969355e-11

>  <r_epik_Ionization_Penalty_Neutral>  (1) 
1.2496715491803843

>  <r_epik_State_Penalty>  (1) 
1.2391972074073692

>  <r_glide_ring_energy>  (1) 
0

>  <r_i_docking_score>  (1) 
-3.5636140966739767

>  <r_i_glide_ecoul>  (1) 
-3.6072986274758576

>  <r_i_glide_eff_state_penalty>  (1) 
1.2391972074073692

>  <r_i_glide_einternal>  (1) 
11.803368589395287

>  <r_i_glide_emodel>  (1) 
-39.843631682733893

>  <r_i_glide_emodel_strain>  (1) 
2.8655933994081124

>  <r_i_glide_energy>  (1) 
-38.20212722271441

>  <r_i_glide_erotb>  (1) 
0.82803537691766171

>  <r_i_glide_esite>  (1) 
-0.04898289022578068

>  <r_i_glide_evdw>  (1) 
-34.594828595238553

>  <r_i_glide_gscore>  (1) 
-4.802811304081346

>  <r_i_glide_gscore_strain>  (1) 
0

>  <r_i_glide_hbond>  (1) 
-0.1702903365298829

>  <r_i_glide_ligand_efficiency>  (1) 
-0.10481217931394049

>  <r_i_glide_ligand_efficiency_ln>  (1) 
-0.7873023099449582

>  <r_i_glide_ligand_efficiency_sa>  (1) 
-0.33955077302305336

>  <r_i_glide_lipo>  (1) 
-1.807210182934547

>  <r_i_glide_metal>  (1) 
-0

>  <r_i_glide_rewards>  (1) 
-1.3335270474254912

>  <r_lp_Energy>  (1) 
22.583292999999998

>  <s_epik_Chemistry_Notes>  (1) 
This compound has an imine and may undergo hydrolysis. This compound contains an acetal/aminal-like group ( X-CH(R)-Y where X, Y are N, S, or O) that may be acid/base labile, releasing an aldehyde.

>  <s_epik_cmdline>  (1) 
J2VwaWtfcHl0aG9uJywgJy1waHQnLCAnMS4wJywgJy1waCcsICc3LjQnLCAnLXRuJywgJzgnLCAnLW1hJywgJzUwMCcsICctaW1hZScsICc8aW5maWxlLm1hZT4nLCAnLW9tYWUnLCAnPG91dGZpbGUubWFlPic=

>  <s_epik_input>  (1) 
W1NIXVMoPU8pKD1PKVtDQEBdMShbQ0gyXVtDSDNdKVtDQEBdKFtDSDNdKShbQ0BASF0xW09IXSlPW0NASF0oW0NAQEhdMltDSDNdKVtOSF1bQ0BASF0oRilbQ0BIXTJbQ0gyXS9bQ0hdPVtDSF1cQyhbQ0gyXVtOSDJdKT1OXEMoPU5cW0hdKVxbQ0gyXVtDSDJdW0NIMl1bTkhdW0NIMl1bT0hd

>  <s_glide_docking_method>  (1) 
confgen

>  <s_i_glide_gridfile>  (1) 
gpcr_drd2_6luq_protein_autoprepared_prepared

>  <s_lp_Force_Field>  (1) 
S-OPLS

>  <s_lp_Variant>  (1) 
DiffSBDD_10_num_sample_50-19

>  <s_m_source_file>  (1) 
generated__ligand_DiffSBDD_2026-05-06_prepared.sdf

>  <GenAI_Model>  (1) 
DiffSBDD

>  <Protein>  (1) 
generic_title2

$$$$
DiffSBDD_41_num_sample_50
     RDKit          3D

  0  0  0  0  0  0  0  0  0  0999 V3000
M  V30 BEGIN CTAB
M  V30 COUNTS 105 110 0 0 1
M  V30 BEGIN ATOM
M  V30 1 C 9.357098 4.441093 -12.984978 0
M  V30 2 C 8.072135 1.560949 -16.781163 0
M  V30 3 C 7.105467 2.661687 -16.283595 0
M  V30 4 C 6.546672 6.318798 -13.084631 0
M  V30 5 C 8.693698 3.290415 -12.814338 0
M  V30 6 O 6.796345 0.152662 -18.240648 0
M  V30 7 C 10.918329 0.082848 -21.993505 0
M  V30 8 N 10.758232 3.673661 -20.422663 0
M  V30 9 O 15.314196 1.882995 -17.929698 0
M  V30 10 C 9.417680 4.586059 -18.484491 0 CFG=2
M  V30 11 C 5.841477 6.905778 -11.847059 0
M  V30 12 O 8.221316 5.094381 -17.940139 0
M  V30 13 C 8.704733 4.994580 -20.967576 0
M  V30 14 C 12.896693 1.475436 -18.388598 0 CFG=1
M  V30 15 C 11.440592 5.249979 -23.372246 0
M  V30 16 C 13.940280 0.167506 -19.230792 0 CFG=2
M  V30 17 C 8.443331 5.526269 -16.595112 0
M  V30 18 C 8.730445 4.462117 -15.496990 0 CFG=1
M  V30 19 C 12.537756 -0.008647 -18.601073 0
M  V30 20 C 9.435006 5.173700 -14.311476 0
M  V30 21 C 15.435382 2.550699 -16.677719 0
M  V30 22 C 8.546374 -0.087482 -21.008394 0
M  V30 23 O 11.255901 1.111933 -21.062027 0
M  V30 24 C 14.874028 -0.900889 -19.784547 0
M  V30 25 C 7.638129 1.044573 -18.149287 0
M  V30 26 C 11.900444 5.293362 -21.914994 0
M  V30 27 N 12.607310 2.942907 -21.684463 0 CHG=1
M  V30 28 N 8.218894 1.615590 -19.211977 0
M  V30 29 C 9.410431 0.034507 -22.274511 0
M  V30 30 C 7.948775 2.588471 -13.926838 0 CFG=2
M  V30 31 S 12.036109 2.778403 -17.491652 0
M  V30 32 C 7.518784 3.562791 -15.076197 0 CFG=2
M  V30 33 O 6.942247 1.736040 -13.434006 0
M  V30 34 C 5.834381 5.914509 -10.651321 0
M  V30 35 F 13.612634 -1.541747 -21.682590 0
M  V30 36 C 10.321058 5.695212 -18.955083 0
M  V30 37 C 11.746733 3.923521 -21.313530 0
M  V30 38 C 12.576978 1.565466 -21.154183 0 CFG=1
M  V30 39 C 5.435743 4.560744 -11.104476 0
M  V30 40 C 5.564484 4.169307 -12.361062 0
M  V30 41 C 14.821276 -1.140632 -21.297389 0
M  V30 42 C 9.787342 4.682220 -19.948514 0 CFG=2
M  V30 43 F 15.189054 -0.057875 -21.981205 0
M  V30 44 N 6.105962 4.948701 -13.354123 0
M  V30 45 C 6.263247 4.443154 -14.706218 0
M  V30 46 C 14.257082 0.931435 -17.930970 0 CFG=1
M  V30 47 C 7.897147 1.245831 -20.583248 0
M  V30 48 C 13.440537 1.500412 -19.849575 0 CFG=1
M  V30 49 H 9.876651 4.889878 -12.150807 0
M  V30 50 H 8.065334 0.712637 -16.095406 0
M  V30 51 H 9.104677 1.896375 -16.836034 0
M  V30 52 H 6.786908 3.284289 -17.119791 0
M  V30 53 H 6.233797 2.097825 -15.983883 0
M  V30 54 H 7.592894 6.314090 -12.812280 0
M  V30 55 H 6.418698 6.963637 -13.953794 0
M  V30 56 H 8.686188 2.816761 -11.851271 0
M  V30 57 H 11.424628 0.220275 -22.950968 0
M  V30 58 H 11.243153 -0.876884 -21.592675 0
M  V30 59 H 10.666900 2.732637 -20.057276 0
M  V30 60 H 9.744871 3.705437 -17.973300 0
M  V30 61 H 4.817871 7.164141 -12.103283 0
M  V30 62 H 6.309993 7.846260 -11.557197 0
M  V30 63 H 8.805680 6.020794 -21.321883 0
M  V30 64 H 8.763707 4.324580 -21.825950 0
M  V30 65 H 7.714327 4.887434 -20.522635 0
M  V30 66 H 11.595136 6.215524 -23.853131 0
M  V30 67 H 12.002515 4.496452 -23.920922 0
M  V30 68 H 10.382842 4.998388 -23.451482 0
M  V30 69 H 7.616766 6.169965 -16.307690 0
M  V30 70 H 9.323022 6.165105 -16.608130 0
M  V30 71 H 9.493307 3.795510 -15.885272 0
M  V30 72 H 12.471900 -0.631383 -17.703837 0
M  V30 73 H 11.707530 -0.229107 -19.264007 0
M  V30 74 H 9.021188 6.167310 -14.178760 0
M  V30 75 H 10.484010 5.340657 -14.559422 0
M  V30 76 H 16.145880 3.371958 -16.762142 0
M  V30 77 H 14.502011 2.990258 -16.336048 0
M  V30 78 H 15.792218 1.870948 -15.902893 0
M  V30 79 H 7.744334 -0.800761 -21.201065 0
M  V30 80 H 9.127342 -0.530499 -20.198035 0
M  V30 81 H 15.901219 -0.665740 -19.502043 0
M  V30 82 H 14.634267 -1.832894 -19.283098 0
M  V30 83 H 13.093070 0.980620 -21.912549 0
M  V30 84 H 11.360545 6.064940 -21.371296 0
M  V30 85 H 8.894405 2.346123 -19.065716 0
M  V30 86 H 9.113636 0.895109 -22.875137 0
M  V30 87 H 9.217880 -0.830336 -22.909999 0
M  V30 88 H 8.635349 1.853875 -14.314077 0
M  V30 89 H 12.088951 2.179528 -16.296799 0
M  V30 90 H 6.363998 2.257871 -12.901643 0
M  V30 91 H 5.123769 6.242020 -9.894220 0
M  V30 92 H 6.813942 5.770825 -10.192251 0
M  V30 93 H 9.925645 6.706346 -19.031533 0
M  V30 94 H 11.365116 5.631201 -18.653972 0
M  V30 95 H 12.951616 5.579560 -21.870586 0
M  V30 96 H 5.027534 3.892809 -10.363554 0
M  V30 97 H 5.257673 3.197889 -12.691453 0
M  V30 98 H 15.517556 -1.933629 -21.572408 0
M  V30 99 H 6.002383 5.189949 -15.453962 0
M  V30 100 H 5.434858 3.770046 -14.690548 0
M  V30 101 H 14.268183 0.314478 -17.026088 0
M  V30 102 H 8.229996 2.066716 -21.217060 0
M  V30 103 H 6.814223 1.197402 -20.712558 0
M  V30 104 H 14.260111 2.214272 -19.956375 0
M  V30 105 H 13.282986 3.174396 -22.400147 0
M  V30 END ATOM
M  V30 BEGIN BOND
M  V30 1 1 3 2
M  V30 2 2 5 1
M  V30 3 1 11 4
M  V30 4 1 12 10
M  V30 5 1 17 12
M  V30 6 1 18 17
M  V30 7 1 19 14
M  V30 8 1 19 16
M  V30 9 1 20 1
M  V30 10 1 20 18
M  V30 11 1 21 9
M  V30 12 1 23 7
M  V30 13 1 16 24 CFG=3
M  V30 14 1 25 2
M  V30 15 2 25 6
M  V30 16 1 26 15
M  V30 17 1 28 25
M  V30 18 1 29 7
M  V30 19 1 29 22
M  V30 20 1 30 5
M  V30 21 1 14 31 CFG=1
M  V30 22 1 32 3
M  V30 23 1 32 18
M  V30 24 1 32 30
M  V30 25 1 33 30
M  V30 26 1 34 11
M  V30 27 1 36 10
M  V30 28 1 37 8
M  V30 29 1 37 26
M  V30 30 2 37 27
M  V30 31 1 38 23
M  V30 32 1 38 27
M  V30 33 1 39 34
M  V30 34 2 40 39
M  V30 35 1 41 24
M  V30 36 1 41 35
M  V30 37 1 42 8
M  V30 38 1 42 10
M  V30 39 1 42 13 CFG=3
M  V30 40 1 42 36
M  V30 41 1 43 41
M  V30 42 1 44 4
M  V30 43 1 44 40
M  V30 44 1 32 45 CFG=1
M  V30 45 1 45 44
M  V30 46 1 46 9
M  V30 47 1 46 14
M  V30 48 1 46 16
M  V30 49 1 47 22
M  V30 50 1 47 28
M  V30 51 1 48 14
M  V30 52 1 48 16
M  V30 53 1 48 38
M  V30 54 1 49 1
M  V30 55 1 50 2
M  V30 56 1 51 2
M  V30 57 1 52 3
M  V30 58 1 53 3
M  V30 59 1 54 4
M  V30 60 1 55 4
M  V30 61 1 56 5
M  V30 62 1 57 7
M  V30 63 1 58 7
M  V30 64 1 59 8
M  V30 65 1 10 60 CFG=1
M  V30 66 1 61 11
M  V30 67 1 62 11
M  V30 68 1 63 13
M  V30 69 1 64 13
M  V30 70 1 65 13
M  V30 71 1 66 15
M  V30 72 1 67 15
M  V30 73 1 68 15
M  V30 74 1 69 17
M  V30 75 1 70 17
M  V30 76 1 18 71 CFG=3
M  V30 77 1 72 19
M  V30 78 1 73 19
M  V30 79 1 74 20
M  V30 80 1 75 20
M  V30 81 1 76 21
M  V30 82 1 77 21
M  V30 83 1 78 21
M  V30 84 1 79 22
M  V30 85 1 80 22
M  V30 86 1 81 24
M  V30 87 1 82 24
M  V30 88 1 38 83 CFG=3
M  V30 89 1 84 26
M  V30 90 1 85 28
M  V30 91 1 86 29
M  V30 92 1 87 29
M  V30 93 1 30 88 CFG=3
M  V30 94 1 89 31
M  V30 95 1 90 33
M  V30 96 1 91 34
M  V30 97 1 92 34
M  V30 98 1 93 36
M  V30 99 1 94 36
M  V30 100 1 95 26
M  V30 101 1 96 39
M  V30 102 1 97 40
M  V30 103 1 98 41
M  V30 104 1 99 45
M  V30 105 1 100 45
M  V30 106 1 46 101 CFG=1
M  V30 107 1 102 47
M  V30 108 1 103 47
M  V30 109 1 48 104 CFG=1
M  V30 110 1 105 27
M  V30 END BOND
M  V30 END CTAB
M  END
>  <i_epik_Tot_Q>  (1) 
1

>  <i_epik_Tot_abs_Q>  (1) 
1

>  <i_i_glide_confnum>  (1) 
113

>  <i_i_glide_lignum>  (1) 
101

>  <i_i_glide_posenum>  (1) 
215

>  <i_i_glide_rotatable_bonds>  (1) 
9

>  <i_lp_mmshare_version>  (1) 
72125

>  <i_m_source_file_index>  (1) 
42

>  <i_f3d_flags>  (1) 
0

>  <num_sample>  (1) 
50

>  <b_lp_Chiralities_Consistent>  (1) 
1

>  <r_epik_Charging_Adjusted_Penalty>  (1) 
0.076842420233623365

>  <r_epik_Ionization_Penalty>  (1) 
0.078794888684849976

>  <r_epik_Ionization_Penalty_Charging>  (1) 
0.00072930087509115145

>  <r_epik_Ionization_Penalty_Neutral>  (1) 
0.078065587809758821

>  <r_epik_State_Penalty>  (1) 
0.076113119358532211

>  <r_glide_ring_energy>  (1) 
0

>  <r_i_docking_score>  (1) 
-3.5631783478849055

>  <r_i_glide_ecoul>  (1) 
-3.0867590660930744

>  <r_i_glide_eff_state_penalty>  (1) 
0.076113119358532211

>  <r_i_glide_einternal>  (1) 
11.086835615407432

>  <r_i_glide_emodel>  (1) 
-21.928680443753503

>  <r_i_glide_emodel_strain>  (1) 
2.4569922784511391

>  <r_i_glide_energy>  (1) 
-23.488408917534024

>  <r_i_glide_erotb>  (1) 
0.0035911919815773572

>  <r_i_glide_esite>  (1) 
0

>  <r_i_glide_evdw>  (1) 
-20.401649851440951

>  <r_i_glide_gscore>  (1) 
-3.6392914672434378

>  <r_i_glide_gscore_strain>  (1) 
0

>  <r_i_glide_hbond>  (1) 
-0.04148815414346247

>  <r_i_glide_ligand_efficiency>  (1) 
-0.074232882247602203

>  <r_i_glide_ligand_efficiency_ln>  (1) 
-0.73147840540885478

>  <r_i_glide_ligand_efficiency_sa>  (1) 
-0.26978019799480268

>  <r_i_glide_lipo>  (1) 
-1.6446904382709342

>  <r_i_glide_metal>  (1) 
-0

>  <r_i_glide_rewards>  (1) 
-0.47360771432460991

>  <r_lp_Energy>  (1) 
118.844916

>  <s_epik_Chemistry_Notes>  (1) 
This compound has an imine and may undergo hydrolysis. This compound contains an acetal/aminal-like group ( X-CH(R)-Y where X, Y are N, S, or O) that may be acid/base labile, releasing an aldehyde.

>  <s_epik_cmdline>  (1) 
J2VwaWtfcHl0aG9uJywgJy1waHQnLCAnMS4wJywgJy1waCcsICc3LjQnLCAnLXRuJywgJzgnLCAnLW1hJywgJzUwMCcsICctaW1hZScsICc8aW5maWxlLm1hZT4nLCAnLW9tYWUnLCAnPG91dGZpbGUubWFlPic=

>  <s_epik_input>  (1) 
W0NIXTE9W0NIXVtDSDJdW0NIMl1bQ0gyXU4xW0NIMl1bQ0BdMjNbQ0BIXShbQ0gyXVtDSF09W0NIXVtDQEhdM1tPSF0pW0NIMl1PW0NASF00W0NAQF0oW0NIM10pKFtDSDJdNClbTkhdW0NASF0oW0NIMl1bQ0gzXSkvTj1DKFtDQEBIXTVbQ0BdKFtDSDJdW0NIXShGKUYpKFtDSDJdW0NAXTU2W1NIXSlbQ0BIXTZPW0NIM10pL09bQ0gyXVtDSDJdW0NIMl1bQ0gyXVtOSF1DKD1PKVtDSDJdW0NIMl0y

>  <s_glide_docking_method>  (1) 
confgen

>  <s_i_glide_gridfile>  (1) 
gpcr_drd2_6luq_protein_autoprepared_prepared

>  <s_lp_Force_Field>  (1) 
S-OPLS

>  <s_lp_Variant>  (1) 
DiffSBDD_41_num_sample_50-1

>  <s_m_source_file>  (1) 
generated__ligand_DiffSBDD_2026-05-06_prepared.sdf

>  <GenAI_Model>  (1) 
DiffSBDD

>  <Protein>  (1) 
generic_title2

$$$$
DiffSBDD_10_num_sample_50
     RDKit          3D

  0  0  0  0  0  0  0  0  0  0999 V3000
M  V30 BEGIN CTAB
M  V30 COUNTS 71 72 0 0 1
M  V30 BEGIN ATOM
M  V30 1 C 5.294003 7.811140 -21.016681 0 CFG=2
M  V30 2 C 8.681852 3.568019 -12.422816 0
M  V30 3 C 7.816066 2.360598 -15.688023 0
M  V30 4 C 7.810218 2.915503 -19.250635 0 CFG=1
M  V30 5 C 5.394569 6.335486 -21.460991 0 CFG=2
M  V30 6 N 6.770492 4.575460 -13.501381 0
M  V30 7 N 7.535964 4.365248 -21.116423 0
M  V30 8 C 6.305448 4.332506 -20.376166 0 CFG=1
M  V30 9 S 4.219093 9.000017 -21.996509 0
M  V30 10 C 9.346569 4.870680 -12.031724 0
M  V30 11 S 5.699176 10.418067 -22.542448 0 CHG=-1
M  V30 12 C 4.206561 7.769295 -18.685624 0
M  V30 13 O 8.630646 8.275947 -11.491670 0
M  V30 14 O 3.717915 8.389032 -23.235526 0
M  V30 15 C 6.453686 7.338974 -21.876586 0 CFG=2
M  V30 16 C 6.321586 0.405096 -14.881348 0
M  V30 17 C 8.567801 3.671278 -20.358436 0 CFG=1
M  V30 18 N 9.434845 6.569309 -10.163419 0
M  V30 19 N 6.955837 2.260477 -13.417236 0
M  V30 20 C 8.692961 5.470048 -10.772034 0
M  V30 21 C 6.875173 4.987224 -17.980644 0
M  V30 22 C 5.403223 8.207718 -19.546564 0
M  V30 23 C 4.457817 5.651464 -22.444057 0
M  V30 24 C 8.687097 2.479887 -18.054135 0
M  V30 25 C 7.034831 1.725431 -14.579170 0
M  V30 26 O 7.700336 7.231019 -21.211644 0
M  V30 27 C 7.517140 3.487770 -13.089044 0
M  V30 28 O 3.297912 9.703229 -21.091702 0
M  V30 29 F 9.401082 4.582314 -19.855833 0
M  V30 30 N 5.229340 0.169300 -13.950738 0
M  V30 31 C 9.815842 7.644680 -11.067361 0
M  V30 32 C 6.602608 3.817103 -18.958684 0 CFG=2
M  V30 33 O 5.661950 5.569700 -20.280087 0
M  V30 34 C 7.902976 1.834721 -16.926385 0
M  V30 35 H 9.194838 2.660510 -12.134418 0
M  V30 36 H 8.318491 3.284473 -15.446468 0
M  V30 37 H 7.414477 2.004501 -19.703572 0
M  V30 38 H 7.045122 5.522617 -13.280480 0
M  V30 39 H 7.829730 5.332995 -21.241863 0
M  V30 40 H 5.635194 3.628631 -20.869873 0
M  V30 41 H 9.269775 5.566118 -12.868131 0
M  V30 42 H 10.408496 4.676045 -11.891670 0
M  V30 43 H 4.369145 8.047445 -17.644842 0
M  V30 44 H 3.278954 8.236910 -19.009065 0
M  V30 45 H 4.057636 6.690667 -18.705119 0
M  V30 46 H 7.964183 8.169290 -10.811863 0
M  V30 47 H 6.525724 7.637215 -22.921181 0
M  V30 48 H 5.884878 0.405479 -15.878346 0
M  V30 49 H 7.039619 -0.413518 -14.820703 0
M  V30 50 H 9.155087 3.006371 -20.992289 0
M  V30 51 H 8.840850 6.957006 -9.435157 0
M  V30 52 H 8.585557 4.695291 -10.011897 0
M  V30 53 H 7.682749 5.808362 -11.004932 0
M  V30 54 H 7.630840 5.672607 -18.364023 0
M  V30 55 H 5.970435 5.565219 -17.797942 0
M  V30 56 H 7.210311 4.642525 -17.006728 0
M  V30 57 H 6.303329 7.768841 -19.122914 0
M  V30 58 H 5.522488 9.290057 -19.491658 0
M  V30 59 H 4.515837 6.114876 -23.427369 0
M  V30 60 H 4.723186 4.604979 -22.582057 0
M  V30 61 H 3.434822 5.708033 -22.079517 0
M  V30 62 H 9.230773 3.338916 -17.657807 0
M  V30 63 H 9.443421 1.770918 -18.391895 0
M  V30 64 H 8.075209 8.099281 -21.169099 0
M  V30 65 H 5.034852 -0.832864 -13.891682 0
M  V30 66 H 5.562481 0.422282 -13.030780 0
M  V30 67 H 10.408699 7.298466 -11.913899 0
M  V30 68 H 10.421964 8.363760 -10.515746 0
M  V30 69 H 5.753308 3.230835 -18.610471 0
M  V30 70 H 7.401597 0.910491 -17.163257 0
M  V30 71 H 5.874352 4.463244 -13.951888 0
M  V30 END ATOM
M  V30 BEGIN BOND
M  V30 1 1 5 1
M  V30 2 1 8 7
M  V30 3 1 9 1
M  V30 4 1 10 2
M  V30 5 1 11 9
M  V30 6 2 14 9
M  V30 7 1 15 1
M  V30 8 1 15 5
M  V30 9 1 17 4
M  V30 10 1 17 7
M  V30 11 1 20 10
M  V30 12 1 20 18
M  V30 13 1 1 22 CFG=1
M  V30 14 1 22 12
M  V30 15 1 23 5
M  V30 16 1 24 4
M  V30 17 1 25 3
M  V30 18 1 25 16
M  V30 19 2 25 19
M  V30 20 1 26 15
M  V30 21 2 27 2
M  V30 22 1 27 6
M  V30 23 1 27 19
M  V30 24 2 28 9
M  V30 25 1 29 17
M  V30 26 1 30 16
M  V30 27 1 31 13
M  V30 28 1 31 18
M  V30 29 1 32 4
M  V30 30 1 32 8
M  V30 31 1 32 21
M  V30 32 1 5 33 CFG=1
M  V30 33 1 33 8
M  V30 34 2 34 3
M  V30 35 1 34 24
M  V30 36 1 35 2
M  V30 37 1 36 3
M  V30 38 1 4 37 CFG=3
M  V30 39 1 38 6
M  V30 40 1 39 7
M  V30 41 1 8 40 CFG=3
M  V30 42 1 41 10
M  V30 43 1 42 10
M  V30 44 1 43 12
M  V30 45 1 44 12
M  V30 46 1 45 12
M  V30 47 1 46 13
M  V30 48 1 15 47 CFG=3
M  V30 49 1 48 16
M  V30 50 1 49 16
M  V30 51 1 17 50 CFG=3
M  V30 52 1 51 18
M  V30 53 1 52 20
M  V30 54 1 53 20
M  V30 55 1 54 21
M  V30 56 1 55 21
M  V30 57 1 56 21
M  V30 58 1 57 22
M  V30 59 1 58 22
M  V30 60 1 59 23
M  V30 61 1 60 23
M  V30 62 1 61 23
M  V30 63 1 62 24
M  V30 64 1 63 24
M  V30 65 1 64 26
M  V30 66 1 65 30
M  V30 67 1 66 30
M  V30 68 1 67 31
M  V30 69 1 68 31
M  V30 70 1 32 69 CFG=1
M  V30 71 1 70 34
M  V30 72 1 71 6
M  V30 END BOND
M  V30 END CTAB
M  END
>  <i_epik_Tot_Q>  (1) 
-1

>  <i_epik_Tot_abs_Q>  (1) 
1

>  <i_i_glide_confnum>  (1) 
3108

>  <i_i_glide_lignum>  (1) 
38

>  <i_i_glide_posenum>  (1) 
238

>  <i_i_glide_rotatable_bonds>  (1) 
15

>  <i_lp_mmshare_version>  (1) 
72125

>  <i_m_source_file_index>  (1) 
11

>  <i_f3d_flags>  (1) 
0

>  <num_sample>  (1) 
50

>  <b_lp_Chiralities_Consistent>  (1) 
1

>  <r_epik_Charging_Adjusted_Penalty>  (1) 
1.239197207418439

>  <r_epik_Ionization_Penalty>  (1) 
1.2496715491914541

>  <r_epik_Ionization_Penalty_Charging>  (1) 
1.1069707349969355e-11

>  <r_epik_Ionization_Penalty_Neutral>  (1) 
1.2496715491803843

>  <r_epik_State_Penalty>  (1) 
1.2391972074073692

>  <r_glide_ring_energy>  (1) 
0

>  <r_i_docking_score>  (1) 
-3.56108867360361

>  <r_i_glide_ecoul>  (1) 
-9.6432298339895937

>  <r_i_glide_eff_state_penalty>  (1) 
1.2391972074073692

>  <r_i_glide_einternal>  (1) 
9.2759771711243122

>  <r_i_glide_emodel>  (1) 
-47.362604333431733

>  <r_i_glide_emodel_strain>  (1) 
1.7375096255225486

>  <r_i_glide_energy>  (1) 
-43.673260567116237

>  <r_i_glide_erotb>  (1) 
0.82803537691766171

>  <r_i_glide_esite>  (1) 
-0.068471454291697043

>  <r_i_glide_evdw>  (1) 
-34.030030733126644

>  <r_i_glide_gscore>  (1) 
-4.8002858810109794

>  <r_i_glide_gscore_strain>  (1) 
0

>  <r_i_glide_hbond>  (1) 
-0.3800213829585618

>  <r_i_glide_ligand_efficiency>  (1) 
-0.10473790216481206

>  <r_i_glide_ligand_efficiency_ln>  (1) 
-0.78674437315299639

>  <r_i_glide_ligand_efficiency_sa>  (1) 
-0.33931014389417169

>  <r_i_glide_lipo>  (1) 
-1.5605367382887543

>  <r_i_glide_metal>  (1) 
-0

>  <r_i_glide_rewards>  (1) 
-0.47130567063485596

>  <r_lp_Energy>  (1) 
21.684180999999999

>  <s_epik_Chemistry_Notes>  (1) 
This compound has an imine and may undergo hydrolysis. This compound contains an acetal/aminal-like group ( X-CH(R)-Y where X, Y are N, S, or O) that may be acid/base labile, releasing an aldehyde.

>  <s_epik_cmdline>  (1) 
J2VwaWtfcHl0aG9uJywgJy1waHQnLCAnMS4wJywgJy1waCcsICc3LjQnLCAnLXRuJywgJzgnLCAnLW1hJywgJzUwMCcsICctaW1hZScsICc8aW5maWxlLm1hZT4nLCAnLW9tYWUnLCAnPG91dGZpbGUubWFlPic=

>  <s_epik_input>  (1) 
W1NIXVMoPU8pKD1PKVtDQEBdMShbQ0gyXVtDSDNdKVtDQEBdKFtDSDNdKShbQ0BASF0xW09IXSlPW0NASF0oW0NAQEhdMltDSDNdKVtOSF1bQ0BASF0oRilbQ0BIXTJbQ0gyXVxbQ0hdPVtDSF1cQyhbQ0gyXVtOSDJdKT1OL0MoPU4vW0hdKS9bQ0gyXVtDSDJdW0NIMl1bTkhdW0NIMl1bT0hd

>  <s_glide_docking_method>  (1) 
confgen

>  <s_i_glide_gridfile>  (1) 
gpcr_drd2_6luq_protein_autoprepared_prepared

>  <s_lp_Force_Field>  (1) 
S-OPLS

>  <s_lp_Variant>  (1) 
DiffSBDD_10_num_sample_50-18

>  <s_m_source_file>  (1) 
generated__ligand_DiffSBDD_2026-05-06_prepared.sdf

>  <GenAI_Model>  (1) 
DiffSBDD

>  <Protein>  (1) 
generic_title2

$$$$
DiffSBDD_10_num_sample_50
     RDKit          3D

  0  0  0  0  0  0  0  0  0  0999 V3000
M  V30 BEGIN CTAB
M  V30 COUNTS 73 74 0 0 1
M  V30 BEGIN ATOM
M  V30 1 C 5.891115 8.197199 -21.883235 0 CFG=2
M  V30 2 C 9.266043 5.962686 -11.156325 0
M  V30 3 C 8.582666 4.571848 -15.352495 0
M  V30 4 C 7.791560 3.678176 -18.518775 0 CFG=1
M  V30 5 C 5.765582 6.660539 -21.688145 0 CFG=2
M  V30 6 N 6.882463 6.169076 -11.491667 0
M  V30 7 N 7.111702 4.042605 -20.764360 0
M  V30 8 C 6.582087 5.100324 -19.947366 0 CFG=1
M  V30 9 S 4.294563 9.059379 -22.394527 0
M  V30 10 C 9.245531 6.138220 -9.649759 0
M  V30 11 S 4.996787 10.398907 -23.868725 0 CHG=-1
M  V30 12 C 7.403052 10.304713 -21.620737 0
M  V30 13 O 10.599615 7.480879 -5.734352 0
M  V30 14 O 3.376316 8.149984 -23.091567 0
M  V30 15 C 6.460228 7.237661 -22.901777 0 CFG=2
M  V30 16 C 7.893809 3.379627 -13.133400 0
M  V30 17 C 8.068136 3.273976 -19.980122 0 CFG=1
M  V30 18 N 9.759257 7.706881 -7.770132 0 CHG=1
M  V30 19 N 8.273615 5.808764 -13.316458 0
M  V30 20 C 9.835174 7.493364 -9.230548 0
M  V30 21 C 8.550680 6.169465 -18.740064 0
M  V30 22 C 6.774840 9.062524 -20.977379 0
M  V30 23 C 4.543900 5.764548 -21.881233 0
M  V30 24 C 8.925759 3.327044 -17.530369 0
M  V30 25 C 8.246168 4.672794 -13.898430 0
M  V30 26 O 7.836009 6.924573 -22.814529 0
M  V30 27 C 8.171781 5.979626 -11.941300 0
M  V30 28 O 3.814873 9.871904 -21.265136 0
M  V30 29 F 9.298726 3.614176 -20.363248 0
M  V30 30 N 9.034912 2.969363 -12.291678 0 CHG=1
M  V30 31 C 10.622440 6.816219 -6.974182 0
M  V30 32 C 7.384507 5.155659 -18.634706 0 CFG=2
M  V30 33 O 6.616957 6.350950 -20.568393 0
M  V30 34 C 8.553478 3.420437 -16.058991 0
M  V30 35 H 10.235244 5.816136 -11.607361 0
M  V30 36 H 8.866891 5.499796 -15.824519 0
M  V30 37 H 6.906129 3.120247 -18.206160 0
M  V30 38 H 6.722606 6.542946 -10.553479 0
M  V30 39 H 7.565600 4.396867 -21.595261 0
M  V30 40 H 5.549126 4.856981 -19.693847 0
M  V30 41 H 9.814265 5.316700 -9.214656 0
M  V30 42 H 8.234843 6.036718 -9.259243 0
M  V30 43 H 8.085089 10.780078 -20.918175 0
M  V30 44 H 7.964673 10.045347 -22.519203 0
M  V30 45 H 6.665840 11.055618 -21.891643 0
M  V30 46 H 10.407765 6.845893 -5.057809 0
M  V30 47 H 6.011639 7.151618 -23.886950 0
M  V30 48 H 7.047200 3.575819 -12.475657 0
M  V30 49 H 7.551708 2.558207 -13.752574 0
M  V30 50 H 7.957184 2.202766 -20.150050 0
M  V30 51 H 8.794656 7.602449 -7.478182 0
M  V30 52 H 9.279792 8.297436 -9.716635 0
M  V30 53 H 10.868413 7.587901 -9.567848 0
M  V30 54 H 9.146546 6.022003 -19.640653 0
M  V30 55 H 8.170296 7.189593 -18.764407 0
M  V30 56 H 9.227695 6.120818 -17.891559 0
M  V30 57 H 6.198640 9.343649 -20.096636 0
M  V30 58 H 7.612939 8.468555 -20.625326 0
M  V30 59 H 4.060206 5.934342 -22.838983 0
M  V30 60 H 4.822020 4.712865 -21.897176 0
M  V30 61 H 3.834877 5.923182 -21.077000 0
M  V30 62 H 9.806494 3.940931 -17.718064 0
M  V30 63 H 9.250745 2.301646 -17.707288 0
M  V30 64 H 8.038847 6.861086 -21.891126 0
M  V30 65 H 8.862659 2.099059 -11.798195 0
M  V30 66 H 9.859911 2.858743 -12.864431 0
M  V30 67 H 11.641001 6.775183 -7.361607 0
M  V30 68 H 10.210896 5.808845 -6.900915 0
M  V30 69 H 6.725480 5.447052 -17.816574 0
M  V30 70 H 8.262753 2.497701 -15.591903 0
M  V30 71 H 6.138795 6.341731 -12.150950 0
M  V30 72 H 10.045019 8.654688 -7.576749 0
M  V30 73 H 9.206682 3.700929 -11.617291 0
M  V30 END ATOM
M  V30 BEGIN BOND
M  V30 1 1 5 1
M  V30 2 1 8 7
M  V30 3 1 9 1
M  V30 4 1 10 2
M  V30 5 1 11 9
M  V30 6 2 14 9
M  V30 7 1 15 1
M  V30 8 1 15 5
M  V30 9 1 17 4
M  V30 10 1 17 7
M  V30 11 1 20 10
M  V30 12 1 20 18
M  V30 13 1 1 22 CFG=1
M  V30 14 1 22 12
M  V30 15 1 23 5
M  V30 16 1 24 4
M  V30 17 1 25 3
M  V30 18 1 25 16
M  V30 19 2 25 19
M  V30 20 1 26 15
M  V30 21 2 27 2
M  V30 22 1 27 6
M  V30 23 1 27 19
M  V30 24 2 28 9
M  V30 25 1 29 17
M  V30 26 1 30 16
M  V30 27 1 31 13
M  V30 28 1 31 18
M  V30 29 1 32 4
M  V30 30 1 32 8
M  V30 31 1 32 21
M  V30 32 1 5 33 CFG=1
M  V30 33 1 33 8
M  V30 34 2 34 3
M  V30 35 1 34 24
M  V30 36 1 35 2
M  V30 37 1 36 3
M  V30 38 1 4 37 CFG=1
M  V30 39 1 38 6
M  V30 40 1 39 7
M  V30 41 1 8 40 CFG=1
M  V30 42 1 41 10
M  V30 43 1 42 10
M  V30 44 1 43 12
M  V30 45 1 44 12
M  V30 46 1 45 12
M  V30 47 1 46 13
M  V30 48 1 15 47 CFG=3
M  V30 49 1 48 16
M  V30 50 1 49 16
M  V30 51 1 17 50 CFG=1
M  V30 52 1 51 18
M  V30 53 1 52 20
M  V30 54 1 53 20
M  V30 55 1 54 21
M  V30 56 1 55 21
M  V30 57 1 56 21
M  V30 58 1 57 22
M  V30 59 1 58 22
M  V30 60 1 59 23
M  V30 61 1 60 23
M  V30 62 1 61 23
M  V30 63 1 62 24
M  V30 64 1 63 24
M  V30 65 1 64 26
M  V30 66 1 65 30
M  V30 67 1 66 30
M  V30 68 1 67 31
M  V30 69 1 68 31
M  V30 70 1 32 69 CFG=1
M  V30 71 1 70 34
M  V30 72 1 71 6
M  V30 73 1 72 18
M  V30 74 1 73 30
M  V30 END BOND
M  V30 END CTAB
M  END
>  <i_epik_Tot_Q>  (1) 
1

>  <i_epik_Tot_abs_Q>  (1) 
3

>  <i_i_glide_confnum>  (1) 
1091

>  <i_i_glide_lignum>  (1) 
32

>  <i_i_glide_posenum>  (1) 
162

>  <i_i_glide_rotatable_bonds>  (1) 
15

>  <i_lp_mmshare_version>  (1) 
72125

>  <i_m_source_file_index>  (1) 
11

>  <i_f3d_flags>  (1) 
0

>  <num_sample>  (1) 
50

>  <b_lp_Chiralities_Consistent>  (1) 
1

>  <r_epik_Charging_Adjusted_Penalty>  (1) 
2.168687317063887

>  <r_epik_Ionization_Penalty>  (1) 
1.1047352072338965

>  <r_epik_Ionization_Penalty_Charging>  (1) 
1.0999234457570315

>  <r_epik_Ionization_Penalty_Neutral>  (1) 
0.0048117614768649203

>  <r_epik_State_Penalty>  (1) 
1.0687638713068555

>  <r_glide_ring_energy>  (1) 
0

>  <r_i_docking_score>  (1) 
-3.5598111409374331

>  <r_i_glide_ecoul>  (1) 
-11.11259102437069

>  <r_i_glide_eff_state_penalty>  (1) 
1.0687638713068555

>  <r_i_glide_einternal>  (1) 
4.6027288491021174

>  <r_i_glide_emodel>  (1) 
-52.967244306480559

>  <r_i_glide_emodel_strain>  (1) 
2.0553702799967652

>  <r_i_glide_energy>  (1) 
-40.63297659885064

>  <r_i_glide_erotb>  (1) 
0.82219216958862984

>  <r_i_glide_esite>  (1) 
-0.19414411998983855

>  <r_i_glide_evdw>  (1) 
-29.520385574479949

>  <r_i_glide_gscore>  (1) 
-4.6285750122442888

>  <r_i_glide_gscore_strain>  (1) 
0

>  <r_i_glide_hbond>  (1) 
-0.15829102380778312

>  <r_i_glide_ligand_efficiency>  (1) 
-0.10470032767463039

>  <r_i_glide_ligand_efficiency_ln>  (1) 
-0.78646213035346046

>  <r_i_glide_ligand_efficiency_sa>  (1) 
-0.33918841713235215

>  <r_i_glide_lipo>  (1) 
-0.87872599747834945

>  <r_i_glide_metal>  (1) 
-0

>  <r_i_glide_rewards>  (1) 
-1.0766981081773461

>  <r_lp_Energy>  (1) 
27.209377

>  <s_epik_Chemistry_Notes>  (1) 
This compound has an imine and may undergo hydrolysis. This compound contains an acetal/aminal-like group ( X-CH(R)-Y where X, Y are N, S, or O) that may be acid/base labile, releasing an aldehyde.

>  <s_epik_cmdline>  (1) 
J2VwaWtfcHl0aG9uJywgJy1waHQnLCAnMS4wJywgJy1waCcsICc3LjQnLCAnLXRuJywgJzgnLCAnLW1hJywgJzUwMCcsICctaW1hZScsICc8aW5maWxlLm1hZT4nLCAnLW9tYWUnLCAnPG91dGZpbGUubWFlPic=

>  <s_epik_input>  (1) 
W1NIXVMoPU8pKD1PKVtDQEBdMShbQ0gyXVtDSDNdKVtDQEBdKFtDSDNdKShbQ0BASF0xW09IXSlPW0NASF0oW0NAQEhdMltDSDNdKVtOSF1bQ0BASF0oRilbQ0BIXTJbQ0gyXVxbQ0hdPVtDSF1cQyhbQ0gyXVtOSDJdKT1OXEMoPU5cW0hdKVxbQ0gyXVtDSDJdW0NIMl1bTkhdW0NIMl1bT0hd

>  <s_glide_docking_method>  (1) 
confgen

>  <s_i_glide_gridfile>  (1) 
gpcr_drd2_6luq_protein_autoprepared_prepared

>  <s_lp_Force_Field>  (1) 
S-OPLS

>  <s_lp_Variant>  (1) 
DiffSBDD_10_num_sample_50-12

>  <s_m_source_file>  (1) 
generated__ligand_DiffSBDD_2026-05-06_prepared.sdf

>  <GenAI_Model>  (1) 
DiffSBDD

>  <Protein>  (1) 
generic_title2

$$$$
DiffSBDD_44_num_sample_50
     RDKit          3D

  0  0  0  0  0  0  0  0  0  0999 V3000
M  V30 BEGIN CTAB
M  V30 COUNTS 61 64 0 0 1
M  V30 BEGIN ATOM
M  V30 1 C 14.374747 -0.708372 -19.578107 0
M  V30 2 C 17.010354 8.473631 -18.919960 0 CFG=1
M  V30 3 C 16.928173 7.412185 -21.224699 0
M  V30 4 C 14.552681 1.706482 -18.812041 0 CFG=1
M  V30 5 C 15.766418 -0.548080 -20.199607 0
M  V30 6 C 15.532743 9.989830 -22.074366 0
M  V30 7 C 14.198330 0.256346 -18.391704 0 CFG=1
M  V30 8 O 11.771070 0.524727 -18.664540 0
M  V30 9 N 14.715855 4.067677 -18.119119 0
M  V30 10 C 16.067779 0.919018 -20.551964 0 CFG=2
M  V30 11 C 15.919566 9.252373 -18.134775 0
M  V30 12 O 17.137018 8.425235 -23.484468 0
M  V30 13 C 14.608958 2.694878 -17.629763 0
M  V30 14 C 15.661796 6.311721 -18.366741 0 CFG=2
M  V30 15 O 16.627481 4.569302 -17.010603 0
M  V30 16 C 16.329569 9.847398 -21.013899 0
M  V30 17 C 16.845407 7.287091 -22.590094 0
M  V30 18 C 12.790407 0.118991 -17.773082 0
M  V30 19 C 15.977192 7.938222 -23.316988 0
M  V30 20 O 15.852259 1.737098 -19.402624 0
M  V30 21 C 14.919790 8.854077 -22.807558 0
M  V30 22 C 15.286000 1.440711 -21.770862 0
M  V30 23 F 17.353677 0.969286 -20.897855 0
M  V30 24 C 15.711425 4.897573 -17.767883 0
M  V30 25 C 17.030838 7.042541 -18.295461 0
M  V30 26 C 14.558581 7.146090 -17.685958 0
M  V30 27 C 16.747759 8.549766 -20.449656 0
M  V30 28 C 14.535197 8.589950 -18.204411 0
M  V30 29 C 18.377874 9.131420 -18.644546 0
M  V30 30 H 14.234921 -1.739124 -19.249238 0
M  V30 31 H 13.611771 -0.523012 -20.334552 0
M  V30 32 H 17.235291 6.522647 -20.707386 0
M  V30 33 H 13.817079 2.066443 -19.531524 0
M  V30 34 H 16.516618 -0.900595 -19.491583 0
M  V30 35 H 15.862753 -1.182516 -21.081220 0
M  V30 36 H 15.263048 10.981360 -22.407859 0
M  V30 37 H 14.914907 -0.046142 -17.626100 0
M  V30 38 H 11.809801 1.462609 -18.773377 0
M  V30 39 H 13.998680 4.401039 -18.745977 0
M  V30 40 H 15.834580 10.283365 -18.471394 0
M  V30 41 H 16.218812 9.334111 -17.091669 0
M  V30 42 H 13.690666 2.657320 -17.045789 0
M  V30 43 H 15.412241 2.416315 -16.945593 0
M  V30 44 H 15.381320 6.190339 -19.412102 0
M  V30 45 H 16.658517 10.745519 -20.514153 0
M  V30 46 H 12.708048 0.700580 -16.858025 0
M  V30 47 H 12.602740 -0.915920 -17.491674 0
M  V30 48 H 14.345292 9.236622 -23.651465 0
M  V30 49 H 14.228126 8.316703 -22.157556 0
M  V30 50 H 14.207059 1.384284 -21.634579 0
M  V30 51 H 15.540450 2.480845 -21.975547 0
M  V30 52 H 15.528348 0.861692 -22.662281 0
M  V30 53 H 17.303661 7.136363 -17.242465 0
M  V30 54 H 17.829335 6.431323 -18.716938 0
M  V30 55 H 13.581415 6.693634 -17.859942 0
M  V30 56 H 14.691428 7.144804 -16.605486 0
M  V30 57 H 14.161919 8.611563 -19.228968 0
M  V30 58 H 13.834860 9.172408 -17.609172 0
M  V30 59 H 18.620002 9.127994 -17.581063 0
M  V30 60 H 19.179627 8.604121 -19.162779 0
M  V30 61 H 18.401938 10.169547 -18.975699 0
M  V30 END ATOM
M  V30 BEGIN BOND
M  V30 1 1 5 1
M  V30 2 1 7 1
M  V30 3 1 7 4
M  V30 4 1 10 5
M  V30 5 1 11 2
M  V30 6 1 13 4
M  V30 7 1 13 9
M  V30 8 2 16 6
M  V30 9 1 17 3
M  V30 10 1 17 12
M  V30 11 1 18 7
M  V30 12 1 18 8
M  V30 13 1 19 12
M  V30 14 2 19 17
M  V30 15 1 20 4
M  V30 16 1 20 10
M  V30 17 1 21 6
M  V30 18 1 21 19
M  V30 19 1 22 10
M  V30 20 1 10 23 CFG=3
M  V30 21 1 24 9
M  V30 22 1 24 14
M  V30 23 2 24 15
M  V30 24 1 25 2
M  V30 25 1 25 14
M  V30 26 1 26 14
M  V30 27 1 27 2
M  V30 28 2 27 3
M  V30 29 1 27 16
M  V30 30 1 28 11
M  V30 31 1 28 26
M  V30 32 1 2 29 CFG=3
M  V30 33 1 30 1
M  V30 34 1 31 1
M  V30 35 1 32 3
M  V30 36 1 4 33 CFG=3
M  V30 37 1 34 5
M  V30 38 1 35 5
M  V30 39 1 36 6
M  V30 40 1 7 37 CFG=1
M  V30 41 1 38 8
M  V30 42 1 39 9
M  V30 43 1 40 11
M  V30 44 1 41 11
M  V30 45 1 42 13
M  V30 46 1 43 13
M  V30 47 1 14 44 CFG=3
M  V30 48 1 45 16
M  V30 49 1 46 18
M  V30 50 1 47 18
M  V30 51 1 48 21
M  V30 52 1 49 21
M  V30 53 1 50 22
M  V30 54 1 51 22
M  V30 55 1 52 22
M  V30 56 1 53 25
M  V30 57 1 54 25
M  V30 58 1 55 26
M  V30 59 1 56 26
M  V30 60 1 57 28
M  V30 61 1 58 28
M  V30 62 1 59 29
M  V30 63 1 60 29
M  V30 64 1 61 29
M  V30 END BOND
M  V30 END CTAB
M  END
>  <i_epik_Tot_Q>  (1) 
0

>  <i_epik_Tot_abs_Q>  (1) 
0

>  <i_i_glide_confnum>  (1) 
161

>  <i_i_glide_lignum>  (1) 
110

>  <i_i_glide_posenum>  (1) 
326

>  <i_i_glide_rotatable_bonds>  (1) 
7

>  <i_lp_mmshare_version>  (1) 
72125

>  <i_m_source_file_index>  (1) 
45

>  <i_f3d_flags>  (1) 
0

>  <num_sample>  (1) 
50

>  <b_lp_Chiralities_Consistent>  (1) 
1

>  <r_epik_Charging_Adjusted_Penalty>  (1) 
0

>  <r_epik_Ionization_Penalty>  (1) 
7.6933096193548639e-08

>  <r_epik_Ionization_Penalty_Charging>  (1) 
0

>  <r_epik_Ionization_Penalty_Neutral>  (1) 
7.6933096193548639e-08

>  <r_epik_State_Penalty>  (1) 
-0

>  <r_glide_ring_energy>  (1) 
0

>  <r_i_docking_score>  (1) 
-3.5596631989967875

>  <r_i_glide_ecoul>  (1) 
-5.7739122046501592

>  <r_i_glide_eff_state_penalty>  (1) 
-0

>  <r_i_glide_einternal>  (1) 
4.0520911193145324

>  <r_i_glide_emodel>  (1) 
-30.362680993022781

>  <r_i_glide_emodel_strain>  (1) 
0.94406476032133924

>  <r_i_glide_energy>  (1) 
-27.913580000488004

>  <r_i_glide_erotb>  (1) 
0.71709703680073922

>  <r_i_glide_esite>  (1) 
-0.015306691270835629

>  <r_i_glide_evdw>  (1) 
-22.139667795837845

>  <r_i_glide_gscore>  (1) 
-3.5596631989967875

>  <r_i_glide_gscore_strain>  (1) 
0

>  <r_i_glide_hbond>  (1) 
-0.32000000000000001

>  <r_i_glide_ligand_efficiency>  (1) 
-0.12274700686195819

>  <r_i_glide_ligand_efficiency_ln>  (1) 
-0.81507260729983833

>  <r_i_glide_ligand_efficiency_sa>  (1) 
-0.37711769448457033

>  <r_i_glide_lipo>  (1) 
-1.0837151980897506

>  <r_i_glide_metal>  (1) 
-0

>  <r_i_glide_rewards>  (1) 
-0.88466812594752486

>  <r_lp_Energy>  (1) 
41.397649999999999

>  <r_lp_tautomer_probability>  (1) 
1

>  <s_epik_cmdline>  (1) 
J2VwaWtfcHl0aG9uJywgJy1waHQnLCAnMS4wJywgJy1waCcsICc3LjQnLCAnLXRuJywgJzgnLCAnLW1hJywgJzUwMCcsICctaW1hZScsICc8aW5maWxlLm1hZT4nLCAnLW9tYWUnLCAnPG91dGZpbGUubWFlPic=

>  <s_epik_input>  (1) 
W0NIM11bQ0BdMShGKVtDSDJdW0NIMl1bQ0BIXShbQ0gyXVtPSF0pW0NASF0oTzEpW0NIMl1bTkhdQyg9TylbQ0BIXShbQ0gyXTIpW0NIMl1bQ0gyXVtDSDJdW0NAXTIoW0NIM10pQyg9W0NIXTMpW0NIXT1bQ0hdW0NIMl1DKE80KT1DMzQ=

>  <s_glide_docking_method>  (1) 
confgen

>  <s_i_glide_gridfile>  (1) 
gpcr_drd2_6luq_protein_autoprepared_prepared

>  <s_lp_Force_Field>  (1) 
S-OPLS

>  <s_lp_Variant>  (1) 
DiffSBDD_44_num_sample_50-1

>  <s_m_source_file>  (1) 
generated__ligand_DiffSBDD_2026-05-06_prepared.sdf

>  <GenAI_Model>  (1) 
DiffSBDD

>  <Protein>  (1) 
generic_title2

$$$$
DiffSBDD_10_num_sample_50
     RDKit          3D

  0  0  0  0  0  0  0  0  0  0999 V3000
M  V30 BEGIN CTAB
M  V30 COUNTS 73 74 0 0 1
M  V30 BEGIN ATOM
M  V30 1 C 8.467391 4.818350 -17.179904 0 CFG=2
M  V30 2 C 11.087935 6.297691 -6.198861 0
M  V30 3 C 11.247816 7.369889 -10.576603 0
M  V30 4 C 7.867958 5.737913 -11.761742 0 CFG=1
M  V30 5 C 7.296523 5.309141 -16.303535 0 CFG=2
M  V30 6 N 9.037303 7.517638 -6.555867 0
M  V30 7 N 7.350399 4.101776 -13.300332 0
M  V30 8 C 6.933737 5.328991 -13.916795 0 CFG=1
M  V30 9 S 8.317739 5.310518 -18.986464 0
M  V30 10 C 11.014523 6.265722 -4.674604 0
M  V30 11 S 9.486150 3.791368 -19.885827 0 CHG=-1
M  V30 12 C 10.916389 5.687227 -16.870013 0
M  V30 13 O 11.837724 9.526212 -2.164962 0
M  V30 14 O 6.935507 5.130283 -19.458765 0
M  V30 15 C 7.356523 3.866627 -16.794078 0 CFG=2
M  V30 16 C 12.382112 8.127942 -8.404150 0
M  V30 17 C 8.411040 4.467686 -12.380218 0 CFG=1
M  V30 18 N 11.836396 7.313160 -2.538504 0 CHG=1
M  V30 19 N 10.282855 6.882082 -8.387873 0
M  V30 20 C 11.647427 7.487515 -3.998891 0
M  V30 21 C 7.569746 7.769147 -13.348160 0
M  V30 22 C 9.900457 4.555460 -16.687425 0
M  V30 23 C 6.231136 6.296162 -16.773722 0
M  V30 24 C 8.828328 6.533695 -10.862831 0
M  V30 25 C 11.219012 7.417871 -9.071882 0
M  V30 26 O 7.698076 2.913673 -15.808197 0
M  V30 27 C 10.164945 6.880290 -6.999492 0
M  V30 28 O 9.002012 6.592930 -19.209017 0
M  V30 29 F 9.516569 4.682397 -13.077238 0
M  V30 30 N 11.844690 9.172402 -7.509675 0 CHG=1
M  V30 31 C 12.618391 8.386955 -1.886292 0
M  V30 32 C 7.028485 6.433166 -12.841230 0 CFG=2
M  V30 33 O 7.776454 5.633354 -14.995394 0
M  V30 34 C 10.206753 6.967403 -11.361481 0
M  V30 35 H 11.945777 5.814261 -6.642448 0
M  V30 36 H 12.176276 7.685460 -11.029292 0
M  V30 37 H 7.112611 5.384334 -11.055852 0
M  V30 38 H 8.729192 7.388218 -5.600290 0
M  V30 39 H 6.596038 3.714568 -12.750786 0
M  V30 40 H 5.907671 5.226562 -14.270589 0
M  V30 41 H 11.531761 5.369640 -4.341828 0
M  V30 42 H 9.977913 6.169231 -4.355748 0
M  V30 43 H 11.893062 5.380742 -16.495802 0
M  V30 44 H 11.044030 5.959719 -17.916464 0
M  V30 45 H 10.626728 6.569409 -16.308742 0
M  V30 46 H 12.336664 10.285251 -1.883505 0
M  V30 47 H 6.679724 3.490387 -17.557661 0
M  V30 48 H 12.976395 7.380584 -7.871107 0
M  V30 49 H 13.039598 8.590425 -9.141502 0
M  V30 50 H 8.636377 3.754344 -11.601249 0
M  V30 51 H 12.316120 6.437349 -2.384668 0
M  V30 52 H 11.041656 8.363040 -4.249267 0
M  V30 53 H 12.634729 7.689759 -4.359488 0
M  V30 54 H 8.634551 7.690596 -13.489827 0
M  V30 55 H 7.104483 8.084721 -14.282849 0
M  V30 56 H 7.434594 8.548086 -12.597826 0
M  V30 57 H 9.869093 4.305951 -15.627881 0
M  V30 58 H 10.276533 3.662882 -17.186190 0
M  V30 59 H 5.572992 5.834962 -17.507451 0
M  V30 60 H 5.603770 6.628911 -15.948141 0
M  V30 61 H 6.689317 7.176865 -17.223525 0
M  V30 62 H 8.859365 5.945708 -9.953944 0
M  V30 63 H 8.349945 7.483292 -10.691825 0
M  V30 64 H 7.796641 3.378900 -14.982014 0
M  V30 65 H 12.572880 9.555478 -6.927392 0
M  V30 66 H 11.426283 9.899629 -8.073015 0
M  V30 67 H 13.616309 8.484782 -2.306443 0
M  V30 68 H 12.713303 8.233933 -0.814409 0
M  V30 69 H 6.022477 6.602226 -12.451855 0
M  V30 70 H 10.342317 6.960170 -12.431729 0
M  V30 71 H 8.290873 7.727214 -7.215010 0
M  V30 72 H 10.932555 7.263717 -2.091710 0
M  V30 73 H 11.117984 8.753804 -6.940266 0
M  V30 END ATOM
M  V30 BEGIN BOND
M  V30 1 1 5 1
M  V30 2 1 8 7
M  V30 3 1 9 1
M  V30 4 1 10 2
M  V30 5 1 11 9
M  V30 6 2 14 9
M  V30 7 1 15 1
M  V30 8 1 15 5
M  V30 9 1 17 4
M  V30 10 1 17 7
M  V30 11 1 20 10
M  V30 12 1 20 18
M  V30 13 1 1 22 CFG=1
M  V30 14 1 22 12
M  V30 15 1 23 5
M  V30 16 1 24 4
M  V30 17 1 25 3
M  V30 18 1 25 16
M  V30 19 2 25 19
M  V30 20 1 26 15
M  V30 21 2 27 2
M  V30 22 1 27 6
M  V30 23 1 27 19
M  V30 24 2 28 9
M  V30 25 1 29 17
M  V30 26 1 30 16
M  V30 27 1 31 13
M  V30 28 1 31 18
M  V30 29 1 32 4
M  V30 30 1 32 8
M  V30 31 1 32 21
M  V30 32 1 5 33 CFG=1
M  V30 33 1 33 8
M  V30 34 2 34 3
M  V30 35 1 34 24
M  V30 36 1 35 2
M  V30 37 1 36 3
M  V30 38 1 4 37 CFG=1
M  V30 39 1 38 6
M  V30 40 1 39 7
M  V30 41 1 8 40 CFG=3
M  V30 42 1 41 10
M  V30 43 1 42 10
M  V30 44 1 43 12
M  V30 45 1 44 12
M  V30 46 1 45 12
M  V30 47 1 46 13
M  V30 48 1 15 47 CFG=3
M  V30 49 1 48 16
M  V30 50 1 49 16
M  V30 51 1 17 50 CFG=1
M  V30 52 1 51 18
M  V30 53 1 52 20
M  V30 54 1 53 20
M  V30 55 1 54 21
M  V30 56 1 55 21
M  V30 57 1 56 21
M  V30 58 1 57 22
M  V30 59 1 58 22
M  V30 60 1 59 23
M  V30 61 1 60 23
M  V30 62 1 61 23
M  V30 63 1 62 24
M  V30 64 1 63 24
M  V30 65 1 64 26
M  V30 66 1 65 30
M  V30 67 1 66 30
M  V30 68 1 67 31
M  V30 69 1 68 31
M  V30 70 1 32 69 CFG=1
M  V30 71 1 70 34
M  V30 72 1 71 6
M  V30 73 1 72 18
M  V30 74 1 73 30
M  V30 END BOND
M  V30 END CTAB
M  END
>  <i_epik_Tot_Q>  (1) 
1

>  <i_epik_Tot_abs_Q>  (1) 
3

>  <i_i_glide_confnum>  (1) 
1280

>  <i_i_glide_lignum>  (1) 
31

>  <i_i_glide_posenum>  (1) 
33

>  <i_i_glide_rotatable_bonds>  (1) 
15

>  <i_lp_mmshare_version>  (1) 
72125

>  <i_m_source_file_index>  (1) 
11

>  <i_f3d_flags>  (1) 
0

>  <num_sample>  (1) 
50

>  <b_lp_Chiralities_Consistent>  (1) 
1

>  <r_epik_Charging_Adjusted_Penalty>  (1) 
2.168687317063887

>  <r_epik_Ionization_Penalty>  (1) 
1.1047352072338965

>  <r_epik_Ionization_Penalty_Charging>  (1) 
1.0999234457570315

>  <r_epik_Ionization_Penalty_Neutral>  (1) 
0.0048117614768649203

>  <r_epik_State_Penalty>  (1) 
1.0687638713068555

>  <r_glide_ring_energy>  (1) 
0

>  <r_i_docking_score>  (1) 
-3.554879117051053

>  <r_i_glide_ecoul>  (1) 
-0.5818287732580163

>  <r_i_glide_eff_state_penalty>  (1) 
1.0687638713068555

>  <r_i_glide_einternal>  (1) 
15.689973706030859

>  <r_i_glide_emodel>  (1) 
-34.359067212884661

>  <r_i_glide_emodel_strain>  (1) 
3.5933991278106276

>  <r_i_glide_energy>  (1) 
-28.898549373273024

>  <r_i_glide_erotb>  (1) 
0.82219216958862984

>  <r_i_glide_esite>  (1) 
-0.077198613713396633

>  <r_i_glide_evdw>  (1) 
-28.316720600015007

>  <r_i_glide_gscore>  (1) 
-4.6236429883579087

>  <r_i_glide_gscore_strain>  (1) 
0

>  <r_i_glide_hbond>  (1) 
-0.40037819704674849

>  <r_i_glide_ligand_efficiency>  (1) 
-0.10455526814856038

>  <r_i_glide_ligand_efficiency_ln>  (1) 
-0.78537250793837488

>  <r_i_glide_ligand_efficiency_sa>  (1) 
-0.33871848057980802

>  <r_i_glide_lipo>  (1) 
-1.7314605876644777

>  <r_i_glide_metal>  (1) 
-0

>  <r_i_glide_rewards>  (1) 
-1.7336874135324618

>  <r_lp_Energy>  (1) 
32.715631999999999

>  <s_epik_Chemistry_Notes>  (1) 
This compound has an imine and may undergo hydrolysis. This compound contains an acetal/aminal-like group ( X-CH(R)-Y where X, Y are N, S, or O) that may be acid/base labile, releasing an aldehyde.

>  <s_epik_cmdline>  (1) 
J2VwaWtfcHl0aG9uJywgJy1waHQnLCAnMS4wJywgJy1waCcsICc3LjQnLCAnLXRuJywgJzgnLCAnLW1hJywgJzUwMCcsICctaW1hZScsICc8aW5maWxlLm1hZT4nLCAnLW9tYWUnLCAnPG91dGZpbGUubWFlPic=

>  <s_epik_input>  (1) 
W1NIXVMoPU8pKD1PKVtDQEBdMShbQ0gyXVtDSDNdKVtDQEBdKFtDSDNdKShbQ0BASF0xW09IXSlPW0NASF0oW0NAQEhdMltDSDNdKVtOSF1bQ0BASF0oRilbQ0BIXTJbQ0gyXS9bQ0hdPVtDSF1cQyhbQ0gyXVtOSDJdKT1OXEMoPU5cW0hdKVxbQ0gyXVtDSDJdW0NIMl1bTkhdW0NIMl1bT0hd

>  <s_glide_docking_method>  (1) 
confgen

>  <s_i_glide_gridfile>  (1) 
gpcr_drd2_6luq_protein_autoprepared_prepared

>  <s_lp_Force_Field>  (1) 
S-OPLS

>  <s_lp_Variant>  (1) 
DiffSBDD_10_num_sample_50-11

>  <s_m_source_file>  (1) 
generated__ligand_DiffSBDD_2026-05-06_prepared.sdf

>  <GenAI_Model>  (1) 
DiffSBDD

>  <Protein>  (1) 
generic_title2

$$$$
DiffSBDD_10_num_sample_50
     RDKit          3D

  0  0  0  0  0  0  0  0  0  0999 V3000
M  V30 BEGIN CTAB
M  V30 COUNTS 73 74 0 0 1
M  V30 BEGIN ATOM
M  V30 1 C 10.629706 7.957928 -8.815635 0 CFG=2
M  V30 2 C 9.392626 0.713394 -18.167983 0
M  V30 3 C 7.862737 1.765003 -15.618686 0
M  V30 4 C 8.126426 4.141687 -12.801021 0 CFG=1
M  V30 5 C 9.552034 6.870008 -9.126091 0 CFG=2
M  V30 6 N 9.698800 -1.429385 -17.091600 0
M  V30 7 N 7.617419 5.370302 -10.851235 0
M  V30 8 C 9.035380 5.111569 -10.818106 0 CFG=1
M  V30 9 S 10.797453 8.400990 -6.996214 0
M  V30 10 C 10.769258 0.793045 -18.794485 0
M  V30 11 S 11.434715 6.568040 -6.226503 0 CHG=-1
M  V30 12 C 13.105100 7.956156 -9.462853 0
M  V30 13 O 8.650114 -1.117327 -22.428663 0
M  V30 14 O 11.891715 9.366411 -6.801936 0
M  V30 15 C 9.274506 8.356539 -9.305383 0 CFG=2
M  V30 16 C 5.683095 0.359670 -15.662123 0
M  V30 17 C 7.087732 5.102999 -12.177891 0 CFG=1
M  V30 18 N 9.962368 -0.172482 -20.932401 0 CHG=1
M  V30 19 N 7.679509 -0.329755 -16.869084 0
M  V30 20 C 10.660773 0.973248 -20.313716 0
M  V30 21 C 10.068220 5.846582 -13.032274 0
M  V30 22 C 11.735284 8.551845 -9.674271 0
M  V30 23 C 8.858423 5.996237 -8.066748 0
M  V30 24 C 8.032738 3.963176 -14.346951 0
M  V30 25 C 7.129320 0.540377 -16.103592 0
M  V30 26 O 9.035243 8.569221 -10.692123 0
M  V30 27 C 8.957949 -0.311042 -17.405966 0
M  V30 28 O 9.483565 8.646061 -6.389631 0
M  V30 29 F 6.998520 6.258015 -12.838805 0
M  V30 30 N 5.249629 -1.029478 -15.891526 0 CHG=1
M  V30 31 C 9.134422 0.164701 -22.101088 0
M  V30 32 C 9.466143 4.671313 -12.238689 0 CFG=2
M  V30 33 O 9.835316 6.186666 -10.371369 0
M  V30 34 C 7.298286 2.708229 -14.826104 0
M  V30 35 H 8.735278 1.547954 -18.363898 0
M  V30 36 H 8.883363 1.861083 -15.943094 0
M  V30 37 H 7.980175 3.158655 -12.347768 0
M  V30 38 H 10.658808 -1.536254 -17.381733 0
M  V30 39 H 7.377022 6.297419 -10.503040 0
M  V30 40 H 9.207227 4.288726 -10.125145 0
M  V30 41 H 11.374301 -0.080442 -18.554018 0
M  V30 42 H 11.280233 1.651778 -18.359630 0
M  V30 43 H 13.868636 8.509694 -10.007421 0
M  V30 44 H 13.385268 7.894200 -8.413316 0
M  V30 45 H 13.034750 6.969063 -9.884588 0
M  V30 46 H 7.758991 -1.039803 -22.741809 0
M  V30 47 H 8.635738 8.958668 -8.654395 0
M  V30 48 H 5.535760 0.602629 -14.609911 0
M  V30 49 H 5.038610 0.970004 -16.287394 0
M  V30 50 H 6.085069 4.681387 -12.127928 0
M  V30 51 H 9.350342 -0.582677 -20.241086 0
M  V30 52 H 11.646624 1.086533 -20.765647 0
M  V30 53 H 10.117497 1.896658 -20.519429 0
M  V30 54 H 9.376389 6.683473 -13.088572 0
M  V30 55 H 10.992830 6.207105 -12.582313 0
M  V30 56 H 10.314712 5.559231 -14.050877 0
M  V30 57 H 11.489176 8.381154 -10.714419 0
M  V30 58 H 11.756961 9.631994 -9.524468 0
M  V30 59 H 8.710406 6.513823 -7.124280 0
M  V30 60 H 7.860156 5.695395 -8.375174 0
M  V30 61 H 9.448128 5.099857 -7.867063 0
M  V30 62 H 9.030780 3.949961 -14.781469 0
M  V30 63 H 7.543666 4.829605 -14.795614 0
M  V30 64 H 8.122566 8.326070 -10.803937 0
M  V30 65 H 4.271894 -1.065917 -16.141795 0
M  V30 66 H 5.817898 -1.413275 -16.636898 0
M  V30 67 H 9.712716 0.597691 -22.918689 0
M  V30 68 H 8.313766 0.831188 -21.827825 0
M  V30 69 H 10.208409 3.874141 -12.172328 0
M  V30 70 H 6.275768 2.602930 -14.500762 0
M  V30 71 H 9.332322 -2.156243 -16.487815 0
M  V30 72 H 10.638266 -0.868400 -21.210034 0
M  V30 73 H 5.393056 -1.561770 -15.035949 0
M  V30 END ATOM
M  V30 BEGIN BOND
M  V30 1 1 5 1
M  V30 2 1 8 7
M  V30 3 1 9 1
M  V30 4 1 10 2
M  V30 5 1 11 9
M  V30 6 2 14 9
M  V30 7 1 15 1
M  V30 8 1 15 5
M  V30 9 1 17 4
M  V30 10 1 17 7
M  V30 11 1 20 10
M  V30 12 1 20 18
M  V30 13 1 1 22 CFG=3
M  V30 14 1 22 12
M  V30 15 1 23 5
M  V30 16 1 24 4
M  V30 17 1 25 3
M  V30 18 1 25 16
M  V30 19 2 25 19
M  V30 20 1 26 15
M  V30 21 2 27 2
M  V30 22 1 27 6
M  V30 23 1 27 19
M  V30 24 2 28 9
M  V30 25 1 29 17
M  V30 26 1 30 16
M  V30 27 1 31 13
M  V30 28 1 31 18
M  V30 29 1 32 4
M  V30 30 1 32 8
M  V30 31 1 32 21
M  V30 32 1 5 33 CFG=3
M  V30 33 1 33 8
M  V30 34 2 34 3
M  V30 35 1 34 24
M  V30 36 1 35 2
M  V30 37 1 36 3
M  V30 38 1 4 37 CFG=1
M  V30 39 1 38 6
M  V30 40 1 39 7
M  V30 41 1 8 40 CFG=1
M  V30 42 1 41 10
M  V30 43 1 42 10
M  V30 44 1 43 12
M  V30 45 1 44 12
M  V30 46 1 45 12
M  V30 47 1 46 13
M  V30 48 1 15 47 CFG=1
M  V30 49 1 48 16
M  V30 50 1 49 16
M  V30 51 1 17 50 CFG=1
M  V30 52 1 51 18
M  V30 53 1 52 20
M  V30 54 1 53 20
M  V30 55 1 54 21
M  V30 56 1 55 21
M  V30 57 1 56 21
M  V30 58 1 57 22
M  V30 59 1 58 22
M  V30 60 1 59 23
M  V30 61 1 60 23
M  V30 62 1 61 23
M  V30 63 1 62 24
M  V30 64 1 63 24
M  V30 65 1 64 26
M  V30 66 1 65 30
M  V30 67 1 66 30
M  V30 68 1 67 31
M  V30 69 1 68 31
M  V30 70 1 32 69 CFG=1
M  V30 71 1 70 34
M  V30 72 1 71 6
M  V30 73 1 72 18
M  V30 74 1 73 30
M  V30 END BOND
M  V30 END CTAB
M  END
>  <i_epik_Tot_Q>  (1) 
1

>  <i_epik_Tot_abs_Q>  (1) 
3

>  <i_i_glide_confnum>  (1) 
2049

>  <i_i_glide_lignum>  (1) 
30

>  <i_i_glide_posenum>  (1) 
229

>  <i_i_glide_rotatable_bonds>  (1) 
15

>  <i_lp_mmshare_version>  (1) 
72125

>  <i_m_source_file_index>  (1) 
11

>  <i_f3d_flags>  (1) 
0

>  <num_sample>  (1) 
50

>  <b_lp_Chiralities_Consistent>  (1) 
1

>  <r_epik_Charging_Adjusted_Penalty>  (1) 
2.168687317063887

>  <r_epik_Ionization_Penalty>  (1) 
1.1047352072338965

>  <r_epik_Ionization_Penalty_Charging>  (1) 
1.0999234457570315

>  <r_epik_Ionization_Penalty_Neutral>  (1) 
0.0048117614768649203

>  <r_epik_State_Penalty>  (1) 
1.0687638713068555

>  <r_glide_ring_energy>  (1) 
0

>  <r_i_docking_score>  (1) 
-3.5474727710528011

>  <r_i_glide_ecoul>  (1) 
-10.504887981409347

>  <r_i_glide_eff_state_penalty>  (1) 
1.0687638713068555

>  <r_i_glide_einternal>  (1) 
20.015169615821165

>  <r_i_glide_emodel>  (1) 
-43.312660122400061

>  <r_i_glide_emodel_strain>  (1) 
4.6971229875877327

>  <r_i_glide_energy>  (1) 
-39.961454374289453

>  <r_i_glide_erotb>  (1) 
0.82219216958862984

>  <r_i_glide_esite>  (1) 
-0.033068512912401385

>  <r_i_glide_evdw>  (1) 
-29.456566392880106

>  <r_i_glide_gscore>  (1) 
-4.6162366423596568

>  <r_i_glide_gscore_strain>  (1) 
0.17428074689693318

>  <r_i_glide_hbond>  (1) 
-0.44925931354047732

>  <r_i_glide_ligand_efficiency>  (1) 
-0.10433743444272944

>  <r_i_glide_ligand_efficiency_ln>  (1) 
-0.78373623836639239

>  <r_i_glide_ligand_efficiency_sa>  (1) 
-0.33801278393568213

>  <r_i_glide_lipo>  (1) 
-1.2991776853264814

>  <r_i_glide_metal>  (1) 
-0

>  <r_i_glide_rewards>  (1) 
-0.78264253021045183

>  <r_lp_Energy>  (1) 
21.193534

>  <s_epik_Chemistry_Notes>  (1) 
This compound has an imine and may undergo hydrolysis. This compound contains an acetal/aminal-like group ( X-CH(R)-Y where X, Y are N, S, or O) that may be acid/base labile, releasing an aldehyde.

>  <s_epik_cmdline>  (1) 
J2VwaWtfcHl0aG9uJywgJy1waHQnLCAnMS4wJywgJy1waCcsICc3LjQnLCAnLXRuJywgJzgnLCAnLW1hJywgJzUwMCcsICctaW1hZScsICc8aW5maWxlLm1hZT4nLCAnLW9tYWUnLCAnPG91dGZpbGUubWFlPic=

>  <s_epik_input>  (1) 
W1NIXVMoPU8pKD1PKVtDQEBdMShbQ0gyXVtDSDNdKVtDQEBdKFtDSDNdKShbQ0BASF0xW09IXSlPW0NASF0oW0NAQEhdMltDSDNdKVtOSF1bQ0BASF0oRilbQ0BIXTJbQ0gyXVxbQ0hdPVtDSF1cQyhbQ0gyXVtOSDJdKT1OL0MoPU4vW0hdKS9bQ0gyXVtDSDJdW0NIMl1bTkhdW0NIMl1bT0hd

>  <s_glide_docking_method>  (1) 
confgen

>  <s_i_glide_gridfile>  (1) 
gpcr_drd2_6luq_protein_autoprepared_prepared

>  <s_lp_Force_Field>  (1) 
S-OPLS

>  <s_lp_Variant>  (1) 
DiffSBDD_10_num_sample_50-10

>  <s_m_source_file>  (1) 
generated__ligand_DiffSBDD_2026-05-06_prepared.sdf

>  <GenAI_Model>  (1) 
DiffSBDD

>  <Protein>  (1) 
generic_title2

$$$$
DiffSBDD_10_num_sample_50
     RDKit          3D

  0  0  0  0  0  0  0  0  0  0999 V3000
M  V30 BEGIN CTAB
M  V30 COUNTS 72 73 0 0 1
M  V30 BEGIN ATOM
M  V30 1 C 12.117280 4.495061 -19.234889 0 CFG=2
M  V30 2 C 8.660970 6.381338 -11.733904 0
M  V30 3 C 6.187077 6.850756 -15.403090 0
M  V30 4 C 7.598886 4.087306 -16.875175 0 CFG=1
M  V30 5 C 11.196367 3.271549 -19.019745 0 CFG=2
M  V30 6 N 8.195960 4.090413 -12.334747 0
M  V30 7 N 9.216121 2.318308 -17.091477 0
M  V30 8 C 8.880522 2.778892 -18.402934 0 CFG=1
M  V30 9 S 13.719361 4.176210 -20.167046 0
M  V30 10 C 9.118161 6.091212 -10.322690 0
M  V30 11 S 12.927255 3.641635 -22.056511 0 CHG=-1
M  V30 12 C 12.327151 7.017989 -18.646424 0
M  V30 13 O 10.217587 6.718352 -6.143029 0
M  V30 14 O 14.450478 5.437771 -20.356757 0
M  V30 15 C 12.106996 3.752901 -17.906872 0 CFG=2
M  V30 16 C 5.895271 7.023719 -12.850819 0
M  V30 17 C 8.568213 3.178447 -16.109714 0 CFG=2
M  V30 18 N 9.476356 7.274585 -8.146796 0 CHG=1
M  V30 19 N 7.770942 5.776204 -13.871919 0
M  V30 20 C 9.625170 7.359358 -9.613633 0
M  V30 21 C 7.186339 4.379188 -19.489751 0
M  V30 22 C 11.579365 5.919511 -19.423535 0
M  V30 23 C 11.367164 1.899748 -19.667892 0
M  V30 24 C 7.966594 5.582742 -16.775700 0
M  V30 25 C 6.711216 6.485049 -14.041171 0
M  V30 26 O 11.439846 4.407160 -16.846007 0
M  V30 27 C 8.235277 5.441575 -12.600883 0
M  V30 28 O 14.422528 3.007827 -19.612866 0
M  V30 29 F 7.904601 2.415451 -15.237341 0
M  V30 30 N 5.435125 5.986285 -11.939624 0
M  V30 31 C 10.397410 6.337001 -7.487549 0
M  V30 32 C 7.529120 3.480684 -18.286575 0 CFG=2
M  V30 33 O 9.825906 3.690049 -18.891300 0
M  V30 34 C 6.729610 6.458083 -16.590130 0
M  V30 35 H 8.668537 7.418228 -12.037322 0
M  V30 36 H 5.305933 7.473870 -15.397630 0
M  V30 37 H 6.634841 3.976425 -16.392635 0
M  V30 38 H 8.596968 3.704921 -11.491754 0
M  V30 39 H 10.214156 2.363853 -16.941729 0
M  V30 40 H 8.817586 1.937988 -19.094215 0
M  V30 41 H 9.834217 5.274352 -10.302702 0
M  V30 42 H 8.229703 5.730823 -9.802434 0
M  V30 43 H 11.863339 7.988434 -18.824187 0
M  V30 44 H 12.300147 6.836698 -17.573152 0
M  V30 45 H 13.370427 7.108647 -18.938853 0
M  V30 46 H 10.041950 5.944488 -5.624074 0
M  V30 47 H 12.946345 3.137606 -17.592639 0
M  V30 48 H 6.489951 7.749052 -12.297944 0
M  V30 49 H 5.035026 7.577691 -13.213461 0
M  V30 50 H 9.290347 3.769624 -15.547361 0
M  V30 51 H 8.510215 7.032817 -7.950532 0
M  V30 52 H 9.034839 8.222244 -9.926650 0
M  V30 53 H 10.657025 7.576793 -9.891003 0
M  V30 54 H 7.935574 5.147218 -19.676293 0
M  V30 55 H 7.106345 3.784983 -20.399963 0
M  V30 56 H 6.230337 4.877768 -19.336532 0
M  V30 57 H 11.593785 6.148429 -20.490147 0
M  V30 58 H 10.533355 5.957619 -19.124915 0
M  V30 59 H 12.412836 1.642490 -19.809157 0
M  V30 60 H 10.934122 1.120485 -19.041977 0
M  V30 61 H 10.877987 1.884324 -20.641517 0
M  V30 62 H 8.466975 5.907187 -17.685622 0
M  V30 63 H 8.740932 5.770580 -16.039867 0
M  V30 64 H 12.081042 4.839811 -16.302584 0
M  V30 65 H 6.239609 5.429039 -11.677948 0
M  V30 66 H 5.115761 6.423732 -11.085347 0
M  V30 67 H 11.432390 6.503657 -7.791704 0
M  V30 68 H 10.111810 5.300925 -7.669845 0
M  V30 69 H 6.782105 2.686729 -18.248724 0
M  V30 70 H 6.254315 6.783557 -17.503492 0
M  V30 71 H 7.953708 3.422377 -13.054381 0
M  V30 72 H 9.648022 8.188633 -7.756575 0
M  V30 END ATOM
M  V30 BEGIN BOND
M  V30 1 1 5 1
M  V30 2 1 8 7
M  V30 3 1 9 1
M  V30 4 1 10 2
M  V30 5 1 11 9
M  V30 6 2 14 9
M  V30 7 1 15 1
M  V30 8 1 15 5
M  V30 9 1 17 4
M  V30 10 1 17 7
M  V30 11 1 20 10
M  V30 12 1 20 18
M  V30 13 1 1 22 CFG=1
M  V30 14 1 22 12
M  V30 15 1 23 5
M  V30 16 1 24 4
M  V30 17 1 25 3
M  V30 18 1 25 16
M  V30 19 2 25 19
M  V30 20 1 26 15
M  V30 21 2 27 2
M  V30 22 1 27 6
M  V30 23 1 27 19
M  V30 24 2 28 9
M  V30 25 1 29 17
M  V30 26 1 30 16
M  V30 27 1 31 13
M  V30 28 1 31 18
M  V30 29 1 32 4
M  V30 30 1 32 8
M  V30 31 1 32 21
M  V30 32 1 5 33 CFG=1
M  V30 33 1 33 8
M  V30 34 2 34 3
M  V30 35 1 34 24
M  V30 36 1 35 2
M  V30 37 1 36 3
M  V30 38 1 4 37 CFG=1
M  V30 39 1 38 6
M  V30 40 1 39 7
M  V30 41 1 8 40 CFG=3
M  V30 42 1 41 10
M  V30 43 1 42 10
M  V30 44 1 43 12
M  V30 45 1 44 12
M  V30 46 1 45 12
M  V30 47 1 46 13
M  V30 48 1 15 47 CFG=1
M  V30 49 1 48 16
M  V30 50 1 49 16
M  V30 51 1 17 50 CFG=1
M  V30 52 1 51 18
M  V30 53 1 52 20
M  V30 54 1 53 20
M  V30 55 1 54 21
M  V30 56 1 55 21
M  V30 57 1 56 21
M  V30 58 1 57 22
M  V30 59 1 58 22
M  V30 60 1 59 23
M  V30 61 1 60 23
M  V30 62 1 61 23
M  V30 63 1 62 24
M  V30 64 1 63 24
M  V30 65 1 64 26
M  V30 66 1 65 30
M  V30 67 1 66 30
M  V30 68 1 67 31
M  V30 69 1 68 31
M  V30 70 1 32 69 CFG=1
M  V30 71 1 70 34
M  V30 72 1 71 6
M  V30 73 1 72 18
M  V30 END BOND
M  V30 END CTAB
M  END
>  <i_epik_Tot_Q>  (1) 
0

>  <i_epik_Tot_abs_Q>  (1) 
2

>  <i_i_glide_confnum>  (1) 
2690

>  <i_i_glide_lignum>  (1) 
27

>  <i_i_glide_posenum>  (1) 
148

>  <i_i_glide_rotatable_bonds>  (1) 
15

>  <i_lp_mmshare_version>  (1) 
72125

>  <i_m_source_file_index>  (1) 
11

>  <i_f3d_flags>  (1) 
0

>  <num_sample>  (1) 
50

>  <b_lp_Chiralities_Consistent>  (1) 
1

>  <r_epik_Charging_Adjusted_Penalty>  (1) 
0.33639934582642134

>  <r_epik_Ionization_Penalty>  (1) 
0.23315943830934333

>  <r_epik_Ionization_Penalty_Charging>  (1) 
0.10316865490585193

>  <r_epik_Ionization_Penalty_Neutral>  (1) 
0.12999078340349141

>  <r_epik_State_Penalty>  (1) 
0.23323069092056939

>  <r_glide_ring_energy>  (1) 
0

>  <r_i_docking_score>  (1) 
-3.5469385690351096

>  <r_i_glide_ecoul>  (1) 
-5.1975673330806007

>  <r_i_glide_eff_state_penalty>  (1) 
0.23323069092056939

>  <r_i_glide_einternal>  (1) 
20.752552170355781

>  <r_i_glide_emodel>  (1) 
-28.684233712263776

>  <r_i_glide_emodel_strain>  (1) 
2.7662923104539061

>  <r_i_glide_energy>  (1) 
-30.988367323541567

>  <r_i_glide_erotb>  (1) 
0.57757419641111274

>  <r_i_glide_esite>  (1) 
-0.10000000000000001

>  <r_i_glide_evdw>  (1) 
-25.790799990460968

>  <r_i_glide_gscore>  (1) 
-3.7801692599556791

>  <r_i_glide_gscore_strain>  (1) 
0

>  <r_i_glide_hbond>  (1) 
-0.068008444824792708

>  <r_i_glide_ligand_efficiency>  (1) 
-0.1043217226186797

>  <r_i_glide_ligand_efficiency_ln>  (1) 
-0.78361821815682531

>  <r_i_glide_ligand_efficiency_sa>  (1) 
-0.33796188372507097

>  <r_i_glide_lipo>  (1) 
-0.73921181191784169

>  <r_i_glide_metal>  (1) 
-0

>  <r_i_glide_rewards>  (1) 
-1.3813481001390184

>  <r_lp_Energy>  (1) 
31.214245999999999

>  <s_epik_Chemistry_Notes>  (1) 
This compound has an imine and may undergo hydrolysis. This compound contains an acetal/aminal-like group ( X-CH(R)-Y where X, Y are N, S, or O) that may be acid/base labile, releasing an aldehyde.

>  <s_epik_cmdline>  (1) 
J2VwaWtfcHl0aG9uJywgJy1waHQnLCAnMS4wJywgJy1waCcsICc3LjQnLCAnLXRuJywgJzgnLCAnLW1hJywgJzUwMCcsICctaW1hZScsICc8aW5maWxlLm1hZT4nLCAnLW9tYWUnLCAnPG91dGZpbGUubWFlPic=

>  <s_epik_input>  (1) 
W1NIXVMoPU8pKD1PKVtDQEBdMShbQ0gyXVtDSDNdKVtDQEBdKFtDSDNdKShbQ0BASF0xW09IXSlPW0NASF0oW0NAQEhdMltDSDNdKVtOSF1bQ0BASF0oRilbQ0BIXTJbQ0gyXS9bQ0hdPVtDSF1cQyhbQ0gyXVtOSDJdKT1OXEMoPU5cW0hdKVxbQ0gyXVtDSDJdW0NIMl1bTkhdW0NIMl1bT0hd

>  <s_glide_docking_method>  (1) 
confgen

>  <s_i_glide_gridfile>  (1) 
gpcr_drd2_6luq_protein_autoprepared_prepared

>  <s_lp_Force_Field>  (1) 
S-OPLS

>  <s_lp_Variant>  (1) 
DiffSBDD_10_num_sample_50-7

>  <s_m_source_file>  (1) 
generated__ligand_DiffSBDD_2026-05-06_prepared.sdf

>  <GenAI_Model>  (1) 
DiffSBDD

>  <Protein>  (1) 
generic_title2

$$$$
DiffSBDD_10_num_sample_50
     RDKit          3D

  0  0  0  0  0  0  0  0  0  0999 V3000
M  V30 BEGIN CTAB
M  V30 COUNTS 73 74 0 0 1
M  V30 BEGIN ATOM
M  V30 1 C 6.122780 -1.599076 -18.767485 0 CFG=2
M  V30 2 C 8.892393 4.714720 -10.832675 0
M  V30 3 C 7.190370 5.631290 -14.945648 0
M  V30 4 C 8.053960 2.243908 -15.356960 0 CFG=1
M  V30 5 C 7.438961 -1.506854 -17.965938 0 CFG=2
M  V30 6 N 6.486878 4.417863 -10.691612 0
M  V30 7 N 9.094562 0.909973 -17.091080 0
M  V30 8 C 8.359000 0.002185 -16.259515 0 CFG=1
M  V30 9 S 5.685703 -3.253665 -19.578845 0
M  V30 10 C 9.152399 4.749796 -9.322979 0
M  V30 11 S 5.571271 -2.626652 -21.590266 0 CHG=-1
M  V30 12 C 4.366617 -1.384635 -16.961002 0
M  V30 13 O 11.341303 8.391774 -9.566657 0
M  V30 14 O 6.782593 -4.230709 -19.521353 0
M  V30 15 C 7.360283 -0.973431 -19.382170 0 CFG=2
M  V30 16 C 7.344816 6.993171 -12.773365 0
M  V30 17 C 8.638552 2.256199 -16.795366 0 CFG=2
M  V30 18 N 9.434851 7.247866 -9.490056 0 CHG=1
M  V30 19 N 7.496400 4.540911 -12.780766 0
M  V30 20 C 9.814451 6.022928 -8.762729 0
M  V30 21 C 6.568374 0.275263 -14.398947 0
M  V30 22 C 4.883141 -0.843777 -18.300755 0
M  V30 23 C 8.235202 -2.747655 -17.585979 0
M  V30 24 C 6.813531 3.089731 -15.241791 0
M  V30 25 C 7.351313 5.620970 -13.453219 0
M  V30 26 O 7.368125 0.440461 -19.424318 0
M  V30 27 C 7.668164 4.562345 -11.395222 0
M  V30 28 O 4.326482 -3.657177 -19.187762 0
M  V30 29 F 9.625328 3.133246 -16.961933 0
M  V30 30 N 6.166607 7.120590 -11.891682 0 CHG=1
M  V30 31 C 10.052602 8.489301 -8.994801 0
M  V30 32 C 7.909116 0.754074 -14.986879 0 CFG=2
M  V30 33 O 7.248351 -0.522880 -16.925744 0
M  V30 34 C 6.968919 4.534608 -15.722869 0
M  V30 35 H 9.759460 4.818955 -11.470785 0
M  V30 36 H 7.258584 6.605815 -15.404358 0
M  V30 37 H 8.634841 2.724795 -14.592364 0
M  V30 38 H 6.489506 4.301708 -9.684273 0
M  V30 39 H 8.974974 0.705676 -18.076882 0
M  V30 40 H 9.004828 -0.815548 -15.953319 0
M  V30 41 H 9.834691 3.929015 -9.086005 0
M  V30 42 H 8.228157 4.569272 -8.775272 0
M  V30 43 H 3.435757 -0.901087 -16.670085 0
M  V30 44 H 4.234839 -2.463330 -16.997425 0
M  V30 45 H 5.069798 -1.222876 -16.153194 0
M  V30 46 H 11.921322 9.005599 -9.137156 0
M  V30 47 H 7.912814 -1.469566 -20.176727 0
M  V30 48 H 8.256529 7.118579 -12.189370 0
M  V30 49 H 7.341061 7.796316 -13.509881 0
M  V30 50 H 7.869728 2.508381 -17.527319 0
M  V30 51 H 8.417163 7.369368 -9.422264 0
M  V30 52 H 10.898194 5.924001 -8.772974 0
M  V30 53 H 9.537294 6.131972 -7.712650 0
M  V30 54 H 5.725352 0.528407 -15.038763 0
M  V30 55 H 6.569197 -0.803311 -14.245794 0
M  V30 56 H 6.385311 0.736069 -13.427843 0
M  V30 57 H 5.096611 0.219997 -18.198084 0
M  V30 58 H 4.110684 -0.926413 -19.065939 0
M  V30 59 H 8.634822 -3.215930 -18.478486 0
M  V30 60 H 9.087865 -2.542339 -16.949765 0
M  V30 61 H 7.588576 -3.470896 -17.091657 0
M  V30 62 H 6.288354 2.992279 -14.293493 0
M  V30 63 H 6.234839 2.569478 -15.985791 0
M  V30 64 H 6.815088 0.732016 -18.713091 0
M  V30 65 H 6.338013 7.805727 -11.162019 0
M  V30 66 H 5.330438 7.343369 -12.410707 0
M  V30 67 H 10.076344 8.531147 -7.904924 0
M  V30 68 H 9.526485 9.361119 -9.384193 0
M  V30 69 H 8.663988 0.540858 -14.230706 0
M  V30 70 H 6.883338 4.675620 -16.790541 0
M  V30 71 H 5.639773 4.124400 -11.159627 0
M  V30 72 H 9.678858 7.141198 -10.461491 0
M  V30 73 H 6.056484 6.228679 -11.419078 0
M  V30 END ATOM
M  V30 BEGIN BOND
M  V30 1 1 5 1
M  V30 2 1 8 7
M  V30 3 1 9 1
M  V30 4 1 10 2
M  V30 5 1 11 9
M  V30 6 2 14 9
M  V30 7 1 15 1
M  V30 8 1 15 5
M  V30 9 1 17 4
M  V30 10 1 17 7
M  V30 11 1 20 10
M  V30 12 1 20 18
M  V30 13 1 1 22 CFG=1
M  V30 14 1 22 12
M  V30 15 1 23 5
M  V30 16 1 24 4
M  V30 17 1 25 3
M  V30 18 1 25 16
M  V30 19 2 25 19
M  V30 20 1 26 15
M  V30 21 2 27 2
M  V30 22 1 27 6
M  V30 23 1 27 19
M  V30 24 2 28 9
M  V30 25 1 29 17
M  V30 26 1 30 16
M  V30 27 1 31 13
M  V30 28 1 31 18
M  V30 29 1 32 4
M  V30 30 1 32 8
M  V30 31 1 32 21
M  V30 32 1 5 33 CFG=1
M  V30 33 1 33 8
M  V30 34 2 34 3
M  V30 35 1 34 24
M  V30 36 1 35 2
M  V30 37 1 36 3
M  V30 38 1 4 37 CFG=1
M  V30 39 1 38 6
M  V30 40 1 39 7
M  V30 41 1 8 40 CFG=1
M  V30 42 1 41 10
M  V30 43 1 42 10
M  V30 44 1 43 12
M  V30 45 1 44 12
M  V30 46 1 45 12
M  V30 47 1 46 13
M  V30 48 1 15 47 CFG=3
M  V30 49 1 48 16
M  V30 50 1 49 16
M  V30 51 1 17 50 CFG=3
M  V30 52 1 51 18
M  V30 53 1 52 20
M  V30 54 1 53 20
M  V30 55 1 54 21
M  V30 56 1 55 21
M  V30 57 1 56 21
M  V30 58 1 57 22
M  V30 59 1 58 22
M  V30 60 1 59 23
M  V30 61 1 60 23
M  V30 62 1 61 23
M  V30 63 1 62 24
M  V30 64 1 63 24
M  V30 65 1 64 26
M  V30 66 1 65 30
M  V30 67 1 66 30
M  V30 68 1 67 31
M  V30 69 1 68 31
M  V30 70 1 32 69 CFG=1
M  V30 71 1 70 34
M  V30 72 1 71 6
M  V30 73 1 72 18
M  V30 74 1 73 30
M  V30 END BOND
M  V30 END CTAB
M  END
>  <i_epik_Tot_Q>  (1) 
1

>  <i_epik_Tot_abs_Q>  (1) 
3

>  <i_i_glide_confnum>  (1) 
1677

>  <i_i_glide_lignum>  (1) 
35

>  <i_i_glide_posenum>  (1) 
347

>  <i_i_glide_rotatable_bonds>  (1) 
15

>  <i_lp_mmshare_version>  (1) 
72125

>  <i_m_source_file_index>  (1) 
11

>  <i_f3d_flags>  (1) 
0

>  <num_sample>  (1) 
50

>  <b_lp_Chiralities_Consistent>  (1) 
1

>  <r_epik_Charging_Adjusted_Penalty>  (1) 
2.168687317063887

>  <r_epik_Ionization_Penalty>  (1) 
1.1047352072338965

>  <r_epik_Ionization_Penalty_Charging>  (1) 
1.0999234457570315

>  <r_epik_Ionization_Penalty_Neutral>  (1) 
0.0048117614768649203

>  <r_epik_State_Penalty>  (1) 
1.0687638713068555

>  <r_glide_ring_energy>  (1) 
0

>  <r_i_docking_score>  (1) 
-3.5415568669763697

>  <r_i_glide_ecoul>  (1) 
-10.000755241661128

>  <r_i_glide_eff_state_penalty>  (1) 
1.0687638713068555

>  <r_i_glide_einternal>  (1) 
12.345779066289397

>  <r_i_glide_emodel>  (1) 
-44.655671516871323

>  <r_i_glide_emodel_strain>  (1) 
3.2327364222920068

>  <r_i_glide_energy>  (1) 
-37.468711950308986

>  <r_i_glide_erotb>  (1) 
0.82219216958862984

>  <r_i_glide_esite>  (1) 
-0.32708593729637325

>  <r_i_glide_evdw>  (1) 
-27.467956708647854

>  <r_i_glide_gscore>  (1) 
-4.6103207382832254

>  <r_i_glide_gscore_strain>  (1) 
0

>  <r_i_glide_hbond>  (1) 
-0.50009848513239497

>  <r_i_glide_ligand_efficiency>  (1) 
-0.10416343726401088

>  <r_i_glide_ligand_efficiency_ln>  (1) 
-0.78242924922042001

>  <r_i_glide_ligand_efficiency_sa>  (1) 
-0.33744910062211647

>  <r_i_glide_lipo>  (1) 
-1.2978867340105475

>  <r_i_glide_metal>  (1) 
-0

>  <r_i_glide_rewards>  (1) 
-0.43393062975097785

>  <r_lp_Energy>  (1) 
30.519554999999997

>  <s_epik_Chemistry_Notes>  (1) 
This compound has an imine and may undergo hydrolysis. This compound contains an acetal/aminal-like group ( X-CH(R)-Y where X, Y are N, S, or O) that may be acid/base labile, releasing an aldehyde.

>  <s_epik_cmdline>  (1) 
J2VwaWtfcHl0aG9uJywgJy1waHQnLCAnMS4wJywgJy1waCcsICc3LjQnLCAnLXRuJywgJzgnLCAnLW1hJywgJzUwMCcsICctaW1hZScsICc8aW5maWxlLm1hZT4nLCAnLW9tYWUnLCAnPG91dGZpbGUubWFlPic=

>  <s_epik_input>  (1) 
W1NIXVMoPU8pKD1PKVtDQEBdMShbQ0gyXVtDSDNdKVtDQEBdKFtDSDNdKShbQ0BASF0xW09IXSlPW0NASF0oW0NAQEhdMltDSDNdKVtOSF1bQ0BASF0oRilbQ0BIXTJbQ0gyXS9bQ0hdPVtDSF1cQyhbQ0gyXVtOSDJdKT1OXEMoPU5cW0hdKVxbQ0gyXVtDSDJdW0NIMl1bTkhdW0NIMl1bT0hd

>  <s_glide_docking_method>  (1) 
confgen

>  <s_i_glide_gridfile>  (1) 
gpcr_drd2_6luq_protein_autoprepared_prepared

>  <s_lp_Force_Field>  (1) 
S-OPLS

>  <s_lp_Variant>  (1) 
DiffSBDD_10_num_sample_50-15

>  <s_m_source_file>  (1) 
generated__ligand_DiffSBDD_2026-05-06_prepared.sdf

>  <GenAI_Model>  (1) 
DiffSBDD

>  <Protein>  (1) 
generic_title2

$$$$
DiffSBDD_44_num_sample_50
     RDKit          3D

  0  0  0  0  0  0  0  0  0  0999 V3000
M  V30 BEGIN CTAB
M  V30 COUNTS 61 64 0 0 1
M  V30 BEGIN ATOM
M  V30 1 C 14.609688 -0.748655 -19.717787 0
M  V30 2 C 16.988738 8.517127 -18.770059 0 CFG=1
M  V30 3 C 16.099855 9.150465 -21.067762 0
M  V30 4 C 14.741667 1.651304 -18.931905 0 CFG=1
M  V30 5 C 16.014943 -0.571213 -20.304670 0
M  V30 6 C 18.739289 8.024911 -22.108642 0
M  V30 7 C 14.417264 0.193934 -18.517978 0 CFG=1
M  V30 8 O 11.982231 0.462139 -18.733822 0
M  V30 9 N 14.832641 4.014313 -18.231805 0
M  V30 10 C 16.310886 0.902399 -20.639438 0 CFG=2
M  V30 11 C 15.750284 9.240642 -18.152910 0
M  V30 12 O 16.359790 8.029898 -23.269465 0
M  V30 13 C 14.721947 2.640121 -17.750698 0
M  V30 14 C 15.711937 6.290428 -18.378351 0 CFG=2
M  V30 15 O 16.634423 4.569327 -16.974062 0
M  V30 16 C 18.166494 7.714991 -20.944175 0
M  V30 17 C 15.931214 9.167066 -22.430560 0
M  V30 18 C 13.021101 0.018218 -17.884264 0
M  V30 19 C 16.926620 9.165967 -23.275011 0
M  V30 20 O 16.055819 1.712118 -19.491547 0
M  V30 21 C 18.371595 9.209920 -22.922442 0
M  V30 22 C 15.558174 1.425520 -21.876406 0
M  V30 23 F 17.604534 0.969647 -20.950683 0
M  V30 24 C 15.769340 4.873058 -17.797195 0
M  V30 25 C 17.015025 7.089601 -18.146715 0
M  V30 26 C 14.527430 7.036915 -17.744309 0
M  V30 27 C 17.061277 8.475796 -20.324508 0
M  V30 28 C 14.420930 8.463719 -18.279363 0
M  V30 29 C 18.241239 9.277903 -18.282251 0
M  V30 30 H 14.463511 -1.785490 -19.414073 0
M  V30 31 H 13.858070 -0.547549 -20.481535 0
M  V30 32 H 15.349580 9.682816 -20.516609 0
M  V30 33 H 14.014754 1.987057 -19.671594 0
M  V30 34 H 16.749784 -0.921115 -19.578482 0
M  V30 35 H 16.139979 -1.198432 -21.187547 0
M  V30 36 H 19.554181 7.419715 -22.478220 0
M  V30 37 H 15.143941 -0.101622 -17.759541 0
M  V30 38 H 11.998416 1.406380 -18.775806 0
M  V30 39 H 14.156531 4.330563 -18.911094 0
M  V30 40 H 15.641854 10.257563 -18.529042 0
M  V30 41 H 15.936607 9.381668 -17.091754 0
M  V30 42 H 13.770287 2.588149 -17.223855 0
M  V30 43 H 15.480917 2.373682 -17.015495 0
M  V30 44 H 15.547576 6.197596 -19.453225 0
M  V30 45 H 18.567164 6.872188 -20.406341 0
M  V30 46 H 12.954796 0.547354 -16.935935 0
M  V30 47 H 12.849087 -1.030153 -17.652017 0
M  V30 48 H 18.961829 9.218312 -23.837644 0
M  V30 49 H 18.601871 10.127087 -22.378578 0
M  V30 50 H 14.476555 1.354885 -21.772213 0
M  V30 51 H 15.806035 2.470503 -22.064694 0
M  V30 52 H 15.832761 0.859621 -22.766887 0
M  V30 53 H 17.166887 7.188929 -17.072022 0
M  V30 54 H 17.875029 6.511246 -18.477927 0
M  V30 55 H 13.589603 6.514954 -17.940625 0
M  V30 56 H 14.636412 7.054141 -16.659080 0
M  V30 57 H 14.073293 8.430909 -19.310791 0
M  V30 58 H 13.642817 8.969407 -17.714955 0
M  V30 59 H 18.263404 9.370991 -17.195794 0
M  V30 60 H 19.161227 8.772037 -18.575375 0
M  V30 61 H 18.277027 10.285696 -18.696806 0
M  V30 END ATOM
M  V30 BEGIN BOND
M  V30 1 1 5 1
M  V30 2 1 7 1
M  V30 3 1 7 4
M  V30 4 1 10 5
M  V30 5 1 11 2
M  V30 6 1 13 4
M  V30 7 1 13 9
M  V30 8 2 16 6
M  V30 9 1 17 3
M  V30 10 1 17 12
M  V30 11 1 18 7
M  V30 12 1 18 8
M  V30 13 1 19 12
M  V30 14 2 19 17
M  V30 15 1 20 4
M  V30 16 1 20 10
M  V30 17 1 21 6
M  V30 18 1 21 19
M  V30 19 1 22 10
M  V30 20 1 10 23 CFG=3
M  V30 21 1 24 9
M  V30 22 1 24 14
M  V30 23 2 24 15
M  V30 24 1 25 2
M  V30 25 1 25 14
M  V30 26 1 26 14
M  V30 27 1 27 2
M  V30 28 2 27 3
M  V30 29 1 27 16
M  V30 30 1 28 11
M  V30 31 1 28 26
M  V30 32 1 2 29 CFG=1
M  V30 33 1 30 1
M  V30 34 1 31 1
M  V30 35 1 32 3
M  V30 36 1 4 33 CFG=3
M  V30 37 1 34 5
M  V30 38 1 35 5
M  V30 39 1 36 6
M  V30 40 1 7 37 CFG=1
M  V30 41 1 38 8
M  V30 42 1 39 9
M  V30 43 1 40 11
M  V30 44 1 41 11
M  V30 45 1 42 13
M  V30 46 1 43 13
M  V30 47 1 14 44 CFG=3
M  V30 48 1 45 16
M  V30 49 1 46 18
M  V30 50 1 47 18
M  V30 51 1 48 21
M  V30 52 1 49 21
M  V30 53 1 50 22
M  V30 54 1 51 22
M  V30 55 1 52 22
M  V30 56 1 53 25
M  V30 57 1 54 25
M  V30 58 1 55 26
M  V30 59 1 56 26
M  V30 60 1 57 28
M  V30 61 1 58 28
M  V30 62 1 59 29
M  V30 63 1 60 29
M  V30 64 1 61 29
M  V30 END BOND
M  V30 END CTAB
M  END
>  <i_epik_Tot_Q>  (1) 
0

>  <i_epik_Tot_abs_Q>  (1) 
0

>  <i_i_glide_confnum>  (1) 
161

>  <i_i_glide_lignum>  (1) 
110

>  <i_i_glide_posenum>  (1) 
326

>  <i_i_glide_rotatable_bonds>  (1) 
7

>  <i_lp_mmshare_version>  (1) 
72125

>  <i_m_source_file_index>  (1) 
45

>  <i_f3d_flags>  (1) 
0

>  <num_sample>  (1) 
50

>  <b_lp_Chiralities_Consistent>  (1) 
1

>  <r_epik_Charging_Adjusted_Penalty>  (1) 
0

>  <r_epik_Ionization_Penalty>  (1) 
7.6933096193548639e-08

>  <r_epik_Ionization_Penalty_Charging>  (1) 
0

>  <r_epik_Ionization_Penalty_Neutral>  (1) 
7.6933096193548639e-08

>  <r_epik_State_Penalty>  (1) 
-0

>  <r_glide_ring_energy>  (1) 
0

>  <r_i_docking_score>  (1) 
-3.5398397416132803

>  <r_i_glide_ecoul>  (1) 
-5.573942198381058

>  <r_i_glide_eff_state_penalty>  (1) 
-0

>  <r_i_glide_einternal>  (1) 
16.054765494623791

>  <r_i_glide_emodel>  (1) 
-23.223035905751722

>  <r_i_glide_emodel_strain>  (1) 
1.2100263069638686

>  <r_i_glide_energy>  (1) 
-27.071412767981489

>  <r_i_glide_erotb>  (1) 
0.71709703680073922

>  <r_i_glide_esite>  (1) 
-0.017642342798062587

>  <r_i_glide_evdw>  (1) 
-21.497470569600431

>  <r_i_glide_gscore>  (1) 
-3.5398397416132803

>  <r_i_glide_gscore_strain>  (1) 
0

>  <r_i_glide_hbond>  (1) 
-0.32064430072777839

>  <r_i_glide_ligand_efficiency>  (1) 
-0.12206343936597518

>  <r_i_glide_ligand_efficiency_ln>  (1) 
-0.81053353823852214

>  <r_i_glide_ligand_efficiency_sa>  (1) 
-0.37501755856516983

>  <r_i_glide_lipo>  (1) 
-1.1374066942458789

>  <r_i_glide_metal>  (1) 
-0

>  <r_i_glide_rewards>  (1) 
-0.87027858240511902

>  <r_lp_Energy>  (1) 
41.397649999999999

>  <r_lp_tautomer_probability>  (1) 
1

>  <s_epik_cmdline>  (1) 
J2VwaWtfcHl0aG9uJywgJy1waHQnLCAnMS4wJywgJy1waCcsICc3LjQnLCAnLXRuJywgJzgnLCAnLW1hJywgJzUwMCcsICctaW1hZScsICc8aW5maWxlLm1hZT4nLCAnLW9tYWUnLCAnPG91dGZpbGUubWFlPic=

>  <s_epik_input>  (1) 
W0NIM11bQ0BdMShGKVtDSDJdW0NIMl1bQ0BIXShbQ0gyXVtPSF0pW0NASF0oTzEpW0NIMl1bTkhdQyg9TylbQ0BIXShbQ0gyXTIpW0NIMl1bQ0gyXVtDSDJdW0NAXTIoW0NIM10pQyg9W0NIXTMpW0NIXT1bQ0hdW0NIMl1DKE80KT1DMzQ=

>  <s_glide_docking_method>  (1) 
confgen

>  <s_i_glide_gridfile>  (1) 
gpcr_drd2_6luq_protein_autoprepared_prepared

>  <s_lp_Force_Field>  (1) 
S-OPLS

>  <s_lp_Variant>  (1) 
DiffSBDD_44_num_sample_50-1

>  <s_m_source_file>  (1) 
generated__ligand_DiffSBDD_2026-05-06_prepared.sdf

>  <GenAI_Model>  (1) 
DiffSBDD

>  <Protein>  (1) 
generic_title2

$$$$
DiffSBDD_43_num_sample_50
     RDKit          3D

  0  0  0  0  0  0  0  0  0  0999 V3000
M  V30 BEGIN CTAB
M  V30 COUNTS 58 58 0 0 1
M  V30 BEGIN ATOM
M  V30 1 C 6.486227 6.634506 -14.481359 0
M  V30 2 C 6.660929 -0.120858 -14.233445 0
M  V30 3 N 11.533488 8.568812 -6.801588 0
M  V30 4 O 10.632874 6.967910 -11.202298 0
M  V30 5 C 6.995356 4.264606 -13.655100 0
M  V30 6 C 7.272297 2.207689 -15.215182 0 CFG=2
M  V30 7 C 8.354856 6.154400 -11.337953 0 CFG=1
M  V30 8 O 8.599549 1.074392 -13.491663 0
M  V30 9 O 4.636314 -0.630909 -17.099546 0
M  V30 10 N 7.139246 6.241970 -12.140382 0
M  V30 11 C 4.924875 -0.353721 -15.992991 0
M  V30 12 F 8.961984 4.981428 -11.533211 0
M  V30 13 O 6.950956 7.769254 -14.698691 0
M  V30 14 C 10.778750 6.274631 -6.122395 0
M  V30 15 C 10.675311 8.765529 -7.961394 0 CFG=1
M  V30 16 C 9.323897 7.318875 -11.630452 0
M  V30 17 C 7.305945 5.768828 -13.522588 0 CFG=2
M  V30 18 C 7.672926 3.664156 -14.896100 0
M  V30 19 O 11.093244 7.940901 -10.169630 0
M  V30 20 C 7.284616 1.259046 -13.975162 0 CFG=2
M  V30 21 F 11.688041 7.859952 -4.665425 0
M  V30 22 C 10.657658 7.612445 -8.909724 0
M  V30 23 C 5.241486 -0.036690 -14.759020 0
M  V30 24 O 5.435187 6.171638 -14.978850 0 CHG=-1
M  V30 25 C 10.234411 6.378475 -8.593810 0
M  V30 26 C 9.729934 6.006542 -7.221314 0
M  V30 27 C 8.050756 1.666676 -16.441742 0
M  V30 28 C 7.673765 2.352359 -17.763148 0
M  V30 29 F 9.423688 8.969289 -7.554384 0
M  V30 30 C 10.926267 7.758497 -5.752569 0 CFG=1
M  V30 31 H 7.287240 -0.670064 -14.931207 0
M  V30 32 H 6.635565 -0.705611 -13.313636 0
M  V30 33 H 12.419988 8.187097 -7.094108 0
M  V30 34 H 5.919094 4.086228 -13.684830 0
M  V30 35 H 7.354219 3.742605 -12.770523 0
M  V30 36 H 6.234998 2.270199 -15.529411 0
M  V30 37 H 8.069028 6.169211 -10.288313 0
M  V30 38 H 8.584369 0.969360 -12.549687 0
M  V30 39 H 6.358214 5.804403 -11.676046 0
M  V30 40 H 10.458507 5.769310 -5.213427 0
M  V30 41 H 11.742591 5.838248 -6.388457 0
M  V30 42 H 11.035332 9.619668 -8.533086 0
M  V30 43 H 9.384928 7.527009 -12.691655 0
M  V30 44 H 8.965934 8.237260 -11.162451 0
M  V30 45 H 8.343920 5.924441 -13.818786 0
M  V30 46 H 8.750823 3.768789 -14.784512 0
M  V30 47 H 7.416399 4.282045 -15.756179 0
M  V30 48 H 6.701625 1.703836 -13.170347 0
M  V30 49 H 4.489907 0.302681 -14.061979 0
M  V30 50 H 10.234907 5.595417 -9.334394 0
M  V30 51 H 8.807638 6.551857 -7.013895 0
M  V30 52 H 9.435638 4.969213 -7.258607 0
M  V30 53 H 9.124755 1.753081 -16.282551 0
M  V30 54 H 7.858037 0.604851 -16.575712 0
M  V30 55 H 8.160020 1.858922 -18.605044 0
M  V30 56 H 6.597760 2.310647 -17.935478 0
M  V30 57 H 7.978038 3.398417 -17.779373 0
M  V30 58 H 9.959099 8.169587 -5.466064 0
M  V30 END ATOM
M  V30 BEGIN BOND
M  V30 1 1 10 7
M  V30 2 2 11 9
M  V30 3 1 12 7
M  V30 4 2 13 1
M  V30 5 1 15 3
M  V30 6 1 16 4
M  V30 7 1 16 7
M  V30 8 1 17 1
M  V30 9 1 17 5
M  V30 10 1 17 10
M  V30 11 1 18 5
M  V30 12 1 18 6
M  V30 13 1 19 4
M  V30 14 1 20 2
M  V30 15 1 20 6
M  V30 16 1 20 8
M  V30 17 1 22 15
M  V30 18 1 22 19
M  V30 19 1 23 2
M  V30 20 2 23 11
M  V30 21 1 24 1
M  V30 22 2 25 22
M  V30 23 1 26 14
M  V30 24 1 26 25
M  V30 25 1 27 6
M  V30 26 1 28 27
M  V30 27 1 29 15
M  V30 28 1 30 3
M  V30 29 1 30 14
M  V30 30 1 30 21
M  V30 31 1 31 2
M  V30 32 1 32 2
M  V30 33 1 33 3
M  V30 34 1 34 5
M  V30 35 1 35 5
M  V30 36 1 6 36 CFG=3
M  V30 37 1 7 37 CFG=1
M  V30 38 1 38 8
M  V30 39 1 39 10
M  V30 40 1 40 14
M  V30 41 1 41 14
M  V30 42 1 15 42 CFG=3
M  V30 43 1 43 16
M  V30 44 1 44 16
M  V30 45 1 17 45 CFG=3
M  V30 46 1 46 18
M  V30 47 1 47 18
M  V30 48 1 20 48 CFG=1
M  V30 49 1 49 23
M  V30 50 1 50 25
M  V30 51 1 51 26
M  V30 52 1 52 26
M  V30 53 1 53 27
M  V30 54 1 54 27
M  V30 55 1 55 28
M  V30 56 1 56 28
M  V30 57 1 57 28
M  V30 58 1 30 58 CFG=1
M  V30 END BOND
M  V30 END CTAB
M  END
>  <i_epik_Tot_Q>  (1) 
-1

>  <i_epik_Tot_abs_Q>  (1) 
1

>  <i_i_glide_confnum>  (1) 
3404

>  <i_i_glide_lignum>  (1) 
107

>  <i_i_glide_posenum>  (1) 
326

>  <i_i_glide_rotatable_bonds>  (1) 
15

>  <i_lp_mmshare_version>  (1) 
72125

>  <i_m_source_file_index>  (1) 
44

>  <i_f3d_flags>  (1) 
0

>  <num_sample>  (1) 
50

>  <b_lp_Chiralities_Consistent>  (1) 
1

>  <r_epik_Charging_Adjusted_Penalty>  (1) 
0.10859487374936995

>  <r_epik_Ionization_Penalty>  (1) 
0.10861046635066096

>  <r_epik_Ionization_Penalty_Charging>  (1) 
0.0014700329650535538

>  <r_epik_Ionization_Penalty_Neutral>  (1) 
0.10714043338560741

>  <r_epik_State_Penalty>  (1) 
0.1071248407843164

>  <r_glide_ring_energy>  (1) 
0

>  <r_i_docking_score>  (1) 
-3.5394642733139645

>  <r_i_glide_ecoul>  (1) 
-2.5559091194640833

>  <r_i_glide_eff_state_penalty>  (1) 
0.1071248407843164

>  <r_i_glide_einternal>  (1) 
7.0168302233962248

>  <r_i_glide_emodel>  (1) 
-34.861418388034174

>  <r_i_glide_emodel_strain>  (1) 
2.2775140748701475

>  <r_i_glide_energy>  (1) 
-34.090110227967152

>  <r_i_glide_erotb>  (1) 
1.1463316203487632

>  <r_i_glide_esite>  (1) 
-0.075289848744159962

>  <r_i_glide_evdw>  (1) 
-31.534201108503069

>  <r_i_glide_gscore>  (1) 
-3.6465891140982811

>  <r_i_glide_gscore_strain>  (1) 
0

>  <r_i_glide_hbond>  (1) 
-0.19294430685127675

>  <r_i_glide_ligand_efficiency>  (1) 
-0.11798214244379882

>  <r_i_glide_ligand_efficiency_ln>  (1) 
-0.80420484844904883

>  <r_i_glide_ligand_efficiency_sa>  (1) 
-0.36659794812345015

>  <r_i_glide_lipo>  (1) 
-1.3980730194937083

>  <r_i_glide_metal>  (1) 
-0

>  <r_i_glide_rewards>  (1) 
-1.1665171360131334

>  <r_lp_Energy>  (1) 
15.498576999999999

>  <s_epik_cmdline>  (1) 
J2VwaWtfcHl0aG9uJywgJy1waHQnLCAnMS4wJywgJy1waCcsICc3LjQnLCAnLXRuJywgJzgnLCAnLW1hJywgJzUwMCcsICctaW1hZScsICc8aW5maWxlLm1hZT4nLCAnLW9tYWUnLCAnPG91dGZpbGUubWFlPic=

>  <s_epik_input>  (1) 
Tz1DPVtDSF1bQ0gyXVtDQEBIXShbT0hdKVtDQEhdKFtDSDJdW0NIM10pW0NIMl1bQ0gyXVtDQEBIXShDKD1PKVtPSF0pW05IXVtDQEBIXShGKVtDSDJdT09DMT1bQ0hdW0NIMl1bQ0gyXVtDQEBIXShGKVtOSF1bQ0BIXTFG

>  <s_glide_docking_method>  (1) 
confgen

>  <s_i_glide_gridfile>  (1) 
gpcr_drd2_6luq_protein_autoprepared_prepared

>  <s_lp_Force_Field>  (1) 
S-OPLS

>  <s_lp_Variant>  (1) 
DiffSBDD_43_num_sample_50-2

>  <s_m_source_file>  (1) 
generated__ligand_DiffSBDD_2026-05-06_prepared.sdf

>  <GenAI_Model>  (1) 
DiffSBDD

>  <Protein>  (1) 
generic_title2

$$$$
DiffSBDD_10_num_sample_50
     RDKit          3D

  0  0  0  0  0  0  0  0  0  0999 V3000
M  V30 BEGIN CTAB
M  V30 COUNTS 73 74 0 0 1
M  V30 BEGIN ATOM
M  V30 1 C 6.335303 5.449927 -20.840973 0 CFG=2
M  V30 2 C 9.881197 6.504626 -9.807218 0
M  V30 3 C 8.512574 4.528369 -13.603673 0
M  V30 4 C 9.509206 4.055462 -16.932360 0 CFG=1
M  V30 5 C 7.802291 4.962991 -20.905092 0 CFG=2
M  V30 6 N 7.860123 5.343501 -9.202463 0
M  V30 7 N 10.158183 5.228928 -18.930230 0
M  V30 8 C 9.451473 4.055833 -19.335305 0 CFG=1
M  V30 9 S 5.393626 5.437409 -22.464215 0
M  V30 10 C 9.996914 7.307861 -8.526296 0
M  V30 11 S 5.434171 3.361182 -22.852813 0 CHG=-1
M  V30 12 C 4.695825 6.588299 -19.213478 0
M  V30 13 O 11.834839 7.538235 -4.255364 0
M  V30 14 O 3.982866 5.786048 -22.230242 0
M  V30 15 C 7.490454 6.438826 -20.847272 0 CFG=2
M  V30 16 C 8.187222 6.905757 -12.552089 0
M  V30 17 C 9.905764 5.430429 -17.511541 0 CFG=2
M  V30 18 N 10.716265 7.261760 -6.144461 0 CHG=1
M  V30 19 N 8.844026 4.908189 -11.251599 0
M  V30 20 C 10.484306 6.446771 -7.351633 0
M  V30 21 C 8.386371 2.009481 -18.220507 0
M  V30 22 C 5.410320 5.289978 -19.630861 0
M  V30 23 C 8.502813 4.348776 -22.113597 0
M  V30 24 C 8.222548 4.058251 -16.073366 0
M  V30 25 C 8.542107 5.407246 -12.389188 0
M  V30 26 O 7.855805 6.969315 -19.593810 0
M  V30 27 C 8.893939 5.626342 -10.062704 0
M  V30 28 O 6.159083 6.124912 -23.515592 0
M  V30 29 F 11.007336 5.898131 -16.925580 0
M  V30 30 N 6.905461 7.224877 -11.891681 0 CHG=1
M  V30 31 C 11.250003 6.496666 -5.004579 0
M  V30 32 C 9.474653 3.100734 -18.144070 0 CFG=2
M  V30 33 O 8.116515 4.342793 -19.647250 0
M  V30 34 C 8.262786 4.969364 -14.857799 0
M  V30 35 H 10.653660 6.662577 -10.543682 0
M  V30 36 H 8.707537 3.481356 -13.419325 0
M  V30 37 H 10.327288 3.725623 -16.293999 0
M  V30 38 H 7.664875 5.950533 -8.413711 0
M  V30 39 H 9.891073 6.047106 -19.462962 0
M  V30 40 H 9.945638 3.588560 -20.186925 0
M  V30 41 H 9.034755 7.757290 -8.288708 0
M  V30 42 H 10.684684 8.133225 -8.710795 0
M  V30 43 H 3.916939 6.386274 -18.479257 0
M  V30 44 H 5.386995 7.297498 -18.759159 0
M  V30 45 H 4.234827 7.092121 -20.061507 0
M  V30 46 H 11.839841 7.287270 -3.342009 0
M  V30 47 H 7.686238 7.083131 -21.701803 0
M  V30 48 H 8.970213 7.525644 -12.116389 0
M  V30 49 H 8.120359 7.259708 -13.570006 0
M  V30 50 H 9.116081 6.167709 -17.378397 0
M  V30 51 H 9.852586 7.705405 -5.867037 0
M  V30 52 H 11.413405 5.944065 -7.619112 0
M  V30 53 H 9.752564 5.670391 -7.122792 0
M  V30 54 H 7.377468 2.420863 -18.187126 0
M  V30 55 H 8.474434 1.441551 -19.146812 0
M  V30 56 H 8.485048 1.303189 -17.396764 0
M  V30 57 H 4.672718 4.525627 -19.879354 0
M  V30 58 H 5.962398 4.903842 -18.775684 0
M  V30 59 H 8.130695 4.753177 -23.050777 0
M  V30 60 H 9.570929 4.559692 -22.087706 0
M  V30 61 H 8.356326 3.268558 -22.126898 0
M  V30 62 H 8.019623 3.045538 -15.723377 0
M  V30 63 H 7.366265 4.348770 -16.683453 0
M  V30 64 H 7.749470 6.259074 -18.975642 0
M  V30 65 H 6.547376 8.100776 -12.239242 0
M  V30 66 H 6.234562 6.489987 -12.056074 0
M  V30 67 H 12.006926 5.771080 -5.304824 0
M  V30 68 H 10.452166 5.995380 -4.455798 0
M  V30 69 H 10.444135 2.601129 -18.187331 0
M  V30 70 H 8.075686 6.007433 -15.049085 0
M  V30 71 H 7.097205 4.746535 -9.488807 0
M  V30 72 H 11.389180 7.978765 -6.371055 0
M  V30 73 H 7.034283 7.340006 -10.874466 0
M  V30 END ATOM
M  V30 BEGIN BOND
M  V30 1 1 5 1
M  V30 2 1 8 7
M  V30 3 1 9 1
M  V30 4 1 10 2
M  V30 5 1 11 9
M  V30 6 2 14 9
M  V30 7 1 15 1
M  V30 8 1 15 5
M  V30 9 1 17 4
M  V30 10 1 17 7
M  V30 11 1 20 10
M  V30 12 1 20 18
M  V30 13 1 1 22 CFG=1
M  V30 14 1 22 12
M  V30 15 1 23 5
M  V30 16 1 24 4
M  V30 17 1 25 3
M  V30 18 1 25 16
M  V30 19 2 25 19
M  V30 20 1 26 15
M  V30 21 2 27 2
M  V30 22 1 27 6
M  V30 23 1 27 19
M  V30 24 2 28 9
M  V30 25 1 29 17
M  V30 26 1 30 16
M  V30 27 1 31 13
M  V30 28 1 31 18
M  V30 29 1 32 4
M  V30 30 1 32 8
M  V30 31 1 32 21
M  V30 32 1 5 33 CFG=1
M  V30 33 1 33 8
M  V30 34 2 34 3
M  V30 35 1 34 24
M  V30 36 1 35 2
M  V30 37 1 36 3
M  V30 38 1 4 37 CFG=1
M  V30 39 1 38 6
M  V30 40 1 39 7
M  V30 41 1 8 40 CFG=3
M  V30 42 1 41 10
M  V30 43 1 42 10
M  V30 44 1 43 12
M  V30 45 1 44 12
M  V30 46 1 45 12
M  V30 47 1 46 13
M  V30 48 1 15 47 CFG=3
M  V30 49 1 48 16
M  V30 50 1 49 16
M  V30 51 1 17 50 CFG=3
M  V30 52 1 51 18
M  V30 53 1 52 20
M  V30 54 1 53 20
M  V30 55 1 54 21
M  V30 56 1 55 21
M  V30 57 1 56 21
M  V30 58 1 57 22
M  V30 59 1 58 22
M  V30 60 1 59 23
M  V30 61 1 60 23
M  V30 62 1 61 23
M  V30 63 1 62 24
M  V30 64 1 63 24
M  V30 65 1 64 26
M  V30 66 1 65 30
M  V30 67 1 66 30
M  V30 68 1 67 31
M  V30 69 1 68 31
M  V30 70 1 32 69 CFG=3
M  V30 71 1 70 34
M  V30 72 1 71 6
M  V30 73 1 72 18
M  V30 74 1 73 30
M  V30 END BOND
M  V30 END CTAB
M  END
>  <i_epik_Tot_Q>  (1) 
1

>  <i_epik_Tot_abs_Q>  (1) 
3

>  <i_i_glide_confnum>  (1) 
1907

>  <i_i_glide_lignum>  (1) 
36

>  <i_i_glide_posenum>  (1) 
255

>  <i_i_glide_rotatable_bonds>  (1) 
15

>  <i_lp_mmshare_version>  (1) 
72125

>  <i_m_source_file_index>  (1) 
11

>  <i_f3d_flags>  (1) 
0

>  <num_sample>  (1) 
50

>  <b_lp_Chiralities_Consistent>  (1) 
1

>  <r_epik_Charging_Adjusted_Penalty>  (1) 
2.168687317063887

>  <r_epik_Ionization_Penalty>  (1) 
1.1047352072338965

>  <r_epik_Ionization_Penalty_Charging>  (1) 
1.0999234457570315

>  <r_epik_Ionization_Penalty_Neutral>  (1) 
0.0048117614768649203

>  <r_epik_State_Penalty>  (1) 
1.0687638713068555

>  <r_glide_ring_energy>  (1) 
0

>  <r_i_docking_score>  (1) 
-3.5293466509331246

>  <r_i_glide_ecoul>  (1) 
-10.449496285463828

>  <r_i_glide_eff_state_penalty>  (1) 
1.0687638713068555

>  <r_i_glide_einternal>  (1) 
7.9423099397894905

>  <r_i_glide_emodel>  (1) 
-48.149313182721066

>  <r_i_glide_emodel_strain>  (1) 
3.4848377793707215

>  <r_i_glide_energy>  (1) 
-38.24014110420228

>  <r_i_glide_erotb>  (1) 
0.82219216958862984

>  <r_i_glide_esite>  (1) 
-0.20000000000000001

>  <r_i_glide_evdw>  (1) 
-27.790644818738453

>  <r_i_glide_gscore>  (1) 
-4.5981105222399803

>  <r_i_glide_gscore_strain>  (1) 
0

>  <r_i_glide_hbond>  (1) 
-0.29580910031430629

>  <r_i_glide_ligand_efficiency>  (1) 
-0.10380431326273896

>  <r_i_glide_ligand_efficiency_ln>  (1) 
-0.77973167001150789

>  <r_i_glide_ligand_efficiency_sa>  (1) 
-0.33628567826947398

>  <r_i_glide_lipo>  (1) 
-0.94263063679399972

>  <r_i_glide_metal>  (1) 
-0

>  <r_i_glide_rewards>  (1) 
-1.024906270963807

>  <r_lp_Energy>  (1) 
20.091348

>  <s_epik_Chemistry_Notes>  (1) 
This compound has an imine and may undergo hydrolysis. This compound contains an acetal/aminal-like group ( X-CH(R)-Y where X, Y are N, S, or O) that may be acid/base labile, releasing an aldehyde.

>  <s_epik_cmdline>  (1) 
J2VwaWtfcHl0aG9uJywgJy1waHQnLCAnMS4wJywgJy1waCcsICc3LjQnLCAnLXRuJywgJzgnLCAnLW1hJywgJzUwMCcsICctaW1hZScsICc8aW5maWxlLm1hZT4nLCAnLW9tYWUnLCAnPG91dGZpbGUubWFlPic=

>  <s_epik_input>  (1) 
W1NIXVMoPU8pKD1PKVtDQEBdMShbQ0gyXVtDSDNdKVtDQEBdKFtDSDNdKShbQ0BASF0xW09IXSlPW0NASF0oW0NAQEhdMltDSDNdKVtOSF1bQ0BASF0oRilbQ0BIXTJbQ0gyXVxbQ0hdPVtDSF1cQyhbQ0gyXVtOSDJdKT1OXEMoPU5cW0hdKVxbQ0gyXVtDSDJdW0NIMl1bTkhdW0NIMl1bT0hd

>  <s_glide_docking_method>  (1) 
confgen

>  <s_i_glide_gridfile>  (1) 
gpcr_drd2_6luq_protein_autoprepared_prepared

>  <s_lp_Force_Field>  (1) 
S-OPLS

>  <s_lp_Variant>  (1) 
DiffSBDD_10_num_sample_50-16

>  <s_m_source_file>  (1) 
generated__ligand_DiffSBDD_2026-05-06_prepared.sdf

>  <GenAI_Model>  (1) 
DiffSBDD

>  <Protein>  (1) 
generic_title2

$$$$
DiffSBDD_43_num_sample_50
     RDKit          3D

  0  0  0  0  0  0  0  0  0  0999 V3000
M  V30 BEGIN CTAB
M  V30 COUNTS 59 59 0 0 1
M  V30 BEGIN ATOM
M  V30 1 C 8.214863 4.672038 -11.917858 0
M  V30 2 C 11.025853 6.809754 -6.570427 0
M  V30 3 N 5.067133 5.775808 -19.889057 0
M  V30 4 O 5.452945 6.599800 -15.342302 0
M  V30 5 C 9.822027 6.598318 -11.537862 0
M  V30 6 C 10.615931 7.133094 -9.092607 0 CFG=2
M  V30 7 C 6.296116 6.760321 -13.091576 0 CFG=1
M  V30 8 O 9.526302 8.568836 -7.476527 0
M  V30 9 O 12.072609 9.242586 -4.228496 0
M  V30 10 N 7.464872 7.022097 -12.226450 0 CHG=1
M  V30 11 C 11.434883 8.369344 -4.693890 0
M  V30 12 F 5.318424 7.522191 -12.623505 0
M  V30 13 O 8.801929 3.724804 -12.478349 0
M  V30 14 C 6.124869 3.597379 -19.238865 0
M  V30 15 C 5.841029 6.719326 -19.087579 0 CFG=1
M  V30 16 C 6.536756 7.096385 -14.574888 0
M  V30 17 C 8.612105 6.093096 -12.353590 0 CFG=2
M  V30 18 C 9.464762 7.036960 -10.103087 0
M  V30 19 O 5.557534 7.173004 -16.729275 0
M  V30 20 C 10.032226 7.260398 -7.662983 0 CFG=2
M  V30 21 F 5.031826 3.985377 -21.247965 0
M  V30 22 C 6.043685 6.272166 -17.649642 0
M  V30 23 C 10.725097 7.393826 -5.215345 0
M  V30 24 O 7.329254 4.569319 -11.039969 0 CHG=-1
M  V30 25 C 6.634755 5.118354 -17.271995 0
M  V30 26 C 7.181432 4.090977 -18.239406 0
M  V30 27 C 11.577237 8.270499 -9.534157 0
M  V30 28 C 12.776361 8.569320 -8.633733 0
M  V30 29 F 7.007010 6.969335 -19.682244 0
M  V30 30 C 5.799941 4.604504 -20.354288 0 CFG=1
M  V30 31 H 10.994153 5.726671 -6.485151 0
M  V30 32 H 12.056037 7.017087 -6.825566 0
M  V30 33 H 4.229029 5.503079 -19.398410 0
M  V30 34 H 10.294021 7.428446 -12.064581 0
M  V30 35 H 10.565043 5.806094 -11.516407 0
M  V30 36 H 11.144132 6.186615 -9.091716 0
M  V30 37 H 5.946736 5.731813 -12.989289 0
M  V30 38 H 8.719203 8.624406 -7.972783 0
M  V30 39 H 7.148800 6.940585 -11.262861 0
M  V30 40 H 6.511543 2.692569 -19.708513 0
M  V30 41 H 5.217168 3.292113 -18.718649 0
M  V30 42 H 5.305026 7.669755 -19.074422 0
M  V30 43 H 6.634710 8.169301 -14.714671 0
M  V30 44 H 7.454489 6.643889 -14.946895 0
M  V30 45 H 8.925466 6.050998 -13.393977 0
M  V30 46 H 8.700952 6.373287 -9.698970 0
M  V30 47 H 9.033097 8.032067 -10.162915 0
M  V30 48 H 9.166638 6.603689 -7.556779 0
M  V30 49 H 9.885372 6.969001 -4.691755 0
M  V30 50 H 6.736069 4.882577 -16.225523 0
M  V30 51 H 8.050791 4.501442 -18.754890 0
M  V30 52 H 7.537203 3.245622 -17.650102 0
M  V30 53 H 11.969478 8.036271 -10.524078 0
M  V30 54 H 11.014686 9.197308 -9.649844 0
M  V30 55 H 13.391626 9.329816 -9.091567 0
M  V30 56 H 12.469794 8.971584 -7.669300 0
M  V30 57 H 13.416158 7.706758 -8.478315 0
M  V30 58 H 6.703477 4.898501 -20.890970 0
M  V30 59 H 7.775151 7.969919 -12.365716 0
M  V30 END ATOM
M  V30 BEGIN BOND
M  V30 1 1 10 7
M  V30 2 2 11 9
M  V30 3 1 12 7
M  V30 4 2 13 1
M  V30 5 1 15 3
M  V30 6 1 16 4
M  V30 7 1 16 7
M  V30 8 1 17 1
M  V30 9 1 17 5
M  V30 10 1 17 10
M  V30 11 1 18 5
M  V30 12 1 18 6
M  V30 13 1 19 4
M  V30 14 1 20 2
M  V30 15 1 20 6
M  V30 16 1 20 8
M  V30 17 1 22 15
M  V30 18 1 22 19
M  V30 19 1 23 2
M  V30 20 2 23 11
M  V30 21 1 24 1
M  V30 22 2 25 22
M  V30 23 1 26 14
M  V30 24 1 26 25
M  V30 25 1 27 6
M  V30 26 1 28 27
M  V30 27 1 29 15
M  V30 28 1 30 3
M  V30 29 1 30 14
M  V30 30 1 30 21
M  V30 31 1 31 2
M  V30 32 1 32 2
M  V30 33 1 33 3
M  V30 34 1 34 5
M  V30 35 1 35 5
M  V30 36 1 6 36 CFG=1
M  V30 37 1 7 37 CFG=3
M  V30 38 1 38 8
M  V30 39 1 39 10
M  V30 40 1 40 14
M  V30 41 1 41 14
M  V30 42 1 15 42 CFG=1
M  V30 43 1 43 16
M  V30 44 1 44 16
M  V30 45 1 17 45 CFG=3
M  V30 46 1 46 18
M  V30 47 1 47 18
M  V30 48 1 20 48 CFG=3
M  V30 49 1 49 23
M  V30 50 1 50 25
M  V30 51 1 51 26
M  V30 52 1 52 26
M  V30 53 1 53 27
M  V30 54 1 54 27
M  V30 55 1 55 28
M  V30 56 1 56 28
M  V30 57 1 57 28
M  V30 58 1 30 58 CFG=3
M  V30 59 1 59 10
M  V30 END BOND
M  V30 END CTAB
M  END
>  <i_epik_Tot_Q>  (1) 
0

>  <i_epik_Tot_abs_Q>  (1) 
2

>  <i_i_glide_confnum>  (1) 
3010

>  <i_i_glide_lignum>  (1) 
109

>  <i_i_glide_posenum>  (1) 
192

>  <i_i_glide_rotatable_bonds>  (1) 
15

>  <i_lp_mmshare_version>  (1) 
72125

>  <i_m_source_file_index>  (1) 
44

>  <i_f3d_flags>  (1) 
0

>  <num_sample>  (1) 
50

>  <b_lp_Chiralities_Consistent>  (1) 
1

>  <r_epik_Charging_Adjusted_Penalty>  (1) 
2.1322098409762558

>  <r_epik_Ionization_Penalty>  (1) 
1.0661195873001319

>  <r_epik_Ionization_Penalty_Charging>  (1) 
1.0661068903442914

>  <r_epik_Ionization_Penalty_Neutral>  (1) 
1.2696955840525338e-05

>  <r_epik_State_Penalty>  (1) 
1.0661029506319644

>  <r_glide_ring_energy>  (1) 
0

>  <r_i_docking_score>  (1) 
-3.5096528988491178

>  <r_i_glide_ecoul>  (1) 
-4.042875875521033

>  <r_i_glide_eff_state_penalty>  (1) 
1.0661029506319644

>  <r_i_glide_einternal>  (1) 
8.6734815908431706

>  <r_i_glide_emodel>  (1) 
-38.820214965169754

>  <r_i_glide_emodel_strain>  (1) 
1.6079542684248374

>  <r_i_glide_energy>  (1) 
-33.074517001036071

>  <r_i_glide_erotb>  (1) 
1.1415552716364241

>  <r_i_glide_esite>  (1) 
-0.10990817296017751

>  <r_i_glide_evdw>  (1) 
-29.031641125515037

>  <r_i_glide_gscore>  (1) 
-4.5757558494810819

>  <r_i_glide_gscore_strain>  (1) 
0

>  <r_i_glide_hbond>  (1) 
-0.20651495256635846

>  <r_i_glide_ligand_efficiency>  (1) 
-0.11698842996163726

>  <r_i_glide_ligand_efficiency_ln>  (1) 
-0.79743137934969477

>  <r_i_glide_ligand_efficiency_sa>  (1) 
-0.36351025239730567

>  <r_i_glide_lipo>  (1) 
-2.00099317323245

>  <r_i_glide_metal>  (1) 
-0

>  <r_i_glide_rewards>  (1) 
-1.3418813847546129

>  <r_lp_Energy>  (1) 
6.4317659999999997

>  <s_epik_cmdline>  (1) 
J2VwaWtfcHl0aG9uJywgJy1waHQnLCAnMS4wJywgJy1waCcsICc3LjQnLCAnLXRuJywgJzgnLCAnLW1hJywgJzUwMCcsICctaW1hZScsICc8aW5maWxlLm1hZT4nLCAnLW9tYWUnLCAnPG91dGZpbGUubWFlPic=

>  <s_epik_input>  (1) 
Tz1DPVtDSF1bQ0gyXVtDQEBIXShbT0hdKVtDQEhdKFtDSDJdW0NIM10pW0NIMl1bQ0gyXVtDQEBIXShDKD1PKVtPSF0pW05IXVtDQEBIXShGKVtDSDJdT09DMT1bQ0hdW0NIMl1bQ0gyXVtDQEBIXShGKVtOSF1bQ0BIXTFG

>  <s_glide_docking_method>  (1) 
confgen

>  <s_i_glide_gridfile>  (1) 
gpcr_drd2_6luq_protein_autoprepared_prepared

>  <s_lp_Force_Field>  (1) 
S-OPLS

>  <s_lp_Variant>  (1) 
DiffSBDD_43_num_sample_50-4

>  <s_m_source_file>  (1) 
generated__ligand_DiffSBDD_2026-05-06_prepared.sdf

>  <GenAI_Model>  (1) 
DiffSBDD

>  <Protein>  (1) 
generic_title2

$$$$
DiffSBDD_40_num_sample_50
     RDKit          3D

  0  0  0  0  0  0  0  0  0  0999 V3000
M  V30 BEGIN CTAB
M  V30 COUNTS 80 83 0 0 1
M  V30 BEGIN ATOM
M  V30 1 C 8.810590 4.454966 -19.564924 0 CFG=1
M  V30 2 S 8.634837 8.169295 -11.891673 0
M  V30 3 C 5.511509 4.937403 -13.307909 0
M  V30 4 C 5.931179 4.065350 -21.360182 0 CFG=2
M  V30 5 C 6.753328 4.921875 -13.835642 0
M  V30 6 C 9.569115 8.858528 -22.471251 0
M  V30 7 C 7.835698 5.439024 -20.278858 0 CFG=2
M  V30 8 C 8.262181 8.908784 -22.137520 0
M  V30 9 C 7.225807 4.845143 -21.581904 0
M  V30 10 C 8.992168 4.714251 -18.049241 0
M  V30 11 C 10.243249 6.019281 -12.373980 0
M  V30 12 C 7.387413 10.021800 -22.701000 0 CFG=1
M  V30 13 C 7.849845 5.916134 -13.400440 0 CFG=1
M  V30 14 C 6.354902 7.962667 -20.938904 0
M  V30 15 C 5.930843 9.571141 -22.833029 0 CFG=2
M  V30 16 C 7.678135 7.897461 -21.226922 0
M  V30 17 C 7.148083 3.910378 -14.918010 0 CFG=1
M  V30 18 C 9.892770 7.027833 -11.271782 0 CFG=2
M  V30 19 S 6.409650 1.608252 -13.491678 0
M  V30 20 C 4.634845 4.569295 -22.117606 0
M  V30 21 F 5.164479 10.580218 -23.250465 0
M  V30 22 C 8.550765 6.780726 -20.610008 0
M  V30 23 C 5.406893 8.998631 -21.509806 0
M  V30 24 C 7.352568 6.985180 -12.389593 0
M  V30 25 F 7.434831 11.077971 -21.891644 0
M  V30 26 O 4.728572 5.443856 -22.976815 0
M  V30 27 O 8.120364 4.455049 -15.808257 0
M  V30 28 O 8.420586 3.103375 -19.726416 0
M  V30 29 C 7.673630 2.550008 -14.391680 0
M  V30 30 C 11.830873 8.377659 -8.937449 0
M  V30 31 N 9.144827 5.864179 -7.837061 0
M  V30 32 C 7.765212 4.370457 -17.180530 0
M  V30 33 N 8.621859 5.369279 -9.843104 0 CHG=1
M  V30 34 O 4.978604 4.817842 -20.805851 0
M  V30 35 C 9.838059 6.748618 -8.628024 0
M  V30 36 C 9.096395 5.151548 -12.901059 0
M  V30 37 C 9.493087 6.428987 -9.940166 0
M  V30 38 C 8.417882 5.038840 -8.576591 0
M  V30 39 C 10.736378 7.799768 -8.032637 0
M  V30 40 H 9.786878 4.537195 -20.044566 0
M  V30 41 H 5.228267 5.649053 -12.549331 0
M  V30 42 H 4.763350 4.230876 -13.633920 0
M  V30 43 H 5.953256 3.105274 -20.848950 0
M  V30 44 H 9.995341 9.596882 -23.136659 0
M  V30 45 H 10.225885 8.097972 -22.092654 0
M  V30 46 H 7.031009 5.636249 -19.576041 0
M  V30 47 H 7.058488 5.627064 -22.318746 0
M  V30 48 H 7.945283 4.184126 -22.065618 0
M  V30 49 H 9.832896 4.114965 -17.697251 0
M  V30 50 H 9.281660 5.750609 -17.874794 0
M  V30 51 H 10.676022 6.569313 -13.205975 0
M  V30 52 H 11.034846 5.360144 -12.051385 0
M  V30 53 H 7.772248 10.356078 -23.667097 0
M  V30 54 H 8.140709 6.465585 -14.296777 0
M  V30 55 H 5.914818 7.242779 -20.270295 0
M  V30 56 H 5.863441 8.805038 -23.607154 0
M  V30 57 H 6.234850 3.701891 -15.466360 0
M  V30 58 H 10.788370 7.619267 -11.132275 0
M  V30 59 H 7.131101 0.492229 -13.350944 0
M  V30 60 H 9.028681 7.190042 -19.720286 0
M  V30 61 H 9.346295 6.496226 -21.292705 0
M  V30 62 H 4.435842 8.530665 -21.676012 0
M  V30 63 H 5.258966 9.769291 -20.756471 0
M  V30 64 H 6.539412 7.562878 -12.828087 0
M  V30 65 H 6.948517 6.527340 -11.490041 0
M  V30 66 H 9.097172 2.548477 -19.368085 0
M  V30 67 H 7.991282 1.936807 -15.235082 0
M  V30 68 H 8.538424 2.651740 -13.742012 0
M  V30 69 H 12.530968 8.969188 -8.348108 0
M  V30 70 H 12.405750 7.594115 -9.431554 0
M  V30 71 H 11.417121 9.050687 -9.688343 0
M  V30 72 H 6.934079 5.046005 -17.383445 0
M  V30 73 H 7.424555 3.356850 -17.396357 0
M  V30 74 H 9.175227 5.849488 -6.825258 0
M  V30 75 H 8.813216 4.397274 -12.170383 0
M  V30 76 H 9.527490 4.593213 -13.729991 0
M  V30 77 H 7.775243 4.254831 -8.216444 0
M  V30 78 H 10.109223 8.611054 -7.661142 0
M  V30 79 H 11.215920 7.365291 -7.154640 0
M  V30 80 H 8.182377 4.911374 -10.631497 0
M  V30 END ATOM
M  V30 BEGIN BOND
M  V30 1 2 5 3
M  V30 2 1 7 1
M  V30 3 2 8 6
M  V30 4 1 9 4
M  V30 5 1 9 7
M  V30 6 1 10 1
M  V30 7 1 12 8
M  V30 8 1 13 5
M  V30 9 1 15 12
M  V30 10 1 16 8
M  V30 11 2 16 14
M  V30 12 1 17 5
M  V30 13 1 18 2
M  V30 14 1 18 11
M  V30 15 1 20 4
M  V30 16 1 21 15
M  V30 17 1 22 7
M  V30 18 1 22 16
M  V30 19 1 23 14
M  V30 20 1 23 15
M  V30 21 1 24 2
M  V30 22 1 24 13
M  V30 23 1 25 12
M  V30 24 2 26 20
M  V30 25 1 27 17
M  V30 26 1 28 1
M  V30 27 1 29 17
M  V30 28 1 29 19
M  V30 29 1 32 10
M  V30 30 1 32 27
M  V30 31 1 34 4
M  V30 32 1 34 20
M  V30 33 1 35 31
M  V30 34 1 36 11
M  V30 35 1 36 13
M  V30 36 1 37 18
M  V30 37 1 37 33
M  V30 38 2 37 35
M  V30 39 1 38 31
M  V30 40 2 38 33
M  V30 41 1 39 30
M  V30 42 1 39 35
M  V30 43 1 1 40 CFG=3
M  V30 44 1 41 3
M  V30 45 1 42 3
M  V30 46 1 4 43 CFG=1
M  V30 47 1 44 6
M  V30 48 1 45 6
M  V30 49 1 7 46 CFG=1
M  V30 50 1 47 9
M  V30 51 1 48 9
M  V30 52 1 49 10
M  V30 53 1 50 10
M  V30 54 1 51 11
M  V30 55 1 52 11
M  V30 56 1 12 53 CFG=3
M  V30 57 1 13 54 CFG=3
M  V30 58 1 55 14
M  V30 59 1 15 56 CFG=3
M  V30 60 1 17 57 CFG=3
M  V30 61 1 18 58 CFG=1
M  V30 62 1 59 19
M  V30 63 1 60 22
M  V30 64 1 61 22
M  V30 65 1 62 23
M  V30 66 1 63 23
M  V30 67 1 64 24
M  V30 68 1 65 24
M  V30 69 1 66 28
M  V30 70 1 67 29
M  V30 71 1 68 29
M  V30 72 1 69 30
M  V30 73 1 70 30
M  V30 74 1 71 30
M  V30 75 1 72 32
M  V30 76 1 73 32
M  V30 77 1 74 31
M  V30 78 1 75 36
M  V30 79 1 76 36
M  V30 80 1 77 38
M  V30 81 1 78 39
M  V30 82 1 79 39
M  V30 83 1 80 33
M  V30 END BOND
M  V30 END CTAB
M  END
>  <i_epik_Tot_Q>  (1) 
1

>  <i_epik_Tot_abs_Q>  (1) 
1

>  <i_i_glide_confnum>  (1) 
7642

>  <i_i_glide_lignum>  (1) 
100

>  <i_i_glide_posenum>  (1) 
325

>  <i_i_glide_rotatable_bonds>  (1) 
16

>  <i_lp_mmshare_version>  (1) 
72125

>  <i_m_source_file_index>  (1) 
41

>  <i_f3d_flags>  (1) 
0

>  <num_sample>  (1) 
50

>  <b_lp_Chiralities_Consistent>  (1) 
1

>  <r_epik_Charging_Adjusted_Penalty>  (1) 
0.74174678475340827

>  <r_epik_Ionization_Penalty>  (1) 
0.9544201178542232

>  <r_epik_Ionization_Penalty_Charging>  (1) 
0

>  <r_epik_Ionization_Penalty_Neutral>  (1) 
0.9544201178542232

>  <r_epik_State_Penalty>  (1) 
0.74174678475340827

>  <r_glide_ring_energy>  (1) 
0

>  <r_i_docking_score>  (1) 
-3.5093295663307096

>  <r_i_glide_ecoul>  (1) 
-2.5264176641418725

>  <r_i_glide_eff_state_penalty>  (1) 
0.74174678475340827

>  <r_i_glide_einternal>  (1) 
18.632735802228886

>  <r_i_glide_emodel>  (1) 
-39.68603797267491

>  <r_i_glide_emodel_strain>  (1) 
0.49458351653370869

>  <r_i_glide_energy>  (1) 
-39.373631600337326

>  <r_i_glide_erotb>  (1) 
0.63365396365979698

>  <r_i_glide_esite>  (1) 
-0.17725914922478681

>  <r_i_glide_evdw>  (1) 
-36.847213936195452

>  <r_i_glide_gscore>  (1) 
-4.2510763510841176

>  <r_i_glide_gscore_strain>  (1) 
0

>  <r_i_glide_hbond>  (1) 
0

>  <r_i_glide_ligand_efficiency>  (1) 
-0.089982809393095123

>  <r_i_glide_ligand_efficiency_ln>  (1) 
-0.75249987726508349

>  <r_i_glide_ligand_efficiency_sa>  (1) 
-0.30515073288842687

>  <r_i_glide_lipo>  (1) 
-1.7226081879771886

>  <r_i_glide_metal>  (1) 
-0

>  <r_i_glide_rewards>  (1) 
-0.76353963111088463

>  <r_lp_Energy>  (1) 
23.350483999999998

>  <r_lp_tautomer_probability>  (1) 
1

>  <s_epik_Chemistry_Notes>  (1) 
This compound has an ester and may undergo hydrolysis at high or low pH.

>  <s_epik_cmdline>  (1) 
J2VwaWtfcHl0aG9uJywgJy1waHQnLCAnMS4wJywgJy1waCcsICc3LjQnLCAnLXRuJywgJzgnLCAnLW1hJywgJzUwMCcsICctaW1hZScsICc8aW5maWxlLm1hZT4nLCAnLW9tYWUnLCAnPG91dGZpbGUubWFlPic=

>  <s_epik_input>  (1) 
W0NIMl09QzFbQ0BIXShGKVtDQEhdKEYpW0NIMl1bQ0hdPUMxW0NIMl1bQ0BASF0oW0NIMl1bQ0BASF0yQyg9TylPMilbQ0BIXShbT0hdKVtDSDJdW0NIMl1PW0NAQEhdKFtDSDJdW1NIXSlDKD1bQ0gyXSlbQ0BIXTNbQ0gyXVNbQ0BIXShbQ0gyXVtDSDJdMylDND1OW0NIXT1OW0NAQEhdNFtDSDJdW0NIM10=

>  <s_glide_docking_method>  (1) 
confgen

>  <s_i_glide_gridfile>  (1) 
gpcr_drd2_6luq_protein_autoprepared_prepared

>  <s_lp_Force_Field>  (1) 
S-OPLS

>  <s_lp_Variant>  (1) 
DiffSBDD_40_num_sample_50-3

>  <s_m_source_file>  (1) 
generated__ligand_DiffSBDD_2026-05-06_prepared.sdf

>  <GenAI_Model>  (1) 
DiffSBDD

>  <Protein>  (1) 
generic_title2

$$$$
DiffSBDD_36_num_sample_50
     RDKit          3D

  0  0  0  0  0  0  0  0  0  0999 V3000
M  V30 BEGIN CTAB
M  V30 COUNTS 76 79 0 0 1
M  V30 BEGIN ATOM
M  V30 1 C 10.970379 6.628231 -12.072244 0
M  V30 2 O 8.634834 0.169370 -14.118536 0
M  V30 3 C 7.300935 4.009249 -14.310488 0
M  V30 4 S 8.234838 0.900333 -15.401781 0
M  V30 5 C 9.834818 6.090212 -9.842996 0 CFG=2
M  V30 6 C 9.596302 6.566378 -12.728087 0
M  V30 7 C 5.565504 0.188460 -16.176337 0 CFG=1
M  V30 8 C 8.531038 5.711259 -12.032223 0 CFG=1
M  V30 9 F 10.479843 8.248385 -10.462597 0
M  V30 10 O 5.757425 -1.021358 -15.491658 0
M  V30 11 C 6.075395 6.145802 -15.117414 0
M  V30 12 C 9.695645 6.463393 -8.357758 0
M  V30 13 C 10.862353 6.980983 -10.573375 0 CFG=2
M  V30 14 C 5.780228 3.865860 -12.265351 0
M  V30 15 C 8.572787 -0.333672 -16.750328 0
M  V30 16 C 6.463381 0.948356 -12.741632 0
M  V30 17 C 8.586987 -0.779335 -19.248480 0
M  V30 18 O 6.915292 0.687291 -18.246246 0
M  V30 19 C 7.528341 6.440244 -15.320606 0
M  V30 20 C 8.494303 6.169301 -10.581506 0
M  V30 21 C 9.102420 1.505937 -18.425833 0
M  V30 22 C 6.401918 1.287723 -15.418989 0 CFG=1
M  V30 23 C 7.126996 5.515763 -14.209123 0
M  V30 24 C 8.263276 0.244121 -18.138838 0
M  V30 25 C 6.059916 3.324761 -13.708076 0 CFG=2
M  V30 26 C 7.165478 5.959346 -12.752857 0 CFG=1
M  V30 27 C 5.740670 -1.554044 -18.136673 0
M  V30 28 C 5.946619 1.761131 -13.947926 0 CFG=2
M  V30 29 C 4.719565 0.567697 -18.691215 0
M  V30 30 C 5.922369 5.378737 -12.080348 0
M  V30 31 C 5.790784 -0.046414 -17.748146 0
M  V30 32 H 11.460058 5.686404 -12.291656 0
M  V30 33 H 11.583822 7.369016 -12.582172 0
M  V30 34 H 8.216583 3.674902 -13.827931 0
M  V30 35 H 7.428364 3.773482 -15.363719 0
M  V30 36 H 10.150737 5.050957 -9.868998 0
M  V30 37 H 9.728273 6.168163 -13.728806 0
M  V30 38 H 9.221257 7.588374 -12.802292 0
M  V30 39 H 4.511865 0.420644 -16.031409 0
M  V30 40 H 8.811437 4.658573 -12.039648 0
M  V30 41 H 5.434234 -0.968788 -14.599735 0
M  V30 42 H 5.589085 5.522199 -15.863852 0
M  V30 43 H 5.460267 6.948059 -14.712492 0
M  V30 44 H 9.322262 7.480236 -8.232924 0
M  V30 45 H 8.996435 5.797965 -7.850099 0
M  V30 46 H 10.652594 6.391544 -7.840621 0
M  V30 47 H 11.838932 6.969295 -10.090871 0
M  V30 48 H 4.730984 3.769301 -12.015129 0
M  V30 49 H 6.387615 3.369261 -11.511868 0
M  V30 50 H 8.049670 -1.259982 -16.543817 0
M  V30 51 H 9.626535 -0.603443 -16.703790 0
M  V30 52 H 7.463025 1.262368 -12.442227 0
M  V30 53 H 5.834846 1.084720 -11.864512 0
M  V30 54 H 6.477714 -0.123664 -12.945558 0
M  V30 55 H 9.663628 -0.919456 -19.349909 0
M  V30 56 H 8.174275 -1.766176 -19.053725 0
M  V30 57 H 8.207398 -0.443289 -20.214071 0
M  V30 58 H 7.834848 7.440587 -15.039170 0
M  V30 59 H 8.018267 6.006201 -16.189676 0
M  V30 60 H 8.234838 7.215481 -10.691674 0
M  V30 61 H 7.725304 5.659679 -10.004258 0
M  V30 62 H 10.170839 1.304697 -18.334362 0
M  V30 63 H 8.924189 1.869666 -19.438759 0
M  V30 64 H 8.860271 2.326683 -17.750907 0
M  V30 65 H 6.289856 2.140242 -16.084541 0
M  V30 66 H 5.260585 3.769297 -14.281267 0
M  V30 67 H 7.007885 7.039797 -12.747283 0
M  V30 68 H 4.771930 -1.978487 -17.868229 0
M  V30 69 H 5.861467 -1.709985 -19.208665 0
M  V30 70 H 6.481815 -2.171534 -17.636447 0
M  V30 71 H 4.884651 1.527411 -13.891638 0
M  V30 72 H 3.728711 0.169294 -18.473417 0
M  V30 73 H 4.697096 1.658495 -18.691664 0
M  V30 74 H 4.918507 0.296420 -19.729569 0
M  V30 75 H 5.849201 5.646517 -11.027273 0
M  V30 76 H 5.052002 5.855713 -12.531785 0
M  V30 END ATOM
M  V30 BEGIN BOND
M  V30 1 2 4 2
M  V30 2 1 6 1
M  V30 3 1 8 6
M  V30 4 1 10 7
M  V30 5 1 12 5
M  V30 6 1 13 1
M  V30 7 1 13 5
M  V30 8 1 13 9
M  V30 9 1 4 15 CFG=3
M  V30 10 1 19 11
M  V30 11 1 20 5
M  V30 12 1 20 8
M  V30 13 1 22 4
M  V30 14 1 22 7
M  V30 15 1 23 3
M  V30 16 1 23 11
M  V30 17 1 23 19
M  V30 18 1 24 15
M  V30 19 1 24 17
M  V30 20 1 24 18
M  V30 21 1 24 21
M  V30 22 1 25 3
M  V30 23 1 25 14
M  V30 24 1 26 8
M  V30 25 1 26 23
M  V30 26 1 28 16
M  V30 27 1 28 22
M  V30 28 1 28 25
M  V30 29 1 30 14
M  V30 30 1 30 26
M  V30 31 1 31 7
M  V30 32 1 31 18
M  V30 33 1 31 27
M  V30 34 1 31 29
M  V30 35 1 32 1
M  V30 36 1 33 1
M  V30 37 1 34 3
M  V30 38 1 35 3
M  V30 39 1 5 36 CFG=1
M  V30 40 1 37 6
M  V30 41 1 38 6
M  V30 42 1 7 39 CFG=3
M  V30 43 1 8 40 CFG=1
M  V30 44 1 41 10
M  V30 45 1 42 11
M  V30 46 1 43 11
M  V30 47 1 44 12
M  V30 48 1 45 12
M  V30 49 1 46 12
M  V30 50 1 13 47 CFG=1
M  V30 51 1 48 14
M  V30 52 1 49 14
M  V30 53 1 50 15
M  V30 54 1 51 15
M  V30 55 1 52 16
M  V30 56 1 53 16
M  V30 57 1 54 16
M  V30 58 1 55 17
M  V30 59 1 56 17
M  V30 60 1 57 17
M  V30 61 1 58 19
M  V30 62 1 59 19
M  V30 63 1 60 20
M  V30 64 1 61 20
M  V30 65 1 62 21
M  V30 66 1 63 21
M  V30 67 1 64 21
M  V30 68 1 22 65 CFG=3
M  V30 69 1 25 66 CFG=3
M  V30 70 1 26 67 CFG=3
M  V30 71 1 68 27
M  V30 72 1 69 27
M  V30 73 1 70 27
M  V30 74 1 28 71 CFG=3
M  V30 75 1 72 29
M  V30 76 1 73 29
M  V30 77 1 74 29
M  V30 78 1 75 30
M  V30 79 1 76 30
M  V30 END BOND
M  V30 END CTAB
M  END
>  <i_epik_Tot_Q>  (1) 
0

>  <i_epik_Tot_abs_Q>  (1) 
0

>  <i_i_glide_confnum>  (1) 
19

>  <i_i_glide_lignum>  (1) 
91

>  <i_i_glide_posenum>  (1) 
245

>  <i_i_glide_rotatable_bonds>  (1) 
4

>  <i_lp_mmshare_version>  (1) 
72125

>  <i_m_source_file_index>  (1) 
37

>  <i_f3d_flags>  (1) 
0

>  <num_sample>  (1) 
50

>  <b_lp_Chiralities_Consistent>  (1) 
1

>  <r_epik_Charging_Adjusted_Penalty>  (1) 
0

>  <r_epik_Ionization_Penalty>  (1) 
1.4246355220095789e-06

>  <r_epik_Ionization_Penalty_Charging>  (1) 
0

>  <r_epik_Ionization_Penalty_Neutral>  (1) 
1.4246355220095789e-06

>  <r_epik_State_Penalty>  (1) 
-0

>  <r_glide_ring_energy>  (1) 
0

>  <r_i_docking_score>  (1) 
-3.5048923301285737

>  <r_i_glide_ecoul>  (1) 
-0.92249396873110312

>  <r_i_glide_eff_state_penalty>  (1) 
-0

>  <r_i_glide_einternal>  (1) 
10.423799099195776

>  <r_i_glide_emodel>  (1) 
-3.8777859275793745

>  <r_i_glide_emodel_strain>  (1) 
3.3660322624797487

>  <r_i_glide_energy>  (1) 
-8.3950390449726928

>  <r_i_glide_erotb>  (1) 
0.28908081276348274

>  <r_i_glide_esite>  (1) 
-0.023556744794673484

>  <r_i_glide_evdw>  (1) 
-7.4725450762415893

>  <r_i_glide_gscore>  (1) 
-3.5048923301285737

>  <r_i_glide_gscore_strain>  (1) 
0

>  <r_i_glide_hbond>  (1) 
-0.15204713148098978

>  <r_i_glide_ligand_efficiency>  (1) 
-0.11306104290737334

>  <r_i_glide_ligand_efficiency_ln>  (1) 
-0.7904606324942125

>  <r_i_glide_ligand_efficiency_sa>  (1) 
-0.35516777272841582

>  <r_i_glide_lipo>  (1) 
-1.76633400814874

>  <r_i_glide_metal>  (1) 
-0

>  <r_i_glide_rewards>  (1) 
-1.3400339093459082

>  <r_lp_Energy>  (1) 
32.420203000000001

>  <r_lp_tautomer_probability>  (1) 
1

>  <s_epik_cmdline>  (1) 
J2VwaWtfcHl0aG9uJywgJy1waHQnLCAnMS4wJywgJy1waCcsICc3LjQnLCAnLXRuJywgJzgnLCAnLW1hJywgJzUwMCcsICctaW1hZScsICc8aW5maWxlLm1hZT4nLCAnLW9tYWUnLCAnPG91dGZpbGUubWFlPic=

>  <s_epik_input>  (1) 
W0NIM11bQ0BASF0xW0NASF0oRilbQ0gyXVtDSDJdW0NAQEhdKFtDSDJdMSlbQ0BASF0yW0NIMl1bQ0gyXVtDQEBIXShbQ0gyXUMyM1tDSDJdW0NIMl0zKVtDQEhdKFtDSDNdKVtDQEhdKFtDQEhdKFtPSF0pQyhPNCkoW0NIM10pW0NIM10pUyg9TylbQ0gyXUM0KFtDSDNdKVtDSDNd

>  <s_glide_docking_method>  (1) 
confgen

>  <s_i_glide_gridfile>  (1) 
gpcr_drd2_6luq_protein_autoprepared_prepared

>  <s_lp_Force_Field>  (1) 
S-OPLS

>  <s_lp_Variant>  (1) 
DiffSBDD_36_num_sample_50-1

>  <s_m_source_file>  (1) 
generated__ligand_DiffSBDD_2026-05-06_prepared.sdf

>  <GenAI_Model>  (1) 
DiffSBDD

>  <Protein>  (1) 
generic_title2

$$$$
DiffSBDD_4_num_sample_50
     RDKit          3D

  0  0  0  0  0  0  0  0  0  0999 V3000
M  V30 BEGIN CTAB
M  V30 COUNTS 43 44 0 0 1
M  V30 BEGIN ATOM
M  V30 1 C 7.466641 3.132345 -14.418940 0
M  V30 2 C 9.263011 5.692553 -8.380029 0
M  V30 3 C 11.039798 8.821082 -9.437344 0
M  V30 4 C 5.434838 7.310481 -15.359472 0
M  V30 5 C 9.054215 4.975339 -9.736229 0
M  V30 6 O 7.434839 3.615965 -15.548569 0
M  V30 7 N 8.927600 5.877952 -10.901769 0
M  V30 8 O 7.834840 7.873754 -12.716874 0
M  V30 9 C 10.005920 7.703739 -9.579658 0 CFG=2
M  V30 10 C 10.400534 6.696811 -8.521105 0 CFG=1
M  V30 11 C 6.669179 3.757922 -13.276822 0
M  V30 12 C 9.909342 6.994846 -10.932672 0
M  V30 13 O 13.002824 8.266258 -8.213161 0
M  V30 14 C 7.683498 6.675518 -12.954065 0
M  V30 15 O 7.153638 6.224151 -14.085584 0
M  V30 16 C 10.836710 7.555410 -7.341602 0
M  V30 17 C 11.656581 8.660203 -8.036609 0 CFG=2
M  V30 18 C 8.074438 5.551219 -11.992844 0
M  V30 19 C 7.611435 4.264784 -12.179224 0
M  V30 20 C 6.925752 7.073212 -15.192685 0
M  V30 21 H 8.045997 2.246305 -14.158831 0
M  V30 22 H 8.342569 6.195913 -8.081541 0
M  V30 23 H 9.484564 4.969301 -7.597507 0
M  V30 24 H 10.524615 9.769300 -9.491667 0
M  V30 25 H 11.784999 8.797292 -10.234292 0
M  V30 26 H 5.231076 7.962395 -16.209125 0
M  V30 27 H 5.034840 7.783466 -14.464509 0
M  V30 28 H 4.915916 6.365171 -15.519507 0
M  V30 29 H 9.834838 4.241470 -9.924423 0
M  V30 30 H 8.125780 4.421827 -9.606011 0
M  V30 31 H 9.034839 8.128386 -9.328034 0
M  V30 32 H 11.289706 6.169303 -8.849567 0
M  V30 33 H 5.914370 4.462281 -13.618688 0
M  V30 34 H 6.084303 2.954709 -12.829115 0
M  V30 35 H 10.880468 6.569300 -11.172274 0
M  V30 36 H 9.816238 7.749322 -11.700360 0
M  V30 37 H 13.453285 8.941886 -8.701438 0
M  V30 38 H 9.961826 7.985389 -6.850625 0
M  V30 39 H 11.406643 7.000268 -6.595252 0
M  V30 40 H 11.635541 9.587989 -7.464554 0
M  V30 41 H 7.931393 3.507387 -11.491669 0
M  V30 42 H 7.319198 6.569300 -16.076836 0
M  V30 43 H 7.434841 8.031098 -15.091665 0
M  V30 END ATOM
M  V30 BEGIN BOND
M  V30 1 1 5 2
M  V30 2 2 6 1
M  V30 3 1 7 5
M  V30 4 1 9 3
M  V30 5 1 10 2
M  V30 6 1 10 9
M  V30 7 1 11 1
M  V30 8 1 12 7
M  V30 9 1 12 9
M  V30 10 2 14 8
M  V30 11 1 15 14
M  V30 12 1 16 10
M  V30 13 1 17 3
M  V30 14 1 17 13
M  V30 15 1 17 16
M  V30 16 1 18 7
M  V30 17 1 18 14
M  V30 18 1 19 11
M  V30 19 2 19 18
M  V30 20 1 20 4
M  V30 21 1 20 15
M  V30 22 1 21 1
M  V30 23 1 22 2
M  V30 24 1 23 2
M  V30 25 1 24 3
M  V30 26 1 25 3
M  V30 27 1 26 4
M  V30 28 1 27 4
M  V30 29 1 28 4
M  V30 30 1 29 5
M  V30 31 1 30 5
M  V30 32 1 9 31 CFG=1
M  V30 33 1 10 32 CFG=3
M  V30 34 1 33 11
M  V30 35 1 34 11
M  V30 36 1 35 12
M  V30 37 1 36 12
M  V30 38 1 37 13
M  V30 39 1 38 16
M  V30 40 1 39 16
M  V30 41 1 17 40 CFG=1
M  V30 42 1 41 19
M  V30 43 1 42 20
M  V30 44 1 43 20
M  V30 END BOND
M  V30 END CTAB
M  END
>  <i_epik_Tot_Q>  (1) 
0

>  <i_epik_Tot_abs_Q>  (1) 
0

>  <i_i_glide_confnum>  (1) 
5

>  <i_i_glide_lignum>  (1) 
13

>  <i_i_glide_posenum>  (1) 
264

>  <i_i_glide_rotatable_bonds>  (1) 
7

>  <i_lp_mmshare_version>  (1) 
72125

>  <i_m_source_file_index>  (1) 
5

>  <i_f3d_flags>  (1) 
0

>  <num_sample>  (1) 
50

>  <b_lp_Chiralities_Consistent>  (1) 
1

>  <r_epik_Charging_Adjusted_Penalty>  (1) 
0.41067984158451698

>  <r_epik_Ionization_Penalty>  (1) 
6.7674502354530413e-05

>  <r_epik_Ionization_Penalty_Charging>  (1) 
2.6319130011581777e-09

>  <r_epik_Ionization_Penalty_Neutral>  (1) 
6.7671870441529249e-05

>  <r_epik_State_Penalty>  (1) 
0.41067983895260396

>  <r_glide_ring_energy>  (1) 
0

>  <r_i_docking_score>  (1) 
-3.5029973561401802

>  <r_i_glide_ecoul>  (1) 
-0.74858784953048296

>  <r_i_glide_eff_state_penalty>  (1) 
0.41067983895260396

>  <r_i_glide_einternal>  (1) 
3.8981697484518421

>  <r_i_glide_emodel>  (1) 
-28.377081883624992

>  <r_i_glide_emodel_strain>  (1) 
1.8972310747022831

>  <r_i_glide_energy>  (1) 
-25.649070890447014

>  <r_i_glide_erotb>  (1) 
0.91336080097250838

>  <r_i_glide_esite>  (1) 
-0.069962995308396655

>  <r_i_glide_evdw>  (1) 
-24.90048304091653

>  <r_i_glide_gscore>  (1) 
-3.913677195092784

>  <r_i_glide_gscore_strain>  (1) 
0

>  <r_i_glide_hbond>  (1) 
0

>  <r_i_glide_ligand_efficiency>  (1) 
-0.175149867807009

>  <r_i_glide_ligand_efficiency_ln>  (1) 
-0.87668470165656287

>  <r_i_glide_ligand_efficiency_sa>  (1) 
-0.47542988671961439

>  <r_i_glide_lipo>  (1) 
-1.2236445266212497

>  <r_i_glide_metal>  (1) 
-0

>  <r_i_glide_rewards>  (1) 
-2.1761181446602476

>  <r_lp_Energy>  (1) 
30.399182

>  <r_lp_tautomer_probability>  (1) 
0.5

>  <s_epik_Chemistry_Notes>  (1) 
This compound has an ester and may undergo hydrolysis at high or low pH. This compound has an imine and may undergo hydrolysis.

>  <s_epik_cmdline>  (1) 
J2VwaWtfcHl0aG9uJywgJy1waHQnLCAnMS4wJywgJy1waCcsICc3LjQnLCAnLXRuJywgJzgnLCAnLW1hJywgJzUwMCcsICctaW1hZScsICc8aW5maWxlLm1hZT4nLCAnLW9tYWUnLCAnPG91dGZpbGUubWFlPic=

>  <s_epik_input>  (1) 
W0NIM11bQ0gyXU9DKD1PKUMoPVtDSF0vW0NIMl1bQ0hdPU8pXE4oW0NIMl0xKVtDSDJdW0NIMl1bQ0BASF0oW0NASF0xMilbQ0gyXVtDQEhdKFtDSDJdMilbT0hd

>  <s_glide_docking_method>  (1) 
confgen

>  <s_i_glide_gridfile>  (1) 
gpcr_drd2_6luq_protein_autoprepared_prepared

>  <s_lp_Force_Field>  (1) 
S-OPLS

>  <s_lp_Variant>  (1) 
DiffSBDD_4_num_sample_50-2

>  <s_m_source_file>  (1) 
generated__ligand_DiffSBDD_2026-05-06_prepared.sdf

>  <GenAI_Model>  (1) 
DiffSBDD

>  <Protein>  (1) 
generic_title2

$$$$
DiffSBDD_10_num_sample_50
     RDKit          3D

  0  0  0  0  0  0  0  0  0  0999 V3000
M  V30 BEGIN CTAB
M  V30 COUNTS 73 74 0 0 1
M  V30 BEGIN ATOM
M  V30 1 C 5.886226 7.958710 -21.744167 0 CFG=2
M  V30 2 C 8.550909 4.792401 -10.638504 0
M  V30 3 C 8.634875 4.007395 -15.185918 0
M  V30 4 C 7.686897 3.304058 -18.541193 0 CFG=1
M  V30 5 C 5.639464 6.456858 -21.479056 0 CFG=2
M  V30 6 N 6.947021 6.176904 -11.788792 0
M  V30 7 N 7.119920 3.860931 -20.769992 0
M  V30 8 C 6.448954 4.772287 -19.884734 0 CFG=1
M  V30 9 S 4.323766 8.859461 -22.281182 0
M  V30 10 C 8.033012 5.085818 -9.235513 0
M  V30 11 S 5.009456 10.830310 -22.691757 0 CHG=-1
M  V30 12 C 7.897258 9.552963 -21.652942 0
M  V30 13 O 10.963808 8.680746 -9.227516 0
M  V30 14 O 3.820693 8.290028 -23.540621 0
M  V30 15 C 6.405705 6.897868 -22.703621 0 CFG=2
M  V30 16 C 7.064032 3.074371 -13.357144 0
M  V30 17 C 8.114944 3.114985 -20.009238 0 CFG=1
M  V30 18 N 9.434858 7.108371 -8.976242 0 CHG=1
M  V30 19 N 8.536373 5.025284 -13.016976 0
M  V30 20 C 9.055107 5.822618 -8.363279 0
M  V30 21 C 8.178448 5.858851 -18.355090 0
M  V30 22 C 6.801967 8.813520 -20.872543 0
M  V30 23 C 4.322152 5.707354 -21.603954 0
M  V30 24 C 8.752895 2.955460 -17.483145 0
M  V30 25 C 8.112249 4.108132 -13.796925 0
M  V30 26 O 7.750533 6.480891 -22.560677 0
M  V30 27 C 8.019744 5.314218 -11.760979 0
M  V30 28 O 3.434979 8.969526 -21.114998 0
M  V30 29 F 9.314661 3.642747 -20.248642 0
M  V30 30 N 7.712006 1.773554 -13.091663 0 CHG=1
M  V30 31 C 10.409755 7.890735 -8.201299 0
M  V30 32 C 7.127897 4.731514 -18.507696 0 CFG=2
M  V30 33 O 6.431900 6.088751 -20.342287 0
M  V30 34 C 8.221458 3.071224 -16.066618 0
M  V30 35 H 9.397887 4.124297 -10.708927 0
M  V30 36 H 9.382241 4.738465 -15.459181 0
M  V30 37 H 6.844797 2.628751 -18.376533 0
M  V30 38 H 6.634114 6.631491 -10.930727 0
M  V30 39 H 7.559169 4.337392 -21.547089 0
M  V30 40 H 5.427722 4.416074 -19.750509 0
M  V30 41 H 7.739513 4.169309 -8.740894 0
M  V30 42 H 7.116390 5.669153 -9.285524 0
M  V30 43 H 8.234363 10.420022 -21.090581 0
M  V30 44 H 8.759506 8.910418 -21.830951 0
M  V30 45 H 7.561242 9.907678 -22.625865 0
M  V30 46 H 11.843535 8.934846 -8.985573 0
M  V30 47 H 5.977174 6.773400 -23.696456 0
M  V30 48 H 6.539444 3.382093 -12.453005 0
M  V30 49 H 6.283713 2.971521 -14.110125 0
M  V30 50 H 8.149564 2.067643 -20.308641 0
M  V30 51 H 8.558534 7.632667 -9.091867 0
M  V30 52 H 9.942540 5.204048 -8.220253 0
M  V30 53 H 8.629058 6.010908 -7.375960 0
M  V30 54 H 8.878545 5.886548 -19.189915 0
M  V30 55 H 7.693115 6.832509 -18.294818 0
M  V30 56 H 8.757655 5.757296 -17.440591 0
M  V30 57 H 6.180722 9.520829 -20.324696 0
M  V30 58 H 7.291847 8.207426 -20.116431 0
M  V30 59 H 3.656102 6.145614 -22.341468 0
M  V30 60 H 4.507189 4.676673 -21.907950 0
M  V30 61 H 3.834825 5.693436 -20.635147 0
M  V30 62 H 9.634338 3.585929 -17.602037 0
M  V30 63 H 9.092716 1.929254 -17.629985 0
M  V30 64 H 7.964855 6.568177 -21.641600 0
M  V30 65 H 7.016810 1.096504 -12.809618 0
M  V30 66 H 8.179848 1.441826 -13.922199 0
M  V30 67 H 11.181234 7.255515 -7.763769 0
M  V30 68 H 9.932564 8.488150 -7.423114 0
M  V30 69 H 6.372066 4.845386 -17.729968 0
M  V30 70 H 7.473484 2.349102 -15.783142 0
M  V30 71 H 6.695179 6.651221 -12.643609 0
M  V30 72 H 9.809589 6.933991 -9.896066 0
M  V30 73 H 8.396431 1.876418 -12.353338 0
M  V30 END ATOM
M  V30 BEGIN BOND
M  V30 1 1 5 1
M  V30 2 1 8 7
M  V30 3 1 9 1
M  V30 4 1 10 2
M  V30 5 1 11 9
M  V30 6 2 14 9
M  V30 7 1 15 1
M  V30 8 1 15 5
M  V30 9 1 17 4
M  V30 10 1 17 7
M  V30 11 1 20 10
M  V30 12 1 20 18
M  V30 13 1 1 22 CFG=1
M  V30 14 1 22 12
M  V30 15 1 23 5
M  V30 16 1 24 4
M  V30 17 1 25 3
M  V30 18 1 25 16
M  V30 19 2 25 19
M  V30 20 1 26 15
M  V30 21 2 27 2
M  V30 22 1 27 6
M  V30 23 1 27 19
M  V30 24 2 28 9
M  V30 25 1 29 17
M  V30 26 1 30 16
M  V30 27 1 31 13
M  V30 28 1 31 18
M  V30 29 1 32 4
M  V30 30 1 32 8
M  V30 31 1 32 21
M  V30 32 1 5 33 CFG=1
M  V30 33 1 33 8
M  V30 34 2 34 3
M  V30 35 1 34 24
M  V30 36 1 35 2
M  V30 37 1 36 3
M  V30 38 1 4 37 CFG=1
M  V30 39 1 38 6
M  V30 40 1 39 7
M  V30 41 1 8 40 CFG=1
M  V30 42 1 41 10
M  V30 43 1 42 10
M  V30 44 1 43 12
M  V30 45 1 44 12
M  V30 46 1 45 12
M  V30 47 1 46 13
M  V30 48 1 15 47 CFG=3
M  V30 49 1 48 16
M  V30 50 1 49 16
M  V30 51 1 17 50 CFG=3
M  V30 52 1 51 18
M  V30 53 1 52 20
M  V30 54 1 53 20
M  V30 55 1 54 21
M  V30 56 1 55 21
M  V30 57 1 56 21
M  V30 58 1 57 22
M  V30 59 1 58 22
M  V30 60 1 59 23
M  V30 61 1 60 23
M  V30 62 1 61 23
M  V30 63 1 62 24
M  V30 64 1 63 24
M  V30 65 1 64 26
M  V30 66 1 65 30
M  V30 67 1 66 30
M  V30 68 1 67 31
M  V30 69 1 68 31
M  V30 70 1 32 69 CFG=1
M  V30 71 1 70 34
M  V30 72 1 71 6
M  V30 73 1 72 18
M  V30 74 1 73 30
M  V30 END BOND
M  V30 END CTAB
M  END
>  <i_epik_Tot_Q>  (1) 
1

>  <i_epik_Tot_abs_Q>  (1) 
3

>  <i_i_glide_confnum>  (1) 
3381

>  <i_i_glide_lignum>  (1) 
32

>  <i_i_glide_posenum>  (1) 
117

>  <i_i_glide_rotatable_bonds>  (1) 
15

>  <i_lp_mmshare_version>  (1) 
72125

>  <i_m_source_file_index>  (1) 
11

>  <i_f3d_flags>  (1) 
0

>  <num_sample>  (1) 
50

>  <b_lp_Chiralities_Consistent>  (1) 
1

>  <r_epik_Charging_Adjusted_Penalty>  (1) 
2.168687317063887

>  <r_epik_Ionization_Penalty>  (1) 
1.1047352072338965

>  <r_epik_Ionization_Penalty_Charging>  (1) 
1.0999234457570315

>  <r_epik_Ionization_Penalty_Neutral>  (1) 
0.0048117614768649203

>  <r_epik_State_Penalty>  (1) 
1.0687638713068555

>  <r_glide_ring_energy>  (1) 
0

>  <r_i_docking_score>  (1) 
-3.5024604257503436

>  <r_i_glide_ecoul>  (1) 
-10.724976536739613

>  <r_i_glide_eff_state_penalty>  (1) 
1.0687638713068555

>  <r_i_glide_einternal>  (1) 
9.0479345749439251

>  <r_i_glide_emodel>  (1) 
-49.558657835352463

>  <r_i_glide_emodel_strain>  (1) 
1.8326144492523326

>  <r_i_glide_energy>  (1) 
-39.431048310846244

>  <r_i_glide_erotb>  (1) 
0.82219216958862984

>  <r_i_glide_esite>  (1) 
-0.22321965256923595

>  <r_i_glide_evdw>  (1) 
-28.706071774106633

>  <r_i_glide_gscore>  (1) 
-4.5712242970571992

>  <r_i_glide_gscore_strain>  (1) 
0

>  <r_i_glide_hbond>  (1) 
-0.35999999999999999

>  <r_i_glide_ligand_efficiency>  (1) 
-0.10301354193383364

>  <r_i_glide_ligand_efficiency_ln>  (1) 
-0.77379174873555934

>  <r_i_glide_ligand_efficiency_sa>  (1) 
-0.3337238861402404

>  <r_i_glide_lipo>  (1) 
-0.99726961477262754

>  <r_i_glide_metal>  (1) 
-0

>  <r_i_glide_rewards>  (1) 
-0.76887713008769176

>  <r_lp_Energy>  (1) 
27.209377

>  <s_epik_Chemistry_Notes>  (1) 
This compound has an imine and may undergo hydrolysis. This compound contains an acetal/aminal-like group ( X-CH(R)-Y where X, Y are N, S, or O) that may be acid/base labile, releasing an aldehyde.

>  <s_epik_cmdline>  (1) 
J2VwaWtfcHl0aG9uJywgJy1waHQnLCAnMS4wJywgJy1waCcsICc3LjQnLCAnLXRuJywgJzgnLCAnLW1hJywgJzUwMCcsICctaW1hZScsICc8aW5maWxlLm1hZT4nLCAnLW9tYWUnLCAnPG91dGZpbGUubWFlPic=

>  <s_epik_input>  (1) 
W1NIXVMoPU8pKD1PKVtDQEBdMShbQ0gyXVtDSDNdKVtDQEBdKFtDSDNdKShbQ0BASF0xW09IXSlPW0NASF0oW0NAQEhdMltDSDNdKVtOSF1bQ0BASF0oRilbQ0BIXTJbQ0gyXVxbQ0hdPVtDSF1cQyhbQ0gyXVtOSDJdKT1OXEMoPU5cW0hdKVxbQ0gyXVtDSDJdW0NIMl1bTkhdW0NIMl1bT0hd

>  <s_glide_docking_method>  (1) 
confgen

>  <s_i_glide_gridfile>  (1) 
gpcr_drd2_6luq_protein_autoprepared_prepared

>  <s_lp_Force_Field>  (1) 
S-OPLS

>  <s_lp_Variant>  (1) 
DiffSBDD_10_num_sample_50-12

>  <s_m_source_file>  (1) 
generated__ligand_DiffSBDD_2026-05-06_prepared.sdf

>  <GenAI_Model>  (1) 
DiffSBDD

>  <Protein>  (1) 
generic_title2

$$$$
DiffSBDD_4_num_sample_50
     RDKit          3D

  0  0  0  0  0  0  0  0  0  0999 V3000
M  V30 BEGIN CTAB
M  V30 COUNTS 43 44 0 0 1
M  V30 BEGIN ATOM
M  V30 1 C 10.316834 4.567250 -16.859039 0
M  V30 2 C 8.420779 7.761553 -12.291626 0
M  V30 3 C 8.953423 4.274526 -11.026480 0
M  V30 4 C 3.806224 7.195758 -18.087575 0
M  V30 5 C 7.359358 7.495581 -13.384227 0
M  V30 6 O 11.230436 5.346332 -16.595472 0
M  V30 7 N 7.556493 6.221151 -14.101544 0
M  V30 8 O 5.524083 7.732095 -15.478956 0
M  V30 9 C 8.829158 5.307565 -12.153937 0 CFG=2
M  V30 10 C 8.455664 6.554155 -11.377109 0 CFG=1
M  V30 11 C 9.165951 4.355272 -15.880808 0
M  V30 12 C 7.754703 5.050965 -13.224222 0
M  V30 13 O 8.286677 4.969297 -8.784417 0
M  V30 14 C 6.234819 6.948283 -16.110128 0
M  V30 15 O 6.122818 6.753056 -17.442819 0
M  V30 16 C 9.416156 6.541676 -10.192377 0
M  V30 17 C 9.317725 5.076067 -9.746912 0 CFG=2
M  V30 18 C 7.324188 6.092209 -15.494878 0
M  V30 19 C 8.014852 5.244057 -16.311899 0
M  V30 20 C 5.281000 7.584681 -18.222777 0
M  V30 21 H 10.262203 3.990911 -17.782861 0
M  V30 22 H 9.416802 7.933426 -12.691635 0
M  V30 23 H 8.154630 8.655029 -11.726202 0
M  V30 24 H 9.692853 3.513530 -11.269306 0
M  V30 25 H 7.998934 3.769375 -10.896507 0
M  V30 26 H 3.184217 7.855198 -18.691667 0
M  V30 27 H 3.453874 7.276917 -17.059668 0
M  V30 28 H 3.651355 6.169795 -18.415988 0
M  V30 29 H 6.359964 7.507487 -12.946660 0
M  V30 30 H 7.435007 8.330284 -14.077920 0
M  V30 31 H 9.804350 5.444129 -12.626470 0
M  V30 32 H 7.440186 6.414589 -11.006613 0
M  V30 33 H 8.858056 3.310330 -15.892753 0
M  V30 34 H 9.547960 4.606384 -14.894476 0
M  V30 35 H 6.799085 4.892523 -12.722289 0
M  V30 36 H 7.918900 4.108637 -13.739518 0
M  V30 37 H 7.620573 5.616158 -8.987813 0
M  V30 38 H 10.428352 6.773937 -10.525096 0
M  V30 39 H 9.149348 7.253440 -9.410069 0
M  V30 40 H 10.234723 4.727008 -9.277636 0
M  V30 41 H 7.760483 5.186233 -17.359376 0
M  V30 42 H 5.587238 7.490854 -19.264302 0
M  V30 43 H 5.434836 8.625121 -17.943047 0
M  V30 END ATOM
M  V30 BEGIN BOND
M  V30 1 1 5 2
M  V30 2 2 6 1
M  V30 3 1 7 5
M  V30 4 1 9 3
M  V30 5 1 10 2
M  V30 6 1 10 9
M  V30 7 1 11 1
M  V30 8 1 12 7
M  V30 9 1 12 9
M  V30 10 2 14 8
M  V30 11 1 15 14
M  V30 12 1 16 10
M  V30 13 1 17 3
M  V30 14 1 17 13
M  V30 15 1 17 16
M  V30 16 1 18 7
M  V30 17 1 18 14
M  V30 18 1 19 11
M  V30 19 2 19 18
M  V30 20 1 20 4
M  V30 21 1 20 15
M  V30 22 1 21 1
M  V30 23 1 22 2
M  V30 24 1 23 2
M  V30 25 1 24 3
M  V30 26 1 25 3
M  V30 27 1 26 4
M  V30 28 1 27 4
M  V30 29 1 28 4
M  V30 30 1 29 5
M  V30 31 1 30 5
M  V30 32 1 9 31 CFG=3
M  V30 33 1 10 32 CFG=1
M  V30 34 1 33 11
M  V30 35 1 34 11
M  V30 36 1 35 12
M  V30 37 1 36 12
M  V30 38 1 37 13
M  V30 39 1 38 16
M  V30 40 1 39 16
M  V30 41 1 17 40 CFG=1
M  V30 42 1 41 19
M  V30 43 1 42 20
M  V30 44 1 43 20
M  V30 END BOND
M  V30 END CTAB
M  END
>  <i_epik_Tot_Q>  (1) 
0

>  <i_epik_Tot_abs_Q>  (1) 
0

>  <i_i_glide_confnum>  (1) 
18

>  <i_i_glide_lignum>  (1) 
12

>  <i_i_glide_posenum>  (1) 
209

>  <i_i_glide_rotatable_bonds>  (1) 
7

>  <i_lp_mmshare_version>  (1) 
72125

>  <i_m_source_file_index>  (1) 
5

>  <i_f3d_flags>  (1) 
0

>  <num_sample>  (1) 
50

>  <b_lp_Chiralities_Consistent>  (1) 
1

>  <r_epik_Charging_Adjusted_Penalty>  (1) 
0.41067984158451698

>  <r_epik_Ionization_Penalty>  (1) 
6.7674502354530413e-05

>  <r_epik_Ionization_Penalty_Charging>  (1) 
2.6319130011581777e-09

>  <r_epik_Ionization_Penalty_Neutral>  (1) 
6.7671870441529249e-05

>  <r_epik_State_Penalty>  (1) 
0.41067983895260396

>  <r_glide_ring_energy>  (1) 
0

>  <r_i_docking_score>  (1) 
-3.4948773280796011

>  <r_i_glide_ecoul>  (1) 
-1.2049875875951357

>  <r_i_glide_eff_state_penalty>  (1) 
0.41067983895260396

>  <r_i_glide_einternal>  (1) 
5.3682657311567894

>  <r_i_glide_emodel>  (1) 
-27.168801796175785

>  <r_i_glide_emodel_strain>  (1) 
0.73713816842814595

>  <r_i_glide_energy>  (1) 
-24.335387120711204

>  <r_i_glide_erotb>  (1) 
0.91336080097250838

>  <r_i_glide_esite>  (1) 
0

>  <r_i_glide_evdw>  (1) 
-23.130399533116069

>  <r_i_glide_gscore>  (1) 
-3.9055571670322049

>  <r_i_glide_gscore_strain>  (1) 
0

>  <r_i_glide_hbond>  (1) 
-0.031697259245003419

>  <r_i_glide_ligand_efficiency>  (1) 
-0.17474386640398004

>  <r_i_glide_ligand_efficiency_ln>  (1) 
-0.87465252644944957

>  <r_i_glide_ligand_efficiency_sa>  (1) 
-0.47432782935887036

>  <r_i_glide_lipo>  (1) 
-1.034415303789801

>  <r_i_glide_metal>  (1) 
-0

>  <r_i_glide_rewards>  (1) 
-2.4155372901748349

>  <r_lp_Energy>  (1) 
25.184904

>  <r_lp_tautomer_probability>  (1) 
0.5

>  <s_epik_Chemistry_Notes>  (1) 
This compound has an ester and may undergo hydrolysis at high or low pH. This compound has an imine and may undergo hydrolysis.

>  <s_epik_cmdline>  (1) 
J2VwaWtfcHl0aG9uJywgJy1waHQnLCAnMS4wJywgJy1waCcsICc3LjQnLCAnLXRuJywgJzgnLCAnLW1hJywgJzUwMCcsICctaW1hZScsICc8aW5maWxlLm1hZT4nLCAnLW9tYWUnLCAnPG91dGZpbGUubWFlPic=

>  <s_epik_input>  (1) 
W0NIM11bQ0gyXU9DKD1PKUMoPVtDSF1cW0NIMl1bQ0hdPU8pXE4oW0NIMl0xKVtDSDJdW0NIMl1bQ0BASF0oW0NASF0xMilbQ0gyXVtDQEhdKFtDSDJdMilbT0hd

>  <s_glide_docking_method>  (1) 
confgen

>  <s_i_glide_gridfile>  (1) 
gpcr_drd2_6luq_protein_autoprepared_prepared

>  <s_lp_Force_Field>  (1) 
S-OPLS

>  <s_lp_Variant>  (1) 
DiffSBDD_4_num_sample_50-1

>  <s_m_source_file>  (1) 
generated__ligand_DiffSBDD_2026-05-06_prepared.sdf

>  <GenAI_Model>  (1) 
DiffSBDD

>  <Protein>  (1) 
generic_title2

$$$$
DiffSBDD_31_num_sample_50
     RDKit          3D

  0  0  0  0  0  0  0  0  0  0999 V3000
M  V30 BEGIN CTAB
M  V30 COUNTS 71 76 0 0 1
M  V30 BEGIN ATOM
M  V30 1 C 10.866584 5.534899 -21.529485 0
M  V30 2 C 8.317546 6.044261 -20.408211 0
M  V30 3 C 7.953206 4.734150 -8.529163 0
M  V30 4 C 6.262850 6.807871 -12.827558 0
M  V30 5 C 7.770541 5.593277 -11.285960 0
M  V30 6 C 7.516878 4.576064 -16.402038 0
M  V30 7 C 9.406927 7.432480 -10.658231 0 CFG=2
M  V30 8 C 5.811628 6.483808 -20.816055 0
M  V30 9 F 12.086915 5.293750 -22.068478 0
M  V30 10 C 10.672019 6.655404 -20.705934 0
M  V30 11 C 6.951784 6.337712 -19.818495 0
M  V30 12 C 7.518738 4.928249 -13.804088 0
M  V30 13 C 5.898109 7.086043 -16.622030 0
M  V30 14 C 5.503328 6.145116 -17.766148 0
M  V30 15 C 7.813636 5.259035 -17.750923 0
M  V30 16 C 9.406253 6.908020 -20.146504 0
M  V30 17 F 8.784886 8.377601 -11.367040 0
M  V30 18 C 9.792045 4.662142 -21.796826 0
M  V30 19 C 8.520885 4.914428 -21.237239 0
M  V30 20 C 8.646270 5.782537 -9.010760 0
M  V30 21 N 6.632903 5.609672 -18.554128 0
M  V30 22 C 6.058709 7.390949 -14.226883 0
M  V30 23 C 10.778493 7.137851 -11.244141 0
M  V30 24 C 7.582794 6.044155 -12.742085 0 CFG=1
M  V30 25 O 10.794648 6.436311 -12.466655 0
M  V30 26 C 6.357233 7.706060 -20.122126 0
M  V30 27 C 6.727544 3.665985 -13.515810 0
M  V30 28 C 8.578063 6.204571 -10.363539 0
M  V30 29 C 9.645847 7.874743 -9.120913 0 CFG=2
M  V30 30 O 10.852856 8.572562 -8.856845 0
M  V30 31 C 8.232921 3.611101 -13.534214 0
M  V30 32 C 7.410196 5.574418 -15.220631 0 CFG=2
M  V30 33 N 6.157370 6.395317 -15.318412 0 CFG=2 CHG=1
M  V30 34 C 9.509251 6.628323 -8.139836 0
M  V30 35 H 8.017719 4.468767 -7.491865 0
M  V30 36 H 7.309934 4.142432 -9.152992 0
M  V30 37 H 5.435856 6.143976 -12.567470 0
M  V30 38 H 6.240819 7.617729 -12.091186 0
M  V30 39 H 7.184339 4.744196 -10.994968 0
M  V30 40 H 6.642205 3.932498 -16.469281 0
M  V30 41 H 8.362665 3.912142 -16.233675 0
M  V30 42 H 6.049706 6.365310 -21.871234 0
M  V30 43 H 4.810689 6.162223 -20.535025 0
M  V30 44 H 11.494845 7.326516 -20.502674 0
M  V30 45 H 5.042665 7.749960 -16.481053 0
M  V30 46 H 6.702035 7.750808 -16.914546 0
M  V30 47 H 4.898953 5.367506 -17.329680 0
M  V30 48 H 4.778353 6.638470 -18.406868 0
M  V30 49 H 8.407180 4.553400 -18.336443 0
M  V30 50 H 8.451507 6.129437 -17.604817 0
M  V30 51 H 9.267123 7.769302 -19.515253 0
M  V30 52 H 9.941557 3.800818 -22.434665 0
M  V30 53 H 7.698987 4.245957 -21.449336 0
M  V30 54 H 5.074118 7.861669 -14.255883 0
M  V30 55 H 6.804478 8.167986 -14.413279 0
M  V30 56 H 11.297497 6.570696 -10.491663 0
M  V30 57 H 11.332134 8.062550 -11.307487 0
M  V30 58 H 8.379099 6.727763 -13.016540 0
M  V30 59 H 10.557536 7.025008 -13.162574 0
M  V30 60 H 5.701982 8.201902 -19.413174 0
M  V30 61 H 6.949947 8.387172 -20.728195 0
M  V30 62 H 6.228017 3.573228 -12.555272 0
M  V30 63 H 6.227702 3.169706 -14.341794 0
M  V30 64 H 8.882135 8.596808 -8.843332 0
M  V30 65 H 10.877075 8.791125 -7.937599 0
M  V30 66 H 8.634770 3.023804 -14.346838 0
M  V30 67 H 8.741556 3.472448 -12.580207 0
M  V30 68 H 8.260695 6.249759 -15.310566 0
M  V30 69 H 9.040915 6.893234 -7.191815 0
M  V30 70 H 10.463109 6.134409 -7.955702 0
M  V30 71 H 5.399909 5.744372 -15.179521 0
M  V30 END ATOM
M  V30 BEGIN BOND
M  V30 1 1 9 1
M  V30 2 1 10 1
M  V30 3 1 11 2
M  V30 4 1 11 8
M  V30 5 1 14 13
M  V30 6 1 15 6
M  V30 7 1 16 2
M  V30 8 2 16 10
M  V30 9 1 7 17 CFG=3
M  V30 10 2 18 1
M  V30 11 2 19 2
M  V30 12 1 19 18
M  V30 13 2 20 3
M  V30 14 1 21 11
M  V30 15 1 21 14
M  V30 16 1 21 15
M  V30 17 1 22 4
M  V30 18 1 23 7
M  V30 19 1 24 4
M  V30 20 1 24 5
M  V30 21 1 24 12
M  V30 22 1 25 23
M  V30 23 1 26 8
M  V30 24 1 26 11
M  V30 25 1 27 12
M  V30 26 2 28 5
M  V30 27 1 28 7
M  V30 28 1 28 20
M  V30 29 1 29 7
M  V30 30 1 30 29
M  V30 31 1 31 12
M  V30 32 1 31 27
M  V30 33 1 32 6
M  V30 34 1 32 12
M  V30 35 1 33 13
M  V30 36 1 33 22
M  V30 37 1 33 32
M  V30 38 1 34 20
M  V30 39 1 34 29
M  V30 40 1 35 3
M  V30 41 1 36 3
M  V30 42 1 37 4
M  V30 43 1 38 4
M  V30 44 1 39 5
M  V30 45 1 40 6
M  V30 46 1 41 6
M  V30 47 1 42 8
M  V30 48 1 43 8
M  V30 49 1 44 10
M  V30 50 1 45 13
M  V30 51 1 46 13
M  V30 52 1 47 14
M  V30 53 1 48 14
M  V30 54 1 49 15
M  V30 55 1 50 15
M  V30 56 1 51 16
M  V30 57 1 52 18
M  V30 58 1 53 19
M  V30 59 1 54 22
M  V30 60 1 55 22
M  V30 61 1 56 23
M  V30 62 1 57 23
M  V30 63 1 24 58 CFG=3
M  V30 64 1 59 25
M  V30 65 1 60 26
M  V30 66 1 61 26
M  V30 67 1 62 27
M  V30 68 1 63 27
M  V30 69 1 29 64 CFG=1
M  V30 70 1 65 30
M  V30 71 1 66 31
M  V30 72 1 67 31
M  V30 73 1 32 68 CFG=3
M  V30 74 1 69 34
M  V30 75 1 70 34
M  V30 76 1 33 71 CFG=1
M  V30 END BOND
M  V30 END CTAB
M  END
>  <i_epik_Tot_Q>  (1) 
1

>  <i_epik_Tot_abs_Q>  (1) 
1

>  <i_i_glide_confnum>  (1) 
114

>  <i_i_glide_lignum>  (1) 
79

>  <i_i_glide_posenum>  (1) 
347

>  <i_i_glide_rotatable_bonds>  (1) 
6

>  <i_lp_mmshare_version>  (1) 
72125

>  <i_m_source_file_index>  (1) 
32

>  <i_f3d_flags>  (1) 
0

>  <num_sample>  (1) 
50

>  <b_lp_Chiralities_Consistent>  (1) 
1

>  <r_epik_Charging_Adjusted_Penalty>  (1) 
0.0036996964664751512

>  <r_epik_Ionization_Penalty>  (1) 
0.0040620325304727405

>  <r_epik_Ionization_Penalty_Charging>  (1) 
0.0036996964664751512

>  <r_epik_Ionization_Penalty_Neutral>  (1) 
0.00036233606399758918

>  <r_epik_State_Penalty>  (1) 
-0

>  <r_glide_ring_energy>  (1) 
0

>  <r_i_docking_score>  (1) 
-3.487637061241879

>  <r_i_glide_ecoul>  (1) 
0.31447434910564498

>  <r_i_glide_eff_state_penalty>  (1) 
-0

>  <r_i_glide_einternal>  (1) 
1.5164737586706334

>  <r_i_glide_emodel>  (1) 
-21.472560328471811

>  <r_i_glide_emodel_strain>  (1) 
0.50074448384239645

>  <r_i_glide_energy>  (1) 
-19.441364508893987

>  <r_i_glide_erotb>  (1) 
0.36352394052346937

>  <r_i_glide_esite>  (1) 
-0.10000000000000001

>  <r_i_glide_evdw>  (1) 
-19.755838857999631

>  <r_i_glide_gscore>  (1) 
-3.487637061241879

>  <r_i_glide_gscore_strain>  (1) 
0

>  <r_i_glide_hbond>  (1) 
0

>  <r_i_glide_ligand_efficiency>  (1) 
-0.10257756062476114

>  <r_i_glide_ligand_efficiency_ln>  (1) 
-0.77051685173434858

>  <r_i_glide_ligand_efficiency_sa>  (1) 
-0.33231147594623273

>  <r_i_glide_lipo>  (1) 
-1.7170135521403029

>  <r_i_glide_metal>  (1) 
-0

>  <r_i_glide_rewards>  (1) 
-1.0935266590909105

>  <r_lp_Energy>  (1) 
28.935495999999997

>  <r_lp_tautomer_probability>  (1) 
1

>  <s_epik_cmdline>  (1) 
J2VwaWtfcHl0aG9uJywgJy1waHQnLCAnMS4wJywgJy1waCcsICc3LjQnLCAnLXRuJywgJzgnLCAnLW1hJywgJzUwMCcsICctaW1hZScsICc8aW5maWxlLm1hZT4nLCAnLW9tYWUnLCAnPG91dGZpbGUubWFlPic=

>  <s_epik_input>  (1) 
RmMxW2NIXVtjSF1jKFtjSF1bY0hdMSlDMihbQ0gyXVtDSDJdMilOKFtDSDJdW0NIMl0zKVtDSDJdW0NIMl1OKFtDQEhdM0M0NVtDSDJdW0NIMl01KVtDSDJdW0NIMl1bQ0BIXTQvW0NIXT1DKFxbQ0BdNihGKVtDSDJdW09IXSlDKD1bQ0gyXSlbQ0gyXVtDQEhdNltPSF0=

>  <s_glide_docking_method>  (1) 
confgen

>  <s_i_glide_gridfile>  (1) 
gpcr_drd2_6luq_protein_autoprepared_prepared

>  <s_lp_Force_Field>  (1) 
S-OPLS

>  <s_lp_Variant>  (1) 
DiffSBDD_31_num_sample_50-2

>  <s_m_source_file>  (1) 
generated__ligand_DiffSBDD_2026-05-06_prepared.sdf

>  <GenAI_Model>  (1) 
DiffSBDD

>  <Protein>  (1) 
generic_title2

$$$$
DiffSBDD_32_num_sample_50
     RDKit          3D

  0  0  0  0  0  0  0  0  0  0999 V3000
M  V30 BEGIN CTAB
M  V30 COUNTS 59 61 0 0 1
M  V30 BEGIN ATOM
M  V30 1 C 7.638543 6.486479 -19.625467 0
M  V30 2 F 6.857659 3.983129 -20.793240 0
M  V30 3 N 8.750066 5.796284 -11.705499 0
M  V30 4 C 10.079559 8.164751 -9.235500 0
M  V30 5 C 6.591584 2.738315 -12.503316 0
M  V30 6 C 8.929822 5.218802 -15.434346 0
M  V30 7 C 6.337833 7.436255 -14.485257 0
M  V30 8 O 9.401039 6.264972 -10.507512 0
M  V30 9 C 6.427180 5.205502 -13.099952 0 CFG=1
M  V30 10 O 9.834836 8.169303 -11.637103 0
M  V30 11 C 9.767172 7.532272 -10.592564 0
M  V30 12 C 8.187626 4.486391 -11.419461 0
M  V30 13 C 6.234769 1.858276 -13.687239 0
M  V30 14 C 7.248987 1.379963 -12.691690 0
M  V30 15 C 7.966484 5.103648 -19.027442 0 CFG=1
M  V30 16 C 9.433593 3.603936 -11.278922 0
M  V30 17 C 7.332635 4.595511 -10.121209 0
M  V30 18 C 8.218809 5.181344 -17.548333 0
M  V30 19 C 7.605865 5.559502 -15.474765 0
M  V30 20 C 9.323315 4.969876 -16.772894 0
M  V30 21 O 7.336030 2.757726 -18.965175 0
M  V30 22 C 6.938031 4.023986 -19.440741 0
M  V30 23 O 7.154868 5.542084 -16.766881 0
M  V30 24 C 6.599089 5.951474 -14.430453 0 CFG=2
M  V30 25 C 5.440803 5.030025 -14.205200 0
M  V30 26 F 5.701313 4.318700 -18.977427 0
M  V30 27 C 7.349396 4.062413 -12.666125 0 CFG=1
M  V30 28 C 10.944462 7.280234 -8.331749 0
M  V30 29 F 6.482080 6.969287 -19.169310 0
M  V30 30 H 8.411935 7.214499 -19.379969 0
M  V30 31 H 7.556939 6.442454 -20.711453 0
M  V30 32 H 8.006343 6.465652 -11.851511 0
M  V30 33 H 10.588518 9.112169 -9.411566 0
M  V30 34 H 9.137669 8.399841 -8.737922 0
M  V30 35 H 5.834840 2.779564 -11.728022 0
M  V30 36 H 9.542784 5.160367 -14.545617 0
M  V30 37 H 5.587222 7.722574 -13.748003 0
M  V30 38 H 7.258688 7.985396 -14.281936 0
M  V30 39 H 5.973681 7.722551 -15.472490 0
M  V30 40 H 6.016585 5.774908 -12.268597 0
M  V30 41 H 5.263017 1.368408 -13.679886 0
M  V30 42 H 6.622728 2.118170 -14.670713 0
M  V30 43 H 8.273452 1.326623 -13.054153 0
M  V30 44 H 6.947769 0.569201 -12.031169 0
M  V30 45 H 8.910873 4.803884 -19.483458 0
M  V30 46 H 9.219073 2.569308 -11.491645 0
M  V30 47 H 10.217573 3.885886 -11.985858 0
M  V30 48 H 9.834831 3.670583 -10.270403 0
M  V30 49 H 6.651712 3.769199 -9.961496 0
M  V30 50 H 7.950069 4.659302 -9.224388 0
M  V30 51 H 6.706775 5.487699 -10.127589 0
M  V30 52 H 10.299982 4.678647 -17.129344 0
M  V30 53 H 6.666942 2.454156 -18.371622 0
M  V30 54 H 4.449102 5.428215 -14.040940 0
M  V30 55 H 5.475816 4.082028 -14.691665 0
M  V30 56 H 8.050563 3.868647 -13.469913 0
M  V30 57 H 11.246395 7.820032 -7.434383 0
M  V30 58 H 10.406124 6.385641 -8.015813 0
M  V30 59 H 11.843291 6.969303 -8.856672 0
M  V30 END ATOM
M  V30 BEGIN BOND
M  V30 1 1 8 3
M  V30 2 1 11 4
M  V30 3 1 11 8
M  V30 4 2 11 10
M  V30 5 1 12 3
M  V30 6 1 13 5
M  V30 7 1 14 5
M  V30 8 1 14 13
M  V30 9 1 15 1
M  V30 10 1 16 12
M  V30 11 1 17 12
M  V30 12 1 18 15
M  V30 13 2 19 6
M  V30 14 1 20 6
M  V30 15 2 20 18
M  V30 16 1 22 2
M  V30 17 1 22 15
M  V30 18 1 22 21
M  V30 19 1 23 18
M  V30 20 1 23 19
M  V30 21 1 24 7 CFG=1
M  V30 22 1 24 9
M  V30 23 1 24 19
M  V30 24 1 25 9
M  V30 25 1 25 24
M  V30 26 1 26 22
M  V30 27 1 27 5
M  V30 28 1 27 9
M  V30 29 1 27 12
M  V30 30 1 28 4
M  V30 31 1 29 1
M  V30 32 1 30 1
M  V30 33 1 31 1
M  V30 34 1 32 3
M  V30 35 1 33 4
M  V30 36 1 34 4
M  V30 37 1 35 5
M  V30 38 1 36 6
M  V30 39 1 37 7
M  V30 40 1 38 7
M  V30 41 1 39 7
M  V30 42 1 9 40 CFG=1
M  V30 43 1 41 13
M  V30 44 1 42 13
M  V30 45 1 43 14
M  V30 46 1 44 14
M  V30 47 1 15 45 CFG=3
M  V30 48 1 46 16
M  V30 49 1 47 16
M  V30 50 1 48 16
M  V30 51 1 49 17
M  V30 52 1 50 17
M  V30 53 1 51 17
M  V30 54 1 52 20
M  V30 55 1 53 21
M  V30 56 1 54 25
M  V30 57 1 55 25
M  V30 58 1 27 56 CFG=3
M  V30 59 1 57 28
M  V30 60 1 58 28
M  V30 61 1 59 28
M  V30 END BOND
M  V30 END CTAB
M  END
>  <i_epik_Tot_Q>  (1) 
0

>  <i_epik_Tot_abs_Q>  (1) 
0

>  <i_i_glide_confnum>  (1) 
112

>  <i_i_glide_lignum>  (1) 
82

>  <i_i_glide_posenum>  (1) 
355

>  <i_i_glide_rotatable_bonds>  (1) 
12

>  <i_lp_mmshare_version>  (1) 
72125

>  <i_m_source_file_index>  (1) 
33

>  <i_f3d_flags>  (1) 
0

>  <num_sample>  (1) 
50

>  <b_lp_Chiralities_Consistent>  (1) 
1

>  <r_epik_Charging_Adjusted_Penalty>  (1) 
0.006144794000495021

>  <r_epik_Ionization_Penalty>  (1) 
0.006338033707194878

>  <r_epik_Ionization_Penalty_Charging>  (1) 
0

>  <r_epik_Ionization_Penalty_Neutral>  (1) 
0.006338033707194878

>  <r_epik_State_Penalty>  (1) 
0.006144794000495021

>  <r_glide_ring_energy>  (1) 
0

>  <r_i_docking_score>  (1) 
-3.4818809162123738

>  <r_i_glide_ecoul>  (1) 
-2.0253217747963426

>  <r_i_glide_eff_state_penalty>  (1) 
0.006144794000495021

>  <r_i_glide_einternal>  (1) 
9.2846491853782993

>  <r_i_glide_emodel>  (1) 
-24.141689364299019

>  <r_i_glide_emodel_strain>  (1) 
1.7536143463981873

>  <r_i_glide_energy>  (1) 
-24.310276635474608

>  <r_i_glide_erotb>  (1) 
1.020687923142688

>  <r_i_glide_esite>  (1) 
-0.18196670902060635

>  <r_i_glide_evdw>  (1) 
-22.284954860678265

>  <r_i_glide_gscore>  (1) 
-3.4880257102128689

>  <r_i_glide_gscore_strain>  (1) 
0

>  <r_i_glide_hbond>  (1) 
0

>  <r_i_glide_ligand_efficiency>  (1) 
-0.12006485917973703

>  <r_i_glide_ligand_efficiency_ln>  (1) 
-0.79726243693071674

>  <r_i_glide_ligand_efficiency_sa>  (1) 
-0.36887728703150796

>  <r_i_glide_lipo>  (1) 
-1.6766343577905731

>  <r_i_glide_metal>  (1) 
-0

>  <r_i_glide_rewards>  (1) 
-1.2320665572910126

>  <r_lp_Energy>  (1) 
6.2328609999999998

>  <s_epik_Chemistry_Notes>  (1) 
This compound has a N-S or N-O group and may undergo hydrolysis at high or low pH.

>  <s_epik_cmdline>  (1) 
J2VwaWtfcHl0aG9uJywgJy1waHQnLCAnMS4wJywgJy1waCcsICc3LjQnLCAnLXRuJywgJzgnLCAnLW1hJywgJzUwMCcsICctaW1hZScsICc8aW5maWxlLm1hZT4nLCAnLW9tYWUnLCAnPG91dGZpbGUubWFlPic=

>  <s_epik_input>  (1) 
RkMoRikoW09IXSlbQ0BASF0oW0NIMl1GKWMxW2NIXVtjSF1jKG8xKVtDQF0yKFtDSDNdKVtDQEBIXShbQ0gyXTIpW0NASF0oW0NIXTNbQ0gyXVtDSDJdMylDKFtDSDNdKShbQ0gzXSlbTkhdT0MoPU8pW0NIMl1bQ0gzXQ==

>  <s_glide_docking_method>  (1) 
confgen

>  <s_i_glide_gridfile>  (1) 
gpcr_drd2_6luq_protein_autoprepared_prepared

>  <s_lp_Force_Field>  (1) 
S-OPLS

>  <s_lp_Variant>  (1) 
DiffSBDD_32_num_sample_50-1

>  <s_m_source_file>  (1) 
generated__ligand_DiffSBDD_2026-05-06_prepared.sdf

>  <GenAI_Model>  (1) 
DiffSBDD

>  <Protein>  (1) 
generic_title2

$$$$
DiffSBDD_43_num_sample_50
     RDKit          3D

  0  0  0  0  0  0  0  0  0  0999 V3000
M  V30 BEGIN CTAB
M  V30 COUNTS 59 59 0 0 1
M  V30 BEGIN ATOM
M  V30 1 C 6.945821 7.081612 -12.745118 0
M  V30 2 C 8.015314 5.110580 -17.363271 0
M  V30 3 N 10.226188 8.131081 -6.362355 0
M  V30 4 O 9.018982 4.582652 -9.425709 0
M  V30 5 C 6.041306 5.639125 -14.600152 0
M  V30 6 C 5.687670 6.405567 -17.066634 0 CFG=2
M  V30 7 C 8.193296 4.441277 -11.645392 0 CFG=1
M  V30 8 O 6.512541 5.469800 -19.185374 0
M  V30 9 O 7.835075 2.366675 -15.124393 0
M  V30 10 N 7.035623 4.659192 -12.545507 0 CHG=1
M  V30 11 C 7.772467 2.949420 -16.145024 0
M  V30 12 F 9.324240 4.879372 -12.200126 0
M  V30 13 O 7.927703 7.850218 -12.691560 0
M  V30 14 C 11.219888 9.031343 -8.425275 0
M  V30 15 C 10.264044 6.695026 -6.621696 0 CFG=1
M  V30 16 C 7.986271 5.067850 -10.260699 0
M  V30 17 C 7.127877 5.774628 -13.510517 0 CFG=2
M  V30 18 C 6.070496 6.791595 -15.618968 0
M  V30 19 O 8.957624 5.325078 -8.126502 0
M  V30 20 C 6.924044 6.042472 -17.958508 0 CFG=2
M  V30 21 F 11.411671 10.050597 -6.291782 0
M  V30 22 C 9.950064 6.270006 -8.052987 0
M  V30 23 C 7.651973 3.633610 -17.259407 0
M  V30 24 O 5.827280 7.281258 -12.229424 0 CHG=-1
M  V30 25 C 10.554573 6.743594 -9.170308 0
M  V30 26 C 11.645661 7.781928 -9.179723 0
M  V30 27 C 4.854491 7.586395 -17.624037 0
M  V30 28 C 4.250814 7.388191 -19.009743 0
M  V30 29 F 11.434261 6.194288 -6.222485 0
M  V30 30 C 11.354221 8.867810 -6.906835 0 CFG=1
M  V30 31 H 8.884326 5.152681 -18.021439 0
M  V30 32 H 8.368068 5.488915 -16.403275 0
M  V30 33 H 9.352400 8.512539 -6.699632 0
M  V30 34 H 5.041415 5.577079 -14.164299 0
M  V30 35 H 6.166201 4.693685 -15.107961 0
M  V30 36 H 5.020301 5.548239 -17.023746 0
M  V30 37 H 8.339111 3.369897 -11.535106 0
M  V30 38 H 6.020792 4.683317 -19.006233 0
M  V30 39 H 6.213844 4.833858 -11.982574 0
M  V30 40 H 11.834930 9.859854 -8.763479 0
M  V30 41 H 10.200749 9.296644 -8.710110 0
M  V30 42 H 9.513879 6.241739 -5.972168 0
M  V30 43 H 8.007635 6.158113 -10.310237 0
M  V30 44 H 7.025220 4.783987 -9.831361 0
M  V30 45 H 8.098288 5.756561 -14.007680 0
M  V30 46 H 7.034844 7.292966 -15.623553 0
M  V30 47 H 5.392819 7.550841 -15.226355 0
M  V30 48 H 7.426033 6.974349 -18.216153 0
M  V30 49 H 7.288451 3.161834 -18.159143 0
M  V30 50 H 10.254262 6.376888 -10.138960 0
M  V30 51 H 12.576104 7.369302 -8.794275 0
M  V30 52 H 11.830537 8.045551 -10.221736 0
M  V30 53 H 4.016339 7.766342 -16.949525 0
M  V30 54 H 5.434863 8.507543 -17.611606 0
M  V30 55 H 3.465142 8.126806 -19.186659 0
M  V30 56 H 5.000553 7.509208 -19.790608 0
M  V30 57 H 3.835237 6.384899 -19.091760 0
M  V30 58 H 12.293486 8.382862 -6.664155 0
M  V30 59 H 6.907579 3.812615 -13.077819 0
M  V30 END ATOM
M  V30 BEGIN BOND
M  V30 1 1 10 7
M  V30 2 2 11 9
M  V30 3 1 12 7
M  V30 4 2 13 1
M  V30 5 1 15 3
M  V30 6 1 16 4
M  V30 7 1 16 7
M  V30 8 1 17 1
M  V30 9 1 17 5
M  V30 10 1 17 10
M  V30 11 1 18 5
M  V30 12 1 18 6
M  V30 13 1 19 4
M  V30 14 1 20 2
M  V30 15 1 20 6
M  V30 16 1 20 8
M  V30 17 1 22 15
M  V30 18 1 22 19
M  V30 19 1 23 2
M  V30 20 2 23 11
M  V30 21 1 24 1
M  V30 22 2 25 22
M  V30 23 1 26 14
M  V30 24 1 26 25
M  V30 25 1 27 6
M  V30 26 1 28 27
M  V30 27 1 29 15
M  V30 28 1 30 3
M  V30 29 1 30 14
M  V30 30 1 30 21
M  V30 31 1 31 2
M  V30 32 1 32 2
M  V30 33 1 33 3
M  V30 34 1 34 5
M  V30 35 1 35 5
M  V30 36 1 6 36 CFG=1
M  V30 37 1 7 37 CFG=1
M  V30 38 1 38 8
M  V30 39 1 39 10
M  V30 40 1 40 14
M  V30 41 1 41 14
M  V30 42 1 15 42 CFG=1
M  V30 43 1 43 16
M  V30 44 1 44 16
M  V30 45 1 17 45 CFG=3
M  V30 46 1 46 18
M  V30 47 1 47 18
M  V30 48 1 20 48 CFG=3
M  V30 49 1 49 23
M  V30 50 1 50 25
M  V30 51 1 51 26
M  V30 52 1 52 26
M  V30 53 1 53 27
M  V30 54 1 54 27
M  V30 55 1 55 28
M  V30 56 1 56 28
M  V30 57 1 57 28
M  V30 58 1 30 58 CFG=3
M  V30 59 1 59 10
M  V30 END BOND
M  V30 END CTAB
M  END
>  <i_epik_Tot_Q>  (1) 
0

>  <i_epik_Tot_abs_Q>  (1) 
2

>  <i_i_glide_confnum>  (1) 
1250

>  <i_i_glide_lignum>  (1) 
109

>  <i_i_glide_posenum>  (1) 
156

>  <i_i_glide_rotatable_bonds>  (1) 
15

>  <i_lp_mmshare_version>  (1) 
72125

>  <i_m_source_file_index>  (1) 
44

>  <i_f3d_flags>  (1) 
0

>  <num_sample>  (1) 
50

>  <b_lp_Chiralities_Consistent>  (1) 
1

>  <r_epik_Charging_Adjusted_Penalty>  (1) 
2.1322098409762558

>  <r_epik_Ionization_Penalty>  (1) 
1.0661195873001319

>  <r_epik_Ionization_Penalty_Charging>  (1) 
1.0661068903442914

>  <r_epik_Ionization_Penalty_Neutral>  (1) 
1.2696955840525338e-05

>  <r_epik_State_Penalty>  (1) 
1.0661029506319644

>  <r_glide_ring_energy>  (1) 
0

>  <r_i_docking_score>  (1) 
-3.4802404328864851

>  <r_i_glide_ecoul>  (1) 
-1.0555498408921571

>  <r_i_glide_eff_state_penalty>  (1) 
1.0661029506319644

>  <r_i_glide_einternal>  (1) 
12.713186267536372

>  <r_i_glide_emodel>  (1) 
-36.847858163634982

>  <r_i_glide_emodel_strain>  (1) 
0.62055918314149139

>  <r_i_glide_energy>  (1) 
-32.209762040330162

>  <r_i_glide_erotb>  (1) 
1.1415552716364241

>  <r_i_glide_esite>  (1) 
-0.055224926038862365

>  <r_i_glide_evdw>  (1) 
-31.154212199438007

>  <r_i_glide_gscore>  (1) 
-4.5463433835184492

>  <r_i_glide_gscore_strain>  (1) 
0

>  <r_i_glide_hbond>  (1) 
0

>  <r_i_glide_ligand_efficiency>  (1) 
-0.1160080144295495

>  <r_i_glide_ligand_efficiency_ln>  (1) 
-0.79074854660849991

>  <r_i_glide_ligand_efficiency_sa>  (1) 
-0.36046387338666058

>  <r_i_glide_lipo>  (1) 
-2.3320980968869436

>  <r_i_glide_metal>  (1) 
-0

>  <r_i_glide_rewards>  (1) 
-1.5845325461233437

>  <r_lp_Energy>  (1) 
6.4317659999999997

>  <s_epik_cmdline>  (1) 
J2VwaWtfcHl0aG9uJywgJy1waHQnLCAnMS4wJywgJy1waCcsICc3LjQnLCAnLXRuJywgJzgnLCAnLW1hJywgJzUwMCcsICctaW1hZScsICc8aW5maWxlLm1hZT4nLCAnLW9tYWUnLCAnPG91dGZpbGUubWFlPic=

>  <s_epik_input>  (1) 
Tz1DPVtDSF1bQ0gyXVtDQEBIXShbT0hdKVtDQEhdKFtDSDJdW0NIM10pW0NIMl1bQ0gyXVtDQEBIXShDKD1PKVtPSF0pW05IXVtDQEBIXShGKVtDSDJdT09DMT1bQ0hdW0NIMl1bQ0gyXVtDQEBIXShGKVtOSF1bQ0BIXTFG

>  <s_glide_docking_method>  (1) 
confgen

>  <s_i_glide_gridfile>  (1) 
gpcr_drd2_6luq_protein_autoprepared_prepared

>  <s_lp_Force_Field>  (1) 
S-OPLS

>  <s_lp_Variant>  (1) 
DiffSBDD_43_num_sample_50-4

>  <s_m_source_file>  (1) 
generated__ligand_DiffSBDD_2026-05-06_prepared.sdf

>  <GenAI_Model>  (1) 
DiffSBDD

>  <Protein>  (1) 
generic_title2

$$$$
DiffSBDD_24_num_sample_50
     RDKit          3D

  0  0  0  0  0  0  0  0  0  0999 V3000
M  V30 BEGIN CTAB
M  V30 COUNTS 84 90 0 0 1
M  V30 BEGIN ATOM
M  V30 1 N 10.071441 4.648224 -19.319943 0
M  V30 2 C 10.163861 7.090775 -11.054867 0
M  V30 3 O 6.444127 6.839869 -16.001743 0
M  V30 4 C 6.831140 5.008701 -19.606480 0 CFG=2
M  V30 5 C 13.679271 1.989279 -19.175707 0 CFG=1
M  V30 6 C 9.533934 7.108561 -8.497724 0 CFG=2
M  V30 7 C 7.105419 4.673689 -15.382245 0 CFG=2
M  V30 8 C 7.902007 5.619538 -17.565981 0
M  V30 9 N 14.521128 2.011858 -20.372810 0
M  V30 10 N 8.790305 4.353633 -13.567008 0
M  V30 11 C 9.595875 5.037781 -15.792299 0
M  V30 12 C 8.992835 3.636541 -19.424198 0
M  V30 13 C 12.288038 2.543577 -19.511375 0
M  V30 14 C 9.192822 5.369152 -17.218077 0
M  V30 15 C 15.704080 1.231704 -20.025637 0
M  V30 16 C 11.063420 4.638015 -20.408407 0
M  V30 17 C 14.778298 3.393193 -20.799858 0 CFG=2
M  V30 18 O 11.257679 6.168999 -18.105992 0
M  V30 19 C 10.688200 6.489652 -7.737703 0
M  V30 20 F 7.192241 3.398153 -15.769407 0
M  V30 21 C 13.422859 4.037716 -21.172453 0
M  V30 22 C 4.920151 6.685230 -20.112694 0
M  V30 23 C 15.154347 -0.103976 -19.519563 0 CFG=1
M  V30 24 C 5.493866 7.625843 -16.691730 0
M  V30 25 C 12.416640 3.995985 -20.009262 0 CFG=2
M  V30 26 C 7.840024 4.102753 -20.315827 0
M  V30 27 F 9.055536 4.764067 -8.292011 0
M  V30 28 C 9.317033 6.568247 -9.905830 0 CFG=2
M  V30 29 C 10.258878 5.459698 -18.226284 0
M  V30 30 C 5.952352 5.703650 -20.665232 0
M  V30 31 C 6.729949 5.569815 -16.582771 0 CFG=2
M  V30 32 C 8.443722 5.143272 -14.757365 0 CFG=1
M  V30 33 C 15.737468 3.441350 -22.002623 0
M  V30 34 S 13.653224 0.274659 -18.596823 0
M  V30 35 C 9.393978 5.001802 -12.394549 0 CFG=1
M  V30 36 O 7.551833 5.979682 -18.852310 0
M  V30 37 C 9.915971 5.720952 -8.796766 0 CFG=1
M  V30 38 Cl 14.769939 -1.149717 -20.911924 0
M  V30 39 C 9.817363 6.472808 -12.429132 0
M  V30 40 C 7.932332 4.635528 -12.425285 0
M  V30 41 H 10.013699 8.169274 -11.117105 0
M  V30 42 H 11.220294 6.969307 -10.819277 0
M  V30 43 H 6.195710 4.385806 -18.978151 0
M  V30 44 H 14.144039 2.591943 -18.393450 0
M  V30 45 H 8.635392 7.268864 -7.906573 0
M  V30 46 H 6.300389 4.706349 -14.647220 0
M  V30 47 H 9.955053 4.015179 -15.891651 0
M  V30 48 H 10.446141 5.646519 -15.480059 0
M  V30 49 H 8.637076 3.246427 -18.469665 0
M  V30 50 H 9.427550 2.754276 -19.895316 0
M  V30 51 H 11.809216 1.921817 -20.269396 0
M  V30 52 H 11.659827 2.500412 -18.621993 0
M  V30 53 H 16.371311 1.081825 -20.874035 0
M  V30 54 H 16.261948 1.740699 -19.239847 0
M  V30 55 H 10.657650 4.116747 -21.276125 0
M  V30 56 H 11.226091 5.663874 -20.742544 0
M  V30 57 H 15.226395 3.949078 -19.974461 0
M  V30 58 H 11.681509 6.854759 -7.985977 0
M  V30 59 H 10.532259 6.213999 -6.696451 0
M  V30 60 H 13.582964 5.074065 -21.475539 0
M  V30 61 H 13.001315 3.527849 -22.040294 0
M  V30 62 H 5.404074 7.592185 -19.757949 0
M  V30 63 H 4.234668 6.991122 -20.901460 0
M  V30 64 H 4.338603 6.247751 -19.300536 0
M  V30 65 H 15.873951 -0.630796 -18.895091 0
M  V30 66 H 5.350345 8.572854 -16.171353 0
M  V30 67 H 4.528385 7.121817 -16.752562 0
M  V30 68 H 5.834257 7.850061 -17.695256 0
M  V30 69 H 12.856153 4.580184 -19.200942 0
M  V30 70 H 8.250829 4.605432 -21.192607 0
M  V30 71 H 7.308861 3.231425 -20.700029 0
M  V30 72 H 8.291541 6.332232 -10.183424 0
M  V30 73 H 6.581104 6.236496 -21.380166 0
M  V30 74 H 5.427778 4.937349 -21.236793 0
M  V30 75 H 5.835055 5.193650 -17.061998 0
M  V30 76 H 8.301302 6.189558 -14.509200 0
M  V30 77 H 15.816990 4.455664 -22.395139 0
M  V30 78 H 15.391144 2.800634 -22.813566 0
M  V30 79 H 16.745786 3.130828 -21.731849 0
M  V30 80 H 10.051136 4.364352 -11.807485 0
M  V30 81 H 10.675461 6.573606 -13.091810 0
M  V30 82 H 9.008634 7.077943 -12.832721 0
M  V30 83 H 7.207922 5.445601 -12.498592 0
M  V30 84 H 7.620921 3.793518 -11.811482 0
M  V30 END ATOM
M  V30 BEGIN BOND
M  V30 1 1 9 5
M  V30 2 1 12 1
M  V30 3 1 13 5
M  V30 4 2 14 8
M  V30 5 1 14 11
M  V30 6 1 15 9
M  V30 7 1 16 1
M  V30 8 1 17 9
M  V30 9 1 19 6
M  V30 10 1 20 7
M  V30 11 1 21 17
M  V30 12 1 23 15
M  V30 13 1 24 3
M  V30 14 1 25 13
M  V30 15 1 25 16
M  V30 16 1 25 21
M  V30 17 1 26 4
M  V30 18 1 26 12
M  V30 19 1 28 2
M  V30 20 1 28 6
M  V30 21 1 29 1
M  V30 22 1 29 14
M  V30 23 2 29 18
M  V30 24 1 30 4
M  V30 25 1 30 22
M  V30 26 1 31 3
M  V30 27 1 31 7
M  V30 28 1 31 8
M  V30 29 1 32 7
M  V30 30 1 32 10
M  V30 31 1 32 11
M  V30 32 1 33 17
M  V30 33 1 34 5
M  V30 34 1 34 23
M  V30 35 1 35 10
M  V30 36 1 36 4
M  V30 37 1 36 8
M  V30 38 1 37 6
M  V30 39 1 37 19
M  V30 40 1 37 27 CFG=1
M  V30 41 1 37 28
M  V30 42 1 38 23
M  V30 43 1 39 2
M  V30 44 1 39 35
M  V30 45 1 40 10
M  V30 46 1 40 35
M  V30 47 1 41 2
M  V30 48 1 42 2
M  V30 49 1 4 43 CFG=1
M  V30 50 1 5 44 CFG=1
M  V30 51 1 6 45 CFG=1
M  V30 52 1 7 46 CFG=1
M  V30 53 1 47 11
M  V30 54 1 48 11
M  V30 55 1 49 12
M  V30 56 1 50 12
M  V30 57 1 51 13
M  V30 58 1 52 13
M  V30 59 1 53 15
M  V30 60 1 54 15
M  V30 61 1 55 16
M  V30 62 1 56 16
M  V30 63 1 17 57 CFG=1
M  V30 64 1 58 19
M  V30 65 1 59 19
M  V30 66 1 60 21
M  V30 67 1 61 21
M  V30 68 1 62 22
M  V30 69 1 63 22
M  V30 70 1 64 22
M  V30 71 1 23 65 CFG=1
M  V30 72 1 66 24
M  V30 73 1 67 24
M  V30 74 1 68 24
M  V30 75 1 25 69 CFG=1
M  V30 76 1 70 26
M  V30 77 1 71 26
M  V30 78 1 28 72 CFG=3
M  V30 79 1 73 30
M  V30 80 1 74 30
M  V30 81 1 31 75 CFG=3
M  V30 82 1 32 76 CFG=1
M  V30 83 1 77 33
M  V30 84 1 78 33
M  V30 85 1 79 33
M  V30 86 1 35 80 CFG=1
M  V30 87 1 81 39
M  V30 88 1 82 39
M  V30 89 1 83 40
M  V30 90 1 84 40
M  V30 END BOND
M  V30 END CTAB
M  END
>  <i_epik_Tot_Q>  (1) 
0

>  <i_epik_Tot_abs_Q>  (1) 
0

>  <i_i_glide_confnum>  (1) 
66

>  <i_i_glide_lignum>  (1) 
66

>  <i_i_glide_posenum>  (1) 
170

>  <i_i_glide_rotatable_bonds>  (1) 
8

>  <i_lp_mmshare_version>  (1) 
72125

>  <i_m_source_file_index>  (1) 
25

>  <i_f3d_flags>  (1) 
0

>  <num_sample>  (1) 
50

>  <b_lp_Chiralities_Consistent>  (1) 
1

>  <r_epik_Charging_Adjusted_Penalty>  (1) 
0.52172569417545378

>  <r_epik_Ionization_Penalty>  (1) 
0.52172594648505022

>  <r_epik_Ionization_Penalty_Charging>  (1) 
0

>  <r_epik_Ionization_Penalty_Neutral>  (1) 
0.52172594648505022

>  <r_epik_State_Penalty>  (1) 
0.52172569417545378

>  <r_glide_ring_energy>  (1) 
0

>  <r_i_docking_score>  (1) 
-3.4611532059302963

>  <r_i_glide_ecoul>  (1) 
0.27937827047714947

>  <r_i_glide_eff_state_penalty>  (1) 
0.52172569417545378

>  <r_i_glide_einternal>  (1) 
8.5090225668446315

>  <r_i_glide_emodel>  (1) 
-33.701268983496426

>  <r_i_glide_emodel_strain>  (1) 
1.3940566981126779

>  <r_i_glide_energy>  (1) 
-30.690196788136038

>  <r_i_glide_erotb>  (1) 
0.23292316522527595

>  <r_i_glide_esite>  (1) 
0

>  <r_i_glide_evdw>  (1) 
-30.969575058613188

>  <r_i_glide_gscore>  (1) 
-3.9828789001057499

>  <r_i_glide_gscore_strain>  (1) 
0

>  <r_i_glide_hbond>  (1) 
0

>  <r_i_glide_ligand_efficiency>  (1) 
-0.086528830148257407

>  <r_i_glide_ligand_efficiency_ln>  (1) 
-0.73816212163303641

>  <r_i_glide_ligand_efficiency_sa>  (1) 
-0.29592443649518718

>  <r_i_glide_lipo>  (1) 
-1.8905296515489667

>  <r_i_glide_metal>  (1) 
-0

>  <r_i_glide_rewards>  (1) 
-0.81870040142297273

>  <r_lp_Energy>  (1) 
49.504489

>  <s_epik_Chemistry_Notes>  (1) 
This compound contains an acetal/aminal-like group ( X-CH(R)-Y where X, Y are N, S, or O) that may be acid/base labile, releasing an aldehyde.

>  <s_epik_cmdline>  (1) 
J2VwaWtfcHl0aG9uJywgJy1waHQnLCAnMS4wJywgJy1waCcsICc3LjQnLCAnLXRuJywgJzgnLCAnLW1hJywgJzUwMCcsICctaW1hZScsICc8aW5maWxlLm1hZT4nLCAnLW9tYWUnLCAnPG91dGZpbGUubWFlPic=

>  <s_epik_input>  (1) 
UzFbQ0BASF0oQ2wpW0NIMl1OKFtDQEhdMTIpW0NAQEhdKFtDSDNdKVtDSDJdW0NASF0oW0NIMl0yKVtDSDJdTihbQ0gyXVtDSDJdW0NAQEhdKE8zKVtDSDJdW0NIM10pQyg9TylDKD1DMzQpW0NIMl1bQ0BASF0oW0NASF0oRilbQ0BIXTRPW0NIM10pTjVbQ0BIXShbQ0gyXTUpW0NIMl1bQ0gyXVtDQEBIXTZbQ0hdKFtDSDJdNylDNjdG

>  <s_glide_docking_method>  (1) 
confgen

>  <s_i_glide_gridfile>  (1) 
gpcr_drd2_6luq_protein_autoprepared_prepared

>  <s_lp_Force_Field>  (1) 
S-OPLS

>  <s_lp_Variant>  (1) 
DiffSBDD_24_num_sample_50-3

>  <s_m_source_file>  (1) 
generated__ligand_DiffSBDD_2026-05-06_prepared.sdf

>  <GenAI_Model>  (1) 
DiffSBDD

>  <Protein>  (1) 
generic_title2

$$$$
DiffSBDD_10_num_sample_50
     RDKit          3D

  0  0  0  0  0  0  0  0  0  0999 V3000
M  V30 BEGIN CTAB
M  V30 COUNTS 72 73 0 0 1
M  V30 BEGIN ATOM
M  V30 1 C 6.633547 5.736749 -20.902292 0 CFG=2
M  V30 2 C 11.049074 8.396055 -9.194436 0
M  V30 3 C 9.804421 6.284172 -12.421310 0
M  V30 4 C 8.472107 4.749219 -15.705503 0 CFG=1
M  V30 5 C 7.731582 6.316978 -19.982751 0 CFG=2
M  V30 6 N 9.834682 6.321031 -9.417287 0
M  V30 7 N 9.262617 4.659506 -17.938843 0
M  V30 8 C 7.853419 4.852429 -18.052258 0 CFG=1
M  V30 9 S 7.132079 5.453086 -22.691670 0
M  V30 10 C 11.905478 7.936897 -8.041816 0
M  V30 11 S 5.657368 6.631452 -23.656562 0 CHG=-1
M  V30 12 C 4.242204 4.800201 -21.173627 0
M  V30 13 O 11.033283 10.568196 -4.693011 0
M  V30 14 O 8.434410 6.060798 -22.999850 0
M  V30 15 C 6.629843 7.205906 -20.535561 0 CFG=2
M  V30 16 C 7.783531 7.954615 -12.670400 0
M  V30 17 C 9.653943 5.123339 -16.626342 0 CFG=2
M  V30 18 N 10.633993 8.969279 -6.145632 0 CHG=1
M  V30 19 N 9.362935 8.104937 -10.846739 0
M  V30 20 C 11.166157 7.722899 -6.712146 0
M  V30 21 C 6.125692 5.774857 -16.381425 0
M  V30 22 C 5.575119 4.741663 -20.416011 0
M  V30 23 C 9.178714 6.680681 -20.290041 0
M  V30 24 C 8.323593 5.639370 -14.448731 0
M  V30 25 C 9.011534 7.482758 -11.908463 0
M  V30 26 O 5.688836 7.562373 -19.540758 0
M  V30 27 C 10.127716 7.624073 -9.790511 0
M  V30 28 O 6.875669 4.047281 -23.041298 0
M  V30 29 F 10.812494 4.568309 -16.288409 0
M  V30 30 N 6.598428 7.208979 -12.291627 0
M  V30 31 C 11.661677 9.962063 -5.791546 0
M  V30 32 C 7.241112 4.731417 -16.640613 0 CFG=2
M  V30 33 O 7.533680 6.110618 -18.579113 0
M  V30 34 C 9.508344 5.501368 -13.502994 0
M  V30 35 H 11.205741 9.407065 -9.541382 0
M  V30 36 H 10.685041 6.058037 -11.847276 0
M  V30 37 H 8.625143 3.720872 -15.374742 0
M  V30 38 H 10.274794 5.883403 -8.622822 0
M  V30 39 H 9.781334 5.136269 -18.661647 0
M  V30 40 H 7.448001 4.083464 -18.707489 0
M  V30 41 H 12.791328 8.566440 -7.947391 0
M  V30 42 H 12.234847 6.969283 -8.361231 0
M  V30 43 H 3.497452 4.172397 -20.690608 0
M  V30 44 H 3.846887 5.814816 -21.198830 0
M  V30 45 H 4.343954 4.453016 -22.201706 0
M  V30 46 H 11.139971 11.507681 -4.754587 0
M  V30 47 H 6.830952 7.961266 -21.291760 0
M  V30 48 H 7.585851 8.961950 -12.300492 0
M  V30 49 H 7.915436 8.129234 -13.726922 0
M  V30 50 H 9.818781 6.194812 -16.656332 0
M  V30 51 H 10.143262 8.729480 -5.297470 0
M  V30 52 H 11.832446 7.253535 -5.987630 0
M  V30 53 H 10.334238 7.029824 -6.842290 0
M  V30 54 H 6.510161 6.795088 -16.394902 0
M  V30 55 H 5.337691 5.717624 -17.131911 0
M  V30 56 H 5.649203 5.618836 -15.414179 0
M  V30 57 H 5.986140 3.734718 -20.480138 0
M  V30 58 H 5.369451 4.921101 -19.363083 0
M  V30 59 H 9.245028 7.378952 -21.123233 0
M  V30 60 H 9.631865 7.176751 -19.430616 0
M  V30 61 H 9.760216 5.789787 -20.527103 0
M  V30 62 H 7.414125 5.365965 -13.917178 0
M  V30 63 H 8.234784 6.630653 -14.857177 0
M  V30 64 H 5.975609 7.129453 -18.747015 0
M  V30 65 H 6.552281 7.267702 -11.273128 0
M  V30 66 H 5.770990 7.679326 -12.626989 0
M  V30 67 H 11.834009 10.665611 -6.607463 0
M  V30 68 H 12.606205 9.511392 -5.481886 0
M  V30 69 H 6.807857 3.734024 -16.570837 0
M  V30 70 H 10.177067 4.685813 -13.729904 0
M  V30 71 H 9.058234 5.819541 -9.827687 0
M  V30 72 H 9.972649 9.373272 -6.794141 0
M  V30 END ATOM
M  V30 BEGIN BOND
M  V30 1 1 5 1
M  V30 2 1 8 7
M  V30 3 1 9 1
M  V30 4 1 10 2
M  V30 5 1 11 9
M  V30 6 2 14 9
M  V30 7 1 15 1
M  V30 8 1 15 5
M  V30 9 1 17 4
M  V30 10 1 17 7
M  V30 11 1 20 10
M  V30 12 1 20 18
M  V30 13 1 1 22 CFG=1
M  V30 14 1 22 12
M  V30 15 1 23 5
M  V30 16 1 24 4
M  V30 17 1 25 3
M  V30 18 1 25 16
M  V30 19 2 25 19
M  V30 20 1 26 15
M  V30 21 2 27 2
M  V30 22 1 27 6
M  V30 23 1 27 19
M  V30 24 2 28 9
M  V30 25 1 29 17
M  V30 26 1 30 16
M  V30 27 1 31 13
M  V30 28 1 31 18
M  V30 29 1 32 4
M  V30 30 1 32 8
M  V30 31 1 32 21
M  V30 32 1 5 33 CFG=1
M  V30 33 1 33 8
M  V30 34 2 34 3
M  V30 35 1 34 24
M  V30 36 1 35 2
M  V30 37 1 36 3
M  V30 38 1 4 37 CFG=1
M  V30 39 1 38 6
M  V30 40 1 39 7
M  V30 41 1 8 40 CFG=3
M  V30 42 1 41 10
M  V30 43 1 42 10
M  V30 44 1 43 12
M  V30 45 1 44 12
M  V30 46 1 45 12
M  V30 47 1 46 13
M  V30 48 1 15 47 CFG=3
M  V30 49 1 48 16
M  V30 50 1 49 16
M  V30 51 1 17 50 CFG=3
M  V30 52 1 51 18
M  V30 53 1 52 20
M  V30 54 1 53 20
M  V30 55 1 54 21
M  V30 56 1 55 21
M  V30 57 1 56 21
M  V30 58 1 57 22
M  V30 59 1 58 22
M  V30 60 1 59 23
M  V30 61 1 60 23
M  V30 62 1 61 23
M  V30 63 1 62 24
M  V30 64 1 63 24
M  V30 65 1 64 26
M  V30 66 1 65 30
M  V30 67 1 66 30
M  V30 68 1 67 31
M  V30 69 1 68 31
M  V30 70 1 32 69 CFG=3
M  V30 71 1 70 34
M  V30 72 1 71 6
M  V30 73 1 72 18
M  V30 END BOND
M  V30 END CTAB
M  END
>  <i_epik_Tot_Q>  (1) 
0

>  <i_epik_Tot_abs_Q>  (1) 
2

>  <i_i_glide_confnum>  (1) 
1743

>  <i_i_glide_lignum>  (1) 
25

>  <i_i_glide_posenum>  (1) 
159

>  <i_i_glide_rotatable_bonds>  (1) 
15

>  <i_lp_mmshare_version>  (1) 
72125

>  <i_m_source_file_index>  (1) 
11

>  <i_f3d_flags>  (1) 
0

>  <num_sample>  (1) 
50

>  <b_lp_Chiralities_Consistent>  (1) 
1

>  <r_epik_Charging_Adjusted_Penalty>  (1) 
0.33639934582642134

>  <r_epik_Ionization_Penalty>  (1) 
0.23315943830934333

>  <r_epik_Ionization_Penalty_Charging>  (1) 
0.10316865490585193

>  <r_epik_Ionization_Penalty_Neutral>  (1) 
0.12999078340349141

>  <r_epik_State_Penalty>  (1) 
0.23323069092056939

>  <r_glide_ring_energy>  (1) 
0

>  <r_i_docking_score>  (1) 
-3.4569390906746871

>  <r_i_glide_ecoul>  (1) 
-0.85191548229603042

>  <r_i_glide_eff_state_penalty>  (1) 
0.23323069092056939

>  <r_i_glide_einternal>  (1) 
19.593551572634986

>  <r_i_glide_emodel>  (1) 
-28.746622222659976

>  <r_i_glide_emodel_strain>  (1) 
2.6416908557867771

>  <r_i_glide_energy>  (1) 
-31.02324385495174

>  <r_i_glide_erotb>  (1) 
0.82510599487301828

>  <r_i_glide_esite>  (1) 
-0.12819583464068421

>  <r_i_glide_evdw>  (1) 
-30.171328372655712

>  <r_i_glide_gscore>  (1) 
-3.6901697815952565

>  <r_i_glide_gscore_strain>  (1) 
0

>  <r_i_glide_hbond>  (1) 
-0.16

>  <r_i_glide_ligand_efficiency>  (1) 
-0.1016746791374908

>  <r_i_glide_ligand_efficiency_ln>  (1) 
-0.76373480898714707

>  <r_i_glide_ligand_efficiency_sa>  (1) 
-0.32938649042491674

>  <r_i_glide_lipo>  (1) 
-1.8594169800464282

>  <r_i_glide_metal>  (1) 
-0

>  <r_i_glide_rewards>  (1) 
-0.73130922080397254

>  <r_lp_Energy>  (1) 
28.206426

>  <s_epik_Chemistry_Notes>  (1) 
This compound has an imine and may undergo hydrolysis. This compound contains an acetal/aminal-like group ( X-CH(R)-Y where X, Y are N, S, or O) that may be acid/base labile, releasing an aldehyde.

>  <s_epik_cmdline>  (1) 
J2VwaWtfcHl0aG9uJywgJy1waHQnLCAnMS4wJywgJy1waCcsICc3LjQnLCAnLXRuJywgJzgnLCAnLW1hJywgJzUwMCcsICctaW1hZScsICc8aW5maWxlLm1hZT4nLCAnLW9tYWUnLCAnPG91dGZpbGUubWFlPic=

>  <s_epik_input>  (1) 
W1NIXVMoPU8pKD1PKVtDQEBdMShbQ0gyXVtDSDNdKVtDQEBdKFtDSDNdKShbQ0BASF0xW09IXSlPW0NASF0oW0NAQEhdMltDSDNdKVtOSF1bQ0BASF0oRilbQ0BIXTJbQ0gyXS9bQ0hdPVtDSF1cQyhbQ0gyXVtOSDJdKT1OL0MoPU4vW0hdKS9bQ0gyXVtDSDJdW0NIMl1bTkhdW0NIMl1bT0hd

>  <s_glide_docking_method>  (1) 
confgen

>  <s_i_glide_gridfile>  (1) 
gpcr_drd2_6luq_protein_autoprepared_prepared

>  <s_lp_Force_Field>  (1) 
S-OPLS

>  <s_lp_Variant>  (1) 
DiffSBDD_10_num_sample_50-5

>  <s_m_source_file>  (1) 
generated__ligand_DiffSBDD_2026-05-06_prepared.sdf

>  <GenAI_Model>  (1) 
DiffSBDD

>  <Protein>  (1) 
generic_title2

$$$$
DiffSBDD_41_num_sample_50
     RDKit          3D

  0  0  0  0  0  0  0  0  0  0999 V3000
M  V30 BEGIN CTAB
M  V30 COUNTS 105 110 0 0 1
M  V30 BEGIN ATOM
M  V30 1 C 9.248248 4.198417 -12.942737 0
M  V30 2 C 8.564832 1.585465 -17.131474 0
M  V30 3 C 7.522189 2.625129 -16.658591 0
M  V30 4 C 5.425449 4.017834 -12.828388 0
M  V30 5 C 8.634820 3.004437 -12.950618 0
M  V30 6 O 8.276081 1.974288 -19.478220 0
M  V30 7 C 10.952904 0.367208 -22.339272 0
M  V30 8 N 11.334623 3.502483 -20.478416 0
M  V30 9 O 15.034823 2.048448 -17.856282 0
M  V30 10 C 10.310656 4.563114 -18.409210 0 CFG=2
M  V30 11 C 5.676280 4.425261 -11.366435 0
M  V30 12 O 9.012764 4.940351 -17.965041 0
M  V30 13 C 9.268929 4.822790 -20.827422 0
M  V30 14 C 13.434764 0.379685 -18.916067 0 CFG=1
M  V30 15 C 13.539502 5.212659 -23.017449 0
M  V30 16 C 15.021229 0.594981 -19.893698 0 CFG=2
M  V30 17 C 8.952426 5.442348 -16.635275 0
M  V30 18 C 9.056403 4.364922 -15.529083 0 CFG=1
M  V30 19 C 14.171437 -0.681587 -19.759602 0
M  V30 20 C 9.472129 5.042730 -14.191058 0
M  V30 21 C 14.706802 2.157282 -16.483911 0
M  V30 22 C 9.262174 -0.922482 -20.901322 0
M  V30 23 O 11.620483 0.859561 -21.185474 0
M  V30 24 C 16.337512 0.756499 -20.644697 0
M  V30 25 C 8.324114 1.142107 -18.574365 0
M  V30 26 C 12.235719 5.029056 -22.223568 0
M  V30 27 N 12.914200 2.652890 -22.003108 0 CHG=1
M  V30 28 N 8.178714 -0.177499 -18.781998 0
M  V30 29 C 9.479447 0.160514 -21.974489 0
M  V30 30 C 8.091368 2.353516 -14.205954 0 CFG=2
M  V30 31 S 11.901123 0.169334 -17.946713 0
M  V30 32 C 7.824155 3.410040 -15.337150 0 CFG=2
M  V30 33 O 7.016795 1.477445 -13.942869 0
M  V30 34 C 5.506824 5.939118 -11.145561 0
M  V30 35 F 18.007309 2.263658 -21.313391 0
M  V30 36 C 11.077904 5.662071 -19.080306 0
M  V30 37 C 12.160682 3.681705 -21.539221 0
M  V30 38 C 12.920228 1.304346 -21.402693 0 CFG=1
M  V30 39 C 6.126340 6.726709 -12.290780 0
M  V30 40 C 6.440066 6.167020 -13.464903 0
M  V30 41 C 16.802314 2.213022 -20.748266 0
M  V30 42 C 10.462591 4.550924 -19.920430 0 CFG=2
M  V30 43 F 15.949907 2.927660 -21.481742 0
M  V30 44 N 6.221573 4.836046 -13.749835 0
M  V30 45 C 6.535772 4.244050 -15.055258 0
M  V30 46 C 14.837098 0.734060 -18.370790 0 CFG=1
M  V30 47 C 7.949982 -0.754018 -20.107234 0
M  V30 48 C 13.695279 1.385136 -20.071960 0 CFG=1
M  V30 49 H 9.617480 4.603150 -12.012241 0
M  V30 50 H 8.547237 0.710094 -16.482176 0
M  V30 51 H 9.574927 1.983438 -17.084819 0
M  V30 52 H 7.302756 3.332776 -17.457437 0
M  V30 53 H 6.590542 2.070538 -16.543163 0
M  V30 54 H 4.373990 4.169366 -13.073045 0
M  V30 55 H 5.583913 2.956531 -12.925193 0
M  V30 56 H 8.527020 2.458123 -12.031149 0
M  V30 57 H 11.023921 1.082239 -23.160366 0
M  V30 58 H 11.406680 -0.567099 -22.672970 0
M  V30 59 H 11.275330 2.582065 -20.059363 0
M  V30 60 H 10.837544 3.813997 -17.822092 0
M  V30 61 H 6.697933 4.153814 -11.101388 0
M  V30 62 H 5.034870 3.865108 -10.686706 0
M  V30 63 H 9.269145 5.862895 -21.151956 0
M  V30 64 H 9.288620 4.187950 -21.714220 0
M  V30 65 H 8.329816 4.627645 -20.309970 0
M  V30 66 H 13.579217 6.206188 -23.466327 0
M  V30 67 H 14.411561 5.110448 -22.370127 0
M  V30 68 H 13.627937 4.491261 -23.828854 0
M  V30 69 H 8.028743 6.006770 -16.525946 0
M  V30 70 H 9.760660 6.166007 -16.518720 0
M  V30 71 H 9.889497 3.769308 -15.891514 0
M  V30 72 H 14.625239 -1.511530 -19.211956 0
M  V30 73 H 13.660070 -1.037583 -20.655035 0
M  V30 74 H 8.919138 5.962604 -14.042345 0
M  V30 75 H 10.511254 5.369201 -14.244767 0
M  V30 76 H 14.882909 3.176059 -16.139117 0
M  V30 77 H 13.658642 1.921912 -16.302290 0
M  V30 78 H 15.328247 1.489728 -15.886930 0
M  V30 79 H 9.263589 -1.894688 -21.394976 0
M  V30 80 H 10.103129 -0.954720 -20.209281 0
M  V30 81 H 17.112631 0.174133 -20.142987 0
M  V30 82 H 16.249193 0.332845 -21.645797 0
M  V30 83 H 13.424904 0.641192 -22.107189 0
M  V30 84 H 11.379899 5.139231 -22.890292 0
M  V30 85 H 8.225123 -0.808081 -17.993945 0
M  V30 86 H 9.076403 1.118170 -21.649212 0
M  V30 87 H 8.912427 -0.107842 -22.866588 0
M  V30 88 H 8.824601 1.612886 -14.499091 0
M  V30 89 H 11.122895 -0.150269 -18.985777 0
M  V30 90 H 6.252361 1.989079 -13.736362 0
M  V30 91 H 5.990481 6.169290 -10.207697 0
M  V30 92 H 4.462803 6.215890 -11.034159 0
M  V30 93 H 10.623038 6.648760 -19.148255 0
M  V30 94 H 12.158558 5.660896 -18.950981 0
M  V30 95 H 12.175070 5.832503 -21.492357 0
M  V30 96 H 6.313360 7.776408 -12.120965 0
M  V30 97 H 6.884924 6.726767 -14.274440 0
M  V30 98 H 16.880163 2.684380 -19.769060 0
M  V30 99 H 6.284471 4.934018 -15.860067 0
M  V30 100 H 5.834845 3.452531 -15.091658 0
M  V30 101 H 15.336905 -0.034625 -17.771649 0
M  V30 102 H 7.209004 -0.179671 -20.667237 0
M  V30 103 H 7.503126 -1.735765 -19.946464 0
M  V30 104 H 13.759555 2.418482 -19.723008 0
M  V30 105 H 13.470802 2.825157 -22.829265 0
M  V30 END ATOM
M  V30 BEGIN BOND
M  V30 1 1 3 2
M  V30 2 2 5 1
M  V30 3 1 11 4
M  V30 4 1 12 10
M  V30 5 1 17 12
M  V30 6 1 18 17
M  V30 7 1 19 14
M  V30 8 1 19 16
M  V30 9 1 20 1
M  V30 10 1 20 18
M  V30 11 1 21 9
M  V30 12 1 23 7
M  V30 13 1 16 24 CFG=3
M  V30 14 1 25 2
M  V30 15 2 25 6
M  V30 16 1 26 15
M  V30 17 1 28 25
M  V30 18 1 29 7
M  V30 19 1 29 22
M  V30 20 1 30 5
M  V30 21 1 14 31 CFG=1
M  V30 22 1 32 3
M  V30 23 1 32 18
M  V30 24 1 32 30
M  V30 25 1 33 30
M  V30 26 1 34 11
M  V30 27 1 36 10
M  V30 28 1 37 8
M  V30 29 1 37 26
M  V30 30 2 37 27
M  V30 31 1 38 23
M  V30 32 1 38 27
M  V30 33 1 39 34
M  V30 34 2 40 39
M  V30 35 1 41 24
M  V30 36 1 41 35
M  V30 37 1 42 8
M  V30 38 1 42 10
M  V30 39 1 42 13 CFG=3
M  V30 40 1 42 36
M  V30 41 1 43 41
M  V30 42 1 44 4
M  V30 43 1 44 40
M  V30 44 1 32 45 CFG=1
M  V30 45 1 45 44
M  V30 46 1 46 9
M  V30 47 1 46 14
M  V30 48 1 46 16
M  V30 49 1 47 22
M  V30 50 1 47 28
M  V30 51 1 48 14
M  V30 52 1 48 16
M  V30 53 1 48 38
M  V30 54 1 49 1
M  V30 55 1 50 2
M  V30 56 1 51 2
M  V30 57 1 52 3
M  V30 58 1 53 3
M  V30 59 1 54 4
M  V30 60 1 55 4
M  V30 61 1 56 5
M  V30 62 1 57 7
M  V30 63 1 58 7
M  V30 64 1 59 8
M  V30 65 1 10 60 CFG=1
M  V30 66 1 61 11
M  V30 67 1 62 11
M  V30 68 1 63 13
M  V30 69 1 64 13
M  V30 70 1 65 13
M  V30 71 1 66 15
M  V30 72 1 67 15
M  V30 73 1 68 15
M  V30 74 1 69 17
M  V30 75 1 70 17
M  V30 76 1 18 71 CFG=3
M  V30 77 1 72 19
M  V30 78 1 73 19
M  V30 79 1 74 20
M  V30 80 1 75 20
M  V30 81 1 76 21
M  V30 82 1 77 21
M  V30 83 1 78 21
M  V30 84 1 79 22
M  V30 85 1 80 22
M  V30 86 1 81 24
M  V30 87 1 82 24
M  V30 88 1 38 83 CFG=3
M  V30 89 1 84 26
M  V30 90 1 85 28
M  V30 91 1 86 29
M  V30 92 1 87 29
M  V30 93 1 30 88 CFG=3
M  V30 94 1 89 31
M  V30 95 1 90 33
M  V30 96 1 91 34
M  V30 97 1 92 34
M  V30 98 1 93 36
M  V30 99 1 94 36
M  V30 100 1 95 26
M  V30 101 1 96 39
M  V30 102 1 97 40
M  V30 103 1 98 41
M  V30 104 1 99 45
M  V30 105 1 100 45
M  V30 106 1 46 101 CFG=1
M  V30 107 1 102 47
M  V30 108 1 103 47
M  V30 109 1 48 104 CFG=1
M  V30 110 1 105 27
M  V30 END BOND
M  V30 END CTAB
M  END
>  <i_epik_Tot_Q>  (1) 
1

>  <i_epik_Tot_abs_Q>  (1) 
1

>  <i_i_glide_confnum>  (1) 
117

>  <i_i_glide_lignum>  (1) 
101

>  <i_i_glide_posenum>  (1) 
233

>  <i_i_glide_rotatable_bonds>  (1) 
9

>  <i_lp_mmshare_version>  (1) 
72125

>  <i_m_source_file_index>  (1) 
42

>  <i_f3d_flags>  (1) 
0

>  <num_sample>  (1) 
50

>  <b_lp_Chiralities_Consistent>  (1) 
1

>  <r_epik_Charging_Adjusted_Penalty>  (1) 
0.076842420233623365

>  <r_epik_Ionization_Penalty>  (1) 
0.078794888684849976

>  <r_epik_Ionization_Penalty_Charging>  (1) 
0.00072930087509115145

>  <r_epik_Ionization_Penalty_Neutral>  (1) 
0.078065587809758821

>  <r_epik_State_Penalty>  (1) 
0.076113119358532211

>  <r_glide_ring_energy>  (1) 
0

>  <r_i_docking_score>  (1) 
-3.4519776799965558

>  <r_i_glide_ecoul>  (1) 
-1.8542366251914122

>  <r_i_glide_eff_state_penalty>  (1) 
0.076113119358532211

>  <r_i_glide_einternal>  (1) 
29.808656402858986

>  <r_i_glide_emodel>  (1) 
-15.134781870717269

>  <r_i_glide_emodel_strain>  (1) 
0.84395556690463991

>  <r_i_glide_energy>  (1) 
-24.639182800119283

>  <r_i_glide_erotb>  (1) 
0.0035911919815773572

>  <r_i_glide_esite>  (1) 
0

>  <r_i_glide_evdw>  (1) 
-22.784946174927871

>  <r_i_glide_gscore>  (1) 
-3.5280907993550881

>  <r_i_glide_gscore_strain>  (1) 
0

>  <r_i_glide_hbond>  (1) 
0

>  <r_i_glide_ligand_efficiency>  (1) 
-0.071916201666594917

>  <r_i_glide_ligand_efficiency_ln>  (1) 
-0.70865022245369813

>  <r_i_glide_ligand_efficiency_sa>  (1) 
-0.26136082201327737

>  <r_i_glide_lipo>  (1) 
-1.633805904046173

>  <r_i_glide_metal>  (1) 
-0

>  <r_i_glide_rewards>  (1) 
-0.48049328476538683

>  <r_lp_Energy>  (1) 
118.844916

>  <s_epik_Chemistry_Notes>  (1) 
This compound has an imine and may undergo hydrolysis. This compound contains an acetal/aminal-like group ( X-CH(R)-Y where X, Y are N, S, or O) that may be acid/base labile, releasing an aldehyde.

>  <s_epik_cmdline>  (1) 
J2VwaWtfcHl0aG9uJywgJy1waHQnLCAnMS4wJywgJy1waCcsICc3LjQnLCAnLXRuJywgJzgnLCAnLW1hJywgJzUwMCcsICctaW1hZScsICc8aW5maWxlLm1hZT4nLCAnLW9tYWUnLCAnPG91dGZpbGUubWFlPic=

>  <s_epik_input>  (1) 
W0NIXTE9W0NIXVtDSDJdW0NIMl1bQ0gyXU4xW0NIMl1bQ0BdMjNbQ0BIXShbQ0gyXVtDSF09W0NIXVtDQEhdM1tPSF0pW0NIMl1PW0NASF00W0NAQF0oW0NIM10pKFtDSDJdNClbTkhdW0NASF0oW0NIMl1bQ0gzXSkvTj1DKFtDQEBIXTVbQ0BdKFtDSDJdW0NIXShGKUYpKFtDSDJdW0NAXTU2W1NIXSlbQ0BIXTZPW0NIM10pL09bQ0gyXVtDSDJdW0NIMl1bQ0gyXVtOSF1DKD1PKVtDSDJdW0NIMl0y

>  <s_glide_docking_method>  (1) 
confgen

>  <s_i_glide_gridfile>  (1) 
gpcr_drd2_6luq_protein_autoprepared_prepared

>  <s_lp_Force_Field>  (1) 
S-OPLS

>  <s_lp_Variant>  (1) 
DiffSBDD_41_num_sample_50-1

>  <s_m_source_file>  (1) 
generated__ligand_DiffSBDD_2026-05-06_prepared.sdf

>  <GenAI_Model>  (1) 
DiffSBDD

>  <Protein>  (1) 
generic_title2

$$$$
DiffSBDD_10_num_sample_50
     RDKit          3D

  0  0  0  0  0  0  0  0  0  0999 V3000
M  V30 BEGIN CTAB
M  V30 COUNTS 73 74 0 0 1
M  V30 BEGIN ATOM
M  V30 1 C 6.148468 6.772099 -21.187011 0 CFG=2
M  V30 2 C 8.611799 5.074390 -10.625024 0
M  V30 3 C 7.299890 5.264752 -14.994808 0
M  V30 4 C 8.595541 3.520190 -17.932802 0 CFG=1
M  V30 5 C 7.152390 5.661483 -21.572777 0 CFG=2
M  V30 6 N 10.078044 6.579745 -11.845368 0
M  V30 7 N 9.539301 4.845941 -19.685094 0
M  V30 8 C 8.498940 4.069767 -20.277835 0 CFG=1
M  V30 9 S 5.069911 7.451238 -22.565713 0
M  V30 10 C 9.019297 5.474141 -9.207847 0
M  V30 11 S 3.834841 5.769293 -22.824726 0 CHG=-1
M  V30 12 C 5.057238 8.169169 -19.274403 0
M  V30 13 O 11.434722 6.847657 -6.707702 0
M  V30 14 O 4.215147 8.538955 -22.066647 0
M  V30 15 C 7.606677 7.100966 -21.451001 0 CFG=2
M  V30 16 C 7.024041 7.015489 -13.139674 0
M  V30 17 C 9.272686 4.868771 -18.256485 0 CFG=2
M  V30 18 N 9.434497 7.335599 -7.561473 0 CHG=1
M  V30 19 N 8.657252 5.166420 -13.005575 0
M  V30 20 C 9.582603 6.891644 -8.967834 0
M  V30 21 C 6.802333 2.317106 -19.492612 0
M  V30 22 C 5.487419 6.794551 -19.797104 0
M  V30 23 C 7.159991 4.885173 -22.884273 0
M  V30 24 C 7.434774 3.640312 -16.925742 0
M  V30 25 C 7.734022 5.759678 -13.665980 0
M  V30 26 O 8.356877 7.369291 -20.291580 0
M  V30 27 C 9.108543 5.600617 -11.767747 0
M  V30 28 O 5.849498 7.650715 -23.796638 0
M  V30 29 F 10.404021 5.049696 -17.577171 0
M  V30 30 N 6.271509 6.770045 -11.891672 0 CHG=1
M  V30 31 C 10.079741 6.503917 -6.528156 0
M  V30 32 C 8.209096 2.924248 -19.305746 0 CFG=2
M  V30 33 O 7.327241 4.821517 -20.423340 0
M  V30 34 C 7.850513 4.178446 -15.572035 0
M  V30 35 H 7.858981 4.301471 -10.693435 0
M  V30 36 H 6.514128 5.823181 -15.481544 0
M  V30 37 H 9.344442 2.857095 -17.495897 0
M  V30 38 H 10.565650 6.901948 -11.025193 0
M  V30 39 H 9.563809 5.790232 -20.057445 0
M  V30 40 H 8.820444 3.676711 -21.240603 0
M  V30 41 H 9.709495 4.716437 -8.835151 0
M  V30 42 H 8.106920 5.370847 -8.617766 0
M  V30 43 H 5.010072 8.167575 -18.185423 0
M  V30 44 H 5.754804 8.948856 -19.579184 0
M  V30 45 H 4.063500 8.443117 -19.625685 0
M  V30 46 H 11.964610 6.079040 -6.546396 0
M  V30 47 H 7.922738 7.644165 -22.339177 0
M  V30 48 H 7.753674 7.810250 -12.978136 0
M  V30 49 H 6.324114 7.385960 -13.888737 0
M  V30 50 H 8.611139 5.704387 -18.026673 0
M  V30 51 H 8.436223 7.358404 -7.376375 0
M  V30 52 H 9.045550 7.614679 -9.582022 0
M  V30 53 H 10.633891 6.944302 -9.252611 0
M  V30 54 H 6.006025 3.032092 -19.283168 0
M  V30 55 H 6.664554 1.969752 -20.516826 0
M  V30 56 H 6.656584 1.459105 -18.836578 0
M  V30 57 H 4.628772 6.123759 -19.812340 0
M  V30 58 H 6.171042 6.373884 -19.061564 0
M  V30 59 H 6.909788 5.510577 -23.734841 0
M  V30 60 H 8.146832 4.473812 -23.087502 0
M  V30 61 H 6.439411 4.068367 -22.839054 0
M  V30 62 H 6.994334 2.657844 -16.756387 0
M  V30 63 H 6.653441 4.277079 -17.343032 0
M  V30 64 H 7.869778 7.007194 -19.566251 0
M  V30 65 H 5.783562 7.607793 -11.608326 0
M  V30 66 H 5.616710 6.011784 -12.009759 0
M  V30 67 H 9.900364 5.443796 -6.691638 0
M  V30 68 H 9.745729 6.774235 -5.526018 0
M  V30 69 H 8.937756 2.145456 -19.535565 0
M  V30 70 H 8.634839 3.638373 -15.062943 0
M  V30 71 H 10.489050 6.836694 -12.732618 0
M  V30 72 H 9.789617 8.275456 -7.477049 0
M  V30 73 H 6.923635 6.546003 -11.149707 0
M  V30 END ATOM
M  V30 BEGIN BOND
M  V30 1 1 5 1
M  V30 2 1 8 7
M  V30 3 1 9 1
M  V30 4 1 10 2
M  V30 5 1 11 9
M  V30 6 2 14 9
M  V30 7 1 15 1
M  V30 8 1 15 5
M  V30 9 1 17 4
M  V30 10 1 17 7
M  V30 11 1 20 10
M  V30 12 1 20 18
M  V30 13 1 1 22 CFG=1
M  V30 14 1 22 12
M  V30 15 1 23 5
M  V30 16 1 24 4
M  V30 17 1 25 3
M  V30 18 1 25 16
M  V30 19 2 25 19
M  V30 20 1 26 15
M  V30 21 2 27 2
M  V30 22 1 27 6
M  V30 23 1 27 19
M  V30 24 2 28 9
M  V30 25 1 29 17
M  V30 26 1 30 16
M  V30 27 1 31 13
M  V30 28 1 31 18
M  V30 29 1 32 4
M  V30 30 1 32 8
M  V30 31 1 32 21
M  V30 32 1 5 33 CFG=1
M  V30 33 1 33 8
M  V30 34 2 34 3
M  V30 35 1 34 24
M  V30 36 1 35 2
M  V30 37 1 36 3
M  V30 38 1 4 37 CFG=1
M  V30 39 1 38 6
M  V30 40 1 39 7
M  V30 41 1 8 40 CFG=3
M  V30 42 1 41 10
M  V30 43 1 42 10
M  V30 44 1 43 12
M  V30 45 1 44 12
M  V30 46 1 45 12
M  V30 47 1 46 13
M  V30 48 1 15 47 CFG=3
M  V30 49 1 48 16
M  V30 50 1 49 16
M  V30 51 1 17 50 CFG=3
M  V30 52 1 51 18
M  V30 53 1 52 20
M  V30 54 1 53 20
M  V30 55 1 54 21
M  V30 56 1 55 21
M  V30 57 1 56 21
M  V30 58 1 57 22
M  V30 59 1 58 22
M  V30 60 1 59 23
M  V30 61 1 60 23
M  V30 62 1 61 23
M  V30 63 1 62 24
M  V30 64 1 63 24
M  V30 65 1 64 26
M  V30 66 1 65 30
M  V30 67 1 66 30
M  V30 68 1 67 31
M  V30 69 1 68 31
M  V30 70 1 32 69 CFG=3
M  V30 71 1 70 34
M  V30 72 1 71 6
M  V30 73 1 72 18
M  V30 74 1 73 30
M  V30 END BOND
M  V30 END CTAB
M  END
>  <i_epik_Tot_Q>  (1) 
1

>  <i_epik_Tot_abs_Q>  (1) 
3

>  <i_i_glide_confnum>  (1) 
323

>  <i_i_glide_lignum>  (1) 
36

>  <i_i_glide_posenum>  (1) 
135

>  <i_i_glide_rotatable_bonds>  (1) 
15

>  <i_lp_mmshare_version>  (1) 
72125

>  <i_m_source_file_index>  (1) 
11

>  <i_f3d_flags>  (1) 
0

>  <num_sample>  (1) 
50

>  <b_lp_Chiralities_Consistent>  (1) 
1

>  <r_epik_Charging_Adjusted_Penalty>  (1) 
2.168687317063887

>  <r_epik_Ionization_Penalty>  (1) 
1.1047352072338965

>  <r_epik_Ionization_Penalty_Charging>  (1) 
1.0999234457570315

>  <r_epik_Ionization_Penalty_Neutral>  (1) 
0.0048117614768649203

>  <r_epik_State_Penalty>  (1) 
1.0687638713068555

>  <r_glide_ring_energy>  (1) 
0

>  <r_i_docking_score>  (1) 
-3.4489102288694351

>  <r_i_glide_ecoul>  (1) 
-8.0082373123834145

>  <r_i_glide_eff_state_penalty>  (1) 
1.0687638713068555

>  <r_i_glide_einternal>  (1) 
13.631870454977532

>  <r_i_glide_emodel>  (1) 
-46.033148988808847

>  <r_i_glide_emodel_strain>  (1) 
0.86887386095860109

>  <r_i_glide_energy>  (1) 
-36.656568402447775

>  <r_i_glide_erotb>  (1) 
0.57553451871204087

>  <r_i_glide_esite>  (1) 
-0.18682232211202099

>  <r_i_glide_evdw>  (1) 
-28.64833109006436

>  <r_i_glide_gscore>  (1) 
-4.5176741001762908

>  <r_i_glide_gscore_strain>  (1) 
0

>  <r_i_glide_hbond>  (1) 
-0.24799543712175065

>  <r_i_glide_ligand_efficiency>  (1) 
-0.10143853614321868

>  <r_i_glide_ligand_efficiency_ln>  (1) 
-0.76196100821242141

>  <r_i_glide_ligand_efficiency_sa>  (1) 
-0.32862147879388381

>  <r_i_glide_lipo>  (1) 
-0.82621508523898013

>  <r_i_glide_metal>  (1) 
-0

>  <r_i_glide_rewards>  (1) 
-1.1985236230548499

>  <r_lp_Energy>  (1) 
20.091348

>  <s_epik_Chemistry_Notes>  (1) 
This compound has an imine and may undergo hydrolysis. This compound contains an acetal/aminal-like group ( X-CH(R)-Y where X, Y are N, S, or O) that may be acid/base labile, releasing an aldehyde.

>  <s_epik_cmdline>  (1) 
J2VwaWtfcHl0aG9uJywgJy1waHQnLCAnMS4wJywgJy1waCcsICc3LjQnLCAnLXRuJywgJzgnLCAnLW1hJywgJzUwMCcsICctaW1hZScsICc8aW5maWxlLm1hZT4nLCAnLW9tYWUnLCAnPG91dGZpbGUubWFlPic=

>  <s_epik_input>  (1) 
W1NIXVMoPU8pKD1PKVtDQEBdMShbQ0gyXVtDSDNdKVtDQEBdKFtDSDNdKShbQ0BASF0xW09IXSlPW0NASF0oW0NAQEhdMltDSDNdKVtOSF1bQ0BASF0oRilbQ0BIXTJbQ0gyXVxbQ0hdPVtDSF1cQyhbQ0gyXVtOSDJdKT1OXEMoPU5cW0hdKVxbQ0gyXVtDSDJdW0NIMl1bTkhdW0NIMl1bT0hd

>  <s_glide_docking_method>  (1) 
confgen

>  <s_i_glide_gridfile>  (1) 
gpcr_drd2_6luq_protein_autoprepared_prepared

>  <s_lp_Force_Field>  (1) 
S-OPLS

>  <s_lp_Variant>  (1) 
DiffSBDD_10_num_sample_50-16

>  <s_m_source_file>  (1) 
generated__ligand_DiffSBDD_2026-05-06_prepared.sdf

>  <GenAI_Model>  (1) 
DiffSBDD

>  <Protein>  (1) 
generic_title2

$$$$
DiffSBDD_10_num_sample_50
     RDKit          3D

  0  0  0  0  0  0  0  0  0  0999 V3000
M  V30 BEGIN CTAB
M  V30 COUNTS 71 72 0 0 1
M  V30 BEGIN ATOM
M  V30 1 C 10.948010 7.829375 -9.026693 0 CFG=2
M  V30 2 C 7.443594 0.663998 -18.053930 0
M  V30 3 C 8.007272 2.151524 -15.399980 0
M  V30 4 C 7.562628 4.182474 -12.465409 0 CFG=1
M  V30 5 C 9.881365 6.702190 -9.149638 0 CFG=2
M  V30 6 N 8.412010 -1.331546 -17.091689 0
M  V30 7 N 7.552589 5.369303 -10.415284 0
M  V30 8 C 8.921543 5.121276 -10.791293 0 CFG=1
M  V30 9 S 11.684666 8.009683 -7.293566 0
M  V30 10 C 8.102586 0.531465 -19.418451 0
M  V30 11 S 10.234838 8.969286 -6.184314 0 CHG=-1
M  V30 12 C 13.385121 8.169318 -9.977843 0
M  V30 13 O 5.306012 3.644092 -21.606142 0
M  V30 14 O 11.834845 6.675758 -6.691686 0
M  V30 15 C 9.473874 8.154365 -9.142450 0 CFG=2
M  V30 16 C 6.344049 1.007514 -13.702694 0
M  V30 17 C 6.660701 4.970562 -11.494472 0 CFG=1
M  V30 18 N 6.668001 2.123358 -20.623423 0
M  V30 19 N 6.988246 -0.032287 -15.803427 0
M  V30 20 C 7.116386 0.738689 -20.577351 0
M  V30 21 C 9.113138 6.169297 -13.087379 0
M  V30 22 C 11.866302 8.310393 -10.154813 0
M  V30 23 C 9.491098 5.764193 -8.004568 0
M  V30 24 C 6.982192 4.005425 -13.895041 0
M  V30 25 C 7.096430 0.987525 -15.033553 0
M  V30 26 O 9.034839 8.569310 -10.424360 0
M  V30 27 C 7.619469 -0.205025 -17.034844 0
M  V30 28 O 12.799007 8.969293 -7.282863 0
M  V30 29 F 6.156431 6.068067 -12.057458 0
M  V30 30 N 4.970002 0.569299 -13.861043 0
M  V30 31 C 5.729643 2.305196 -21.711842 0
M  V30 32 C 8.939838 4.852031 -12.304962 0 CFG=2
M  V30 33 O 9.834832 6.141528 -10.477149 0
M  V30 34 C 7.966490 3.424655 -14.904616 0
M  V30 35 H 6.799084 1.519839 -17.915270 0
M  V30 36 H 8.754740 1.912094 -16.140371 0
M  V30 37 H 7.685770 3.188433 -12.047926 0
M  V30 38 H 8.803405 -1.648445 -17.964340 0
M  V30 39 H 7.379391 6.334006 -10.115189 0
M  V30 40 H 9.251806 4.221101 -10.270473 0
M  V30 41 H 8.568735 -0.447363 -19.523295 0
M  V30 42 H 8.910930 1.260432 -19.482247 0
M  V30 43 H 13.890011 8.249805 -10.938960 0
M  V30 44 H 13.797669 8.969293 -9.377492 0
M  V30 45 H 13.682888 7.253363 -9.491667 0
M  V30 46 H 5.665135 4.128172 -22.334599 0
M  V30 47 H 8.873213 8.537481 -8.325771 0
M  V30 48 H 6.413660 1.884134 -13.093252 0
M  V30 49 H 6.817619 0.253110 -13.073970 0
M  V30 50 H 5.823388 4.380556 -11.120683 0
M  V30 51 H 6.209494 2.368716 -19.758140 0
M  V30 52 H 6.264300 0.065295 -20.469940 0
M  V30 53 H 7.606894 0.493371 -21.520709 0
M  V30 54 H 8.418400 6.942586 -12.758022 0
M  V30 55 H 10.122131 6.560393 -12.959491 0
M  V30 56 H 8.954332 6.016738 -14.150838 0
M  V30 57 H 11.572810 7.806666 -11.075997 0
M  V30 58 H 11.664346 9.369367 -10.291666 0
M  V30 59 H 9.426325 6.300881 -7.059832 0
M  V30 60 H 8.508908 5.319786 -8.134883 0
M  V30 61 H 10.227442 4.969390 -7.911522 0
M  V30 62 H 6.786306 5.006636 -14.280325 0
M  V30 63 H 5.983078 3.578328 -13.934643 0
M  V30 64 H 8.093903 8.379914 -10.386169 0
M  V30 65 H 4.559669 1.022505 -14.663758 0
M  V30 66 H 4.975574 -0.425662 -14.065713 0
M  V30 67 H 4.876620 1.635442 -21.601027 0
M  V30 68 H 6.196956 2.122583 -22.680334 0
M  V30 69 H 9.753886 4.167453 -12.548727 0
M  V30 70 H 8.704652 4.123247 -15.267890 0
M  V30 71 H 8.366298 -2.029683 -16.353475 0
M  V30 END ATOM
M  V30 BEGIN BOND
M  V30 1 1 5 1
M  V30 2 1 8 7
M  V30 3 1 9 1
M  V30 4 1 10 2
M  V30 5 1 11 9
M  V30 6 2 14 9
M  V30 7 1 15 1
M  V30 8 1 15 5
M  V30 9 1 17 4
M  V30 10 1 17 7
M  V30 11 1 20 10
M  V30 12 1 20 18
M  V30 13 1 1 22 CFG=3
M  V30 14 1 22 12
M  V30 15 1 23 5
M  V30 16 1 24 4
M  V30 17 1 25 3
M  V30 18 1 25 16
M  V30 19 2 25 19
M  V30 20 1 26 15
M  V30 21 2 27 2
M  V30 22 1 27 6
M  V30 23 1 27 19
M  V30 24 2 28 9
M  V30 25 1 29 17
M  V30 26 1 30 16
M  V30 27 1 31 13
M  V30 28 1 31 18
M  V30 29 1 32 4
M  V30 30 1 32 8
M  V30 31 1 32 21
M  V30 32 1 5 33 CFG=3
M  V30 33 1 33 8
M  V30 34 2 34 3
M  V30 35 1 34 24
M  V30 36 1 35 2
M  V30 37 1 36 3
M  V30 38 1 4 37 CFG=1
M  V30 39 1 38 6
M  V30 40 1 39 7
M  V30 41 1 8 40 CFG=1
M  V30 42 1 41 10
M  V30 43 1 42 10
M  V30 44 1 43 12
M  V30 45 1 44 12
M  V30 46 1 45 12
M  V30 47 1 46 13
M  V30 48 1 15 47 CFG=1
M  V30 49 1 48 16
M  V30 50 1 49 16
M  V30 51 1 17 50 CFG=1
M  V30 52 1 51 18
M  V30 53 1 52 20
M  V30 54 1 53 20
M  V30 55 1 54 21
M  V30 56 1 55 21
M  V30 57 1 56 21
M  V30 58 1 57 22
M  V30 59 1 58 22
M  V30 60 1 59 23
M  V30 61 1 60 23
M  V30 62 1 61 23
M  V30 63 1 62 24
M  V30 64 1 63 24
M  V30 65 1 64 26
M  V30 66 1 65 30
M  V30 67 1 66 30
M  V30 68 1 67 31
M  V30 69 1 68 31
M  V30 70 1 32 69 CFG=1
M  V30 71 1 70 34
M  V30 72 1 71 6
M  V30 END BOND
M  V30 END CTAB
M  END
>  <i_epik_Tot_Q>  (1) 
-1

>  <i_epik_Tot_abs_Q>  (1) 
1

>  <i_i_glide_confnum>  (1) 
1839

>  <i_i_glide_lignum>  (1) 
37

>  <i_i_glide_posenum>  (1) 
38

>  <i_i_glide_rotatable_bonds>  (1) 
15

>  <i_lp_mmshare_version>  (1) 
72125

>  <i_m_source_file_index>  (1) 
11

>  <i_f3d_flags>  (1) 
0

>  <num_sample>  (1) 
50

>  <b_lp_Chiralities_Consistent>  (1) 
1

>  <r_epik_Charging_Adjusted_Penalty>  (1) 
1.239197207418439

>  <r_epik_Ionization_Penalty>  (1) 
1.2496715491914541

>  <r_epik_Ionization_Penalty_Charging>  (1) 
1.1069707349969355e-11

>  <r_epik_Ionization_Penalty_Neutral>  (1) 
1.2496715491803843

>  <r_epik_State_Penalty>  (1) 
1.2391972074073692

>  <r_glide_ring_energy>  (1) 
0

>  <r_i_docking_score>  (1) 
-3.4420605098083836

>  <r_i_glide_ecoul>  (1) 
-14.47434747501352

>  <r_i_glide_eff_state_penalty>  (1) 
1.2391972074073692

>  <r_i_glide_einternal>  (1) 
21.183980772623464

>  <r_i_glide_emodel>  (1) 
-33.112787887283659

>  <r_i_glide_emodel_strain>  (1) 
6.3657348548622252

>  <r_i_glide_energy>  (1) 
-40.014713938723403

>  <r_i_glide_erotb>  (1) 
0.82803537691766171

>  <r_i_glide_esite>  (1) 
-0.099440057951647454

>  <r_i_glide_evdw>  (1) 
-25.54036646370988

>  <r_i_glide_gscore>  (1) 
-4.681257717215753

>  <r_i_glide_gscore_strain>  (1) 
0.59143371371555631

>  <r_i_glide_hbond>  (1) 
-0.62427289821830922

>  <r_i_glide_ligand_efficiency>  (1) 
-0.10123707381789364

>  <r_i_glide_ligand_efficiency_ln>  (1) 
-0.76044771314372328

>  <r_i_glide_ligand_efficiency_sa>  (1) 
-0.32796881906724801

>  <r_i_glide_lipo>  (1) 
-1.1475559039566667

>  <r_i_glide_metal>  (1) 
-0

>  <r_i_glide_rewards>  (1) 
-0.78128750328482499

>  <r_lp_Energy>  (1) 
27.690203

>  <s_epik_Chemistry_Notes>  (1) 
This compound has an imine and may undergo hydrolysis. This compound contains an acetal/aminal-like group ( X-CH(R)-Y where X, Y are N, S, or O) that may be acid/base labile, releasing an aldehyde.

>  <s_epik_cmdline>  (1) 
J2VwaWtfcHl0aG9uJywgJy1waHQnLCAnMS4wJywgJy1waCcsICc3LjQnLCAnLXRuJywgJzgnLCAnLW1hJywgJzUwMCcsICctaW1hZScsICc8aW5maWxlLm1hZT4nLCAnLW9tYWUnLCAnPG91dGZpbGUubWFlPic=

>  <s_epik_input>  (1) 
W1NIXVMoPU8pKD1PKVtDQEBdMShbQ0gyXVtDSDNdKVtDQEBdKFtDSDNdKShbQ0BASF0xW09IXSlPW0NASF0oW0NAQEhdMltDSDNdKVtOSF1bQ0BASF0oRilbQ0BIXTJbQ0gyXS9bQ0hdPVtDSF1cQyhbQ0gyXVtOSDJdKT1OL0MoPU4vW0hdKS9bQ0gyXVtDSDJdW0NIMl1bTkhdW0NIMl1bT0hd

>  <s_glide_docking_method>  (1) 
confgen

>  <s_i_glide_gridfile>  (1) 
gpcr_drd2_6luq_protein_autoprepared_prepared

>  <s_lp_Force_Field>  (1) 
S-OPLS

>  <s_lp_Variant>  (1) 
DiffSBDD_10_num_sample_50-17

>  <s_m_source_file>  (1) 
generated__ligand_DiffSBDD_2026-05-06_prepared.sdf

>  <GenAI_Model>  (1) 
DiffSBDD

>  <Protein>  (1) 
generic_title2

$$$$
DiffSBDD_46_num_sample_50
     RDKit          3D

  0  0  0  0  0  0  0  0  0  0999 V3000
M  V30 BEGIN CTAB
M  V30 COUNTS 66 68 0 0 1
M  V30 BEGIN ATOM
M  V30 1 O 10.376133 5.985427 -19.555425 0
M  V30 2 C 7.410013 0.102399 -16.576919 0
M  V30 3 C 9.655797 5.599121 -18.708967 0
M  V30 4 C 7.495012 0.382112 -15.069788 0
M  V30 5 O 6.834926 0.438503 -19.648186 0
M  V30 6 O 7.055091 3.504908 -17.782513 0
M  V30 7 O 8.902909 4.941908 -8.291672 0
M  V30 8 O 8.609974 5.347932 -14.013333 0
M  V30 9 C 6.930584 5.667995 -15.692986 0
M  V30 10 N 5.231855 -0.418165 -17.580677 0
M  V30 11 C 9.034841 5.573792 -9.338841 0
M  V30 12 O 8.294827 -0.562244 -17.115072 0
M  V30 13 O 10.571326 7.004234 -8.278016 0
M  V30 14 C 10.732774 8.324969 -6.285757 0
M  V30 15 C 6.236913 -0.074847 -14.314748 0
M  V30 16 F 8.748724 2.124068 -18.216184 0
M  V30 17 N 9.834838 6.665740 -9.425553 0
M  V30 18 C 6.491015 1.406436 -18.666175 0 CFG=2
M  V30 19 C 8.350283 5.240185 -10.602370 0
M  V30 20 C 8.199619 5.369307 -15.333084 0
M  V30 21 C 7.834840 1.852302 -14.793973 0
M  V30 22 C 7.697165 5.714811 -12.980425 0
M  V30 23 C 7.377885 4.867935 -18.045307 0 CFG=1
M  V30 24 C 7.530375 2.552315 -18.627135 0 CFG=1
M  V30 25 C 9.223871 7.332459 -11.715406 0
M  V30 26 C 5.761464 -0.445540 -19.988734 0
M  V30 27 C 9.314070 5.043246 -16.315550 0
M  V30 28 C 9.849967 7.927780 -7.471124 0
M  V30 29 C 10.234242 7.431887 -10.591523 0
M  V30 30 C 6.192755 0.656943 -17.342132 0 CFG=2
M  V30 31 C 8.432940 6.041425 -11.694577 0
M  V30 32 C 6.466350 5.711151 -17.135018 0
M  V30 33 O 4.304336 -2.010200 -18.878954 0
M  V30 34 C 8.847265 5.176502 -17.762833 0
M  V30 35 C 5.034629 -1.031013 -18.758242 0
M  V30 36 H 8.325651 -0.225712 -14.708946 0
M  V30 37 H 6.187622 5.896571 -14.947373 0
M  V30 38 H 4.758239 -0.805146 -16.777399 0
M  V30 39 H 10.234838 9.058571 -5.652831 0
M  V30 40 H 10.969877 7.456094 -5.671212 0
M  V30 41 H 11.671044 8.761594 -6.628504 0
M  V30 42 H 5.877166 -1.030698 -14.691668 0
M  V30 43 H 6.445707 -0.200607 -13.252064 0
M  V30 44 H 5.420150 0.640667 -14.406493 0
M  V30 45 H 5.559709 1.874105 -18.995474 0
M  V30 46 H 7.749900 4.344054 -10.647662 0
M  V30 47 H 8.634836 2.184485 -15.452742 0
M  V30 48 H 6.980182 2.509207 -14.958945 0
M  V30 49 H 8.169692 1.992135 -13.765715 0
M  V30 50 H 6.981433 4.906746 -12.821735 0
M  V30 51 H 7.140000 6.619182 -13.227945 0
M  V30 52 H 7.128710 5.096647 -19.083985 0
M  V30 53 H 7.625669 2.946252 -19.639082 0
M  V30 54 H 9.729016 7.445127 -12.674482 0
M  V30 55 H 8.507537 8.151677 -11.637734 0
M  V30 56 H 5.034839 0.093974 -20.596803 0
M  V30 57 H 6.150712 -1.257255 -20.603539 0
M  V30 58 H 10.169804 5.692099 -16.121595 0
M  V30 59 H 9.648428 4.021770 -16.152353 0
M  V30 60 H 9.579461 8.813094 -8.048552 0
M  V30 61 H 8.921348 7.480072 -7.111070 0
M  V30 62 H 11.189993 7.031835 -10.929955 0
M  V30 63 H 10.408230 8.474698 -10.325397 0
M  V30 64 H 5.690286 1.369301 -16.691668 0
M  V30 65 H 5.434884 5.369304 -17.207881 0
M  V30 66 H 6.471558 6.753461 -17.456239 0
M  V30 END ATOM
M  V30 BEGIN BOND
M  V30 1 2 3 1
M  V30 2 1 4 2
M  V30 3 2 11 7
M  V30 4 2 12 2
M  V30 5 1 15 4
M  V30 6 1 17 11
M  V30 7 1 17 13
M  V30 8 1 18 5
M  V30 9 1 19 11
M  V30 10 1 20 8
M  V30 11 2 20 9
M  V30 12 1 21 4
M  V30 13 1 22 8
M  V30 14 1 23 6
M  V30 15 1 24 6
M  V30 16 1 24 16
M  V30 17 1 24 18
M  V30 18 1 26 5
M  V30 19 1 27 20
M  V30 20 1 28 13
M  V30 21 1 28 14
M  V30 22 1 29 17
M  V30 23 1 29 25
M  V30 24 1 30 2
M  V30 25 1 30 10
M  V30 26 1 30 18
M  V30 27 2 31 19
M  V30 28 1 31 22
M  V30 29 1 31 25
M  V30 30 1 32 9
M  V30 31 1 32 23
M  V30 32 2 34 3
M  V30 33 1 34 23
M  V30 34 1 34 27
M  V30 35 1 35 10
M  V30 36 1 35 26
M  V30 37 2 35 33
M  V30 38 1 36 4
M  V30 39 1 37 9
M  V30 40 1 38 10
M  V30 41 1 39 14
M  V30 42 1 40 14
M  V30 43 1 41 14
M  V30 44 1 42 15
M  V30 45 1 43 15
M  V30 46 1 44 15
M  V30 47 1 18 45 CFG=3
M  V30 48 1 46 19
M  V30 49 1 47 21
M  V30 50 1 48 21
M  V30 51 1 49 21
M  V30 52 1 50 22
M  V30 53 1 51 22
M  V30 54 1 23 52 CFG=3
M  V30 55 1 24 53 CFG=3
M  V30 56 1 54 25
M  V30 57 1 55 25
M  V30 58 1 56 26
M  V30 59 1 57 26
M  V30 60 1 58 27
M  V30 61 1 59 27
M  V30 62 1 60 28
M  V30 63 1 61 28
M  V30 64 1 62 29
M  V30 65 1 63 29
M  V30 66 1 30 64 CFG=1
M  V30 67 1 65 32
M  V30 68 1 66 32
M  V30 END BOND
M  V30 END CTAB
M  END
>  <i_epik_Tot_Q>  (1) 
0

>  <i_epik_Tot_abs_Q>  (1) 
0

>  <i_i_glide_confnum>  (1) 
82

>  <i_i_glide_lignum>  (1) 
113

>  <i_i_glide_posenum>  (1) 
47

>  <i_i_glide_rotatable_bonds>  (1) 
10

>  <i_lp_mmshare_version>  (1) 
72125

>  <i_m_source_file_index>  (1) 
47

>  <i_f3d_flags>  (1) 
0

>  <num_sample>  (1) 
50

>  <b_lp_Chiralities_Consistent>  (1) 
1

>  <r_epik_Charging_Adjusted_Penalty>  (1) 
0

>  <r_epik_Ionization_Penalty>  (1) 
2.9296726468019972e-06

>  <r_epik_Ionization_Penalty_Charging>  (1) 
0

>  <r_epik_Ionization_Penalty_Neutral>  (1) 
2.9296726468019972e-06

>  <r_epik_State_Penalty>  (1) 
-0

>  <r_glide_ring_energy>  (1) 
0

>  <r_i_docking_score>  (1) 
-3.4409132165928553

>  <r_i_glide_ecoul>  (1) 
0.59860738468263985

>  <r_i_glide_eff_state_penalty>  (1) 
-0

>  <r_i_glide_einternal>  (1) 
8.1467763825420469

>  <r_i_glide_emodel>  (1) 
-47.065070869144336

>  <r_i_glide_emodel_strain>  (1) 
0

>  <r_i_glide_energy>  (1) 
-42.160759392819614

>  <r_i_glide_erotb>  (1) 
0.66665793866395417

>  <r_i_glide_esite>  (1) 
-0.15501428980325541

>  <r_i_glide_evdw>  (1) 
-42.759366777502251

>  <r_i_glide_gscore>  (1) 
-3.4409132165928553

>  <r_i_glide_gscore_strain>  (1) 
0

>  <r_i_glide_hbond>  (1) 
0

>  <r_i_glide_ligand_efficiency>  (1) 
-0.098311806188367296

>  <r_i_glide_ligand_efficiency_ln>  (1) 
-0.7553568179964314

>  <r_i_glide_ligand_efficiency_sa>  (1) 
-0.32158443711655843

>  <r_i_glide_lipo>  (1) 
-1.3894068252387211

>  <r_i_glide_metal>  (1) 
-0

>  <r_i_glide_rewards>  (1) 
-0.51497280904211606

>  <r_lp_Energy>  (1) 
33.611015999999999

>  <r_lp_tautomer_probability>  (1) 
1

>  <s_epik_Chemistry_Notes>  (1) 
This compound has a N-S or N-O group and may undergo hydrolysis at high or low pH.

>  <s_epik_cmdline>  (1) 
J2VwaWtfcHl0aG9uJywgJy1waHQnLCAnMS4wJywgJy1waCcsICc3LjQnLCAnLXRuJywgJzgnLCAnLW1hJywgJzUwMCcsICctaW1hZScsICc8aW5maWxlLm1hZT4nLCAnLW9tYWUnLCAnPG91dGZpbGUubWFlPic=

>  <s_epik_input>  (1) 
W0NIM11bQ0hdKFtDSDNdKUMoPU8pW0NAQEhdMVtOSF1DKD1PKVtDSDJdT1tDQEBIXTFbQ0BIXShGKU9bQ0BIXShDKD1DPU8pW0NIMl0yKVtDSDJdW0NIXT1DMk9bQ0gyXUMoPVtDSF0zKVtDSDJdW0NIMl1OKEMzPU8pT1tDSDJdW0NIM10=

>  <s_glide_docking_method>  (1) 
confgen

>  <s_i_glide_gridfile>  (1) 
gpcr_drd2_6luq_protein_autoprepared_prepared

>  <s_lp_Force_Field>  (1) 
S-OPLS

>  <s_lp_Variant>  (1) 
DiffSBDD_46_num_sample_50-1

>  <s_m_source_file>  (1) 
generated__ligand_DiffSBDD_2026-05-06_prepared.sdf

>  <GenAI_Model>  (1) 
DiffSBDD

>  <Protein>  (1) 
generic_title2

$$$$
DiffSBDD_10_num_sample_50
     RDKit          3D

  0  0  0  0  0  0  0  0  0  0999 V3000
M  V30 BEGIN CTAB
M  V30 COUNTS 73 74 0 0 1
M  V30 BEGIN ATOM
M  V30 1 C 10.864191 7.479499 -9.426414 0 CFG=2
M  V30 2 C 6.937385 -0.018590 -17.354767 0
M  V30 3 C 8.407962 4.116974 -16.138926 0
M  V30 4 C 6.666564 4.606129 -12.718521 0 CFG=1
M  V30 5 C 9.617108 6.561723 -9.485906 0 CFG=2
M  V30 6 N 8.117681 -0.230675 -15.263048 0
M  V30 7 N 7.703154 6.650214 -12.275217 0
M  V30 8 C 8.102639 5.779726 -11.210810 0 CFG=1
M  V30 9 S 11.664746 7.658410 -7.695480 0
M  V30 10 C 6.927580 -1.503457 -17.698654 0
M  V30 11 S 10.257842 8.611063 -6.431814 0 CHG=-1
M  V30 12 C 12.972757 8.575993 -10.604684 0
M  V30 13 O 5.030210 -2.211406 -20.546311 0
M  V30 14 O 11.830467 6.331648 -7.091252 0
M  V30 15 C 9.484239 8.070160 -9.465694 0 CFG=2
M  V30 16 C 9.068573 2.308811 -17.834966 0
M  V30 17 C 6.423972 6.133588 -12.709741 0 CFG=1
M  V30 18 N 4.537664 -1.375937 -18.512610 0 CHG=1
M  V30 19 N 7.489934 1.866902 -15.997668 0
M  V30 20 C 5.524460 -2.139709 -17.713126 0
M  V30 21 C 9.105451 3.689325 -12.250561 0
M  V30 22 C 11.806391 7.586970 -10.652267 0
M  V30 23 C 9.164131 5.661968 -8.343371 0
M  V30 24 C 6.808473 3.948369 -14.113915 0
M  V30 25 C 8.249641 2.701825 -16.599893 0
M  V30 26 O 9.034826 8.569365 -10.691658 0
M  V30 27 C 7.495553 0.501666 -16.246584 0
M  V30 28 O 12.815242 8.569183 -7.761943 0
M  V30 29 F 6.043207 6.674345 -13.866485 0
M  V30 30 N 10.097003 1.308060 -17.502407 0 CHG=1
M  V30 31 C 4.954576 -0.971666 -19.874744 0
M  V30 32 C 7.827231 4.359583 -11.709821 0 CFG=2
M  V30 33 O 9.432767 5.945793 -10.781065 0
M  V30 34 C 7.787229 4.660942 -15.058615 0
M  V30 35 H 6.463984 0.642543 -18.064854 0
M  V30 36 H 9.076344 4.720970 -16.733206 0
M  V30 37 H 5.774425 4.154669 -12.281290 0
M  V30 38 H 8.024272 -1.245070 -15.238310 0
M  V30 39 H 7.655148 7.613024 -11.978966 0
M  V30 40 H 7.437893 5.977677 -10.370114 0
M  V30 41 H 7.574027 -2.073544 -17.037618 0
M  V30 42 H 7.393691 -1.614472 -18.677439 0
M  V30 43 H 13.436325 8.679437 -11.585054 0
M  V30 44 H 12.632164 9.561336 -10.290927 0
M  V30 45 H 13.768658 8.240503 -9.940471 0
M  V30 46 H 4.769309 -2.075930 -21.447712 0
M  V30 47 H 9.028545 8.574809 -8.629927 0
M  V30 48 H 8.409179 1.921642 -18.611811 0
M  V30 49 H 9.562232 3.181253 -18.266801 0
M  V30 50 H 5.660848 6.398916 -11.974923 0
M  V30 51 H 4.319825 -0.534585 -17.997602 0
M  V30 52 H 5.141509 -2.231855 -16.695433 0
M  V30 53 H 5.591836 -3.155399 -18.105122 0
M  V30 54 H 9.576027 4.276868 -13.037696 0
M  V30 55 H 9.833646 3.581664 -11.451361 0
M  V30 56 H 8.908754 2.688331 -12.632246 0
M  V30 57 H 12.234430 6.638679 -10.912976 0
M  V30 58 H 11.195601 7.769425 -11.530858 0
M  V30 59 H 9.207356 6.180364 -7.387670 0
M  V30 60 H 8.133016 5.341122 -8.472991 0
M  V30 61 H 9.800105 4.778710 -8.295922 0
M  V30 62 H 5.832983 3.968186 -14.597817 0
M  V30 63 H 7.049963 2.909271 -13.919679 0
M  V30 64 H 8.091005 8.568759 -10.546417 0
M  V30 65 H 10.572000 0.996539 -18.337670 0
M  V30 66 H 10.764628 1.703213 -16.853587 0
M  V30 67 H 5.898041 -0.432888 -19.927399 0
M  V30 68 H 4.190951 -0.325598 -20.291342 0
M  V30 69 H 7.463960 3.785501 -10.860133 0
M  V30 70 H 7.988593 5.696637 -14.828304 0
M  V30 71 H 8.356918 0.201215 -14.380319 0
M  V30 72 H 3.692660 -1.926173 -18.586175 0
M  V30 73 H 9.633666 0.524222 -17.060599 0
M  V30 END ATOM
M  V30 BEGIN BOND
M  V30 1 1 5 1
M  V30 2 1 8 7
M  V30 3 1 9 1
M  V30 4 1 10 2
M  V30 5 1 11 9
M  V30 6 2 14 9
M  V30 7 1 15 1
M  V30 8 1 15 5
M  V30 9 1 17 4
M  V30 10 1 17 7
M  V30 11 1 20 10
M  V30 12 1 20 18
M  V30 13 1 1 22 CFG=3
M  V30 14 1 22 12
M  V30 15 1 23 5
M  V30 16 1 24 4
M  V30 17 1 25 3
M  V30 18 1 25 16
M  V30 19 2 25 19
M  V30 20 1 26 15
M  V30 21 2 27 2
M  V30 22 1 27 6
M  V30 23 1 27 19
M  V30 24 2 28 9
M  V30 25 1 29 17
M  V30 26 1 30 16
M  V30 27 1 31 13
M  V30 28 1 31 18
M  V30 29 1 32 4
M  V30 30 1 32 8
M  V30 31 1 32 21
M  V30 32 1 5 33 CFG=3
M  V30 33 1 33 8
M  V30 34 2 34 3
M  V30 35 1 34 24
M  V30 36 1 35 2
M  V30 37 1 36 3
M  V30 38 1 4 37 CFG=1
M  V30 39 1 38 6
M  V30 40 1 39 7
M  V30 41 1 8 40 CFG=1
M  V30 42 1 41 10
M  V30 43 1 42 10
M  V30 44 1 43 12
M  V30 45 1 44 12
M  V30 46 1 45 12
M  V30 47 1 46 13
M  V30 48 1 15 47 CFG=1
M  V30 49 1 48 16
M  V30 50 1 49 16
M  V30 51 1 17 50 CFG=1
M  V30 52 1 51 18
M  V30 53 1 52 20
M  V30 54 1 53 20
M  V30 55 1 54 21
M  V30 56 1 55 21
M  V30 57 1 56 21
M  V30 58 1 57 22
M  V30 59 1 58 22
M  V30 60 1 59 23
M  V30 61 1 60 23
M  V30 62 1 61 23
M  V30 63 1 62 24
M  V30 64 1 63 24
M  V30 65 1 64 26
M  V30 66 1 65 30
M  V30 67 1 66 30
M  V30 68 1 67 31
M  V30 69 1 68 31
M  V30 70 1 32 69 CFG=1
M  V30 71 1 70 34
M  V30 72 1 71 6
M  V30 73 1 72 18
M  V30 74 1 73 30
M  V30 END BOND
M  V30 END CTAB
M  END
>  <i_epik_Tot_Q>  (1) 
1

>  <i_epik_Tot_abs_Q>  (1) 
3

>  <i_i_glide_confnum>  (1) 
1576

>  <i_i_glide_lignum>  (1) 
31

>  <i_i_glide_posenum>  (1) 
350

>  <i_i_glide_rotatable_bonds>  (1) 
15

>  <i_lp_mmshare_version>  (1) 
72125

>  <i_m_source_file_index>  (1) 
11

>  <i_f3d_flags>  (1) 
0

>  <num_sample>  (1) 
50

>  <b_lp_Chiralities_Consistent>  (1) 
1

>  <r_epik_Charging_Adjusted_Penalty>  (1) 
2.168687317063887

>  <r_epik_Ionization_Penalty>  (1) 
1.1047352072338965

>  <r_epik_Ionization_Penalty_Charging>  (1) 
1.0999234457570315

>  <r_epik_Ionization_Penalty_Neutral>  (1) 
0.0048117614768649203

>  <r_epik_State_Penalty>  (1) 
1.0687638713068555

>  <r_glide_ring_energy>  (1) 
0

>  <r_i_docking_score>  (1) 
-3.4305963865629048

>  <r_i_glide_ecoul>  (1) 
-15.709314543997481

>  <r_i_glide_eff_state_penalty>  (1) 
1.0687638713068555

>  <r_i_glide_einternal>  (1) 
36.388453186927038

>  <r_i_glide_emodel>  (1) 
-31.171829025198576

>  <r_i_glide_emodel_strain>  (1) 
6.7837390890752403

>  <r_i_glide_energy>  (1) 
-39.705130523523479

>  <r_i_glide_erotb>  (1) 
0.82219216958862984

>  <r_i_glide_esite>  (1) 
-0.11218682672611835

>  <r_i_glide_evdw>  (1) 
-23.995815979525997

>  <r_i_glide_gscore>  (1) 
-4.4993602578697605

>  <r_i_glide_gscore_strain>  (1) 
0.69593477226881006

>  <r_i_glide_hbond>  (1) 
-0.30248981092853472

>  <r_i_glide_ligand_efficiency>  (1) 
-0.10089989372243838

>  <r_i_glide_ligand_efficiency_ln>  (1) 
-0.75791496676103187

>  <r_i_glide_ligand_efficiency_sa>  (1) 
-0.32687648645085526

>  <r_i_glide_lipo>  (1) 
-0.98258591769625725

>  <r_i_glide_metal>  (1) 
-0

>  <r_i_glide_rewards>  (1) 
-1.0640366638003684

>  <r_lp_Energy>  (1) 
32.715631999999999

>  <s_epik_Chemistry_Notes>  (1) 
This compound has an imine and may undergo hydrolysis. This compound contains an acetal/aminal-like group ( X-CH(R)-Y where X, Y are N, S, or O) that may be acid/base labile, releasing an aldehyde.

>  <s_epik_cmdline>  (1) 
J2VwaWtfcHl0aG9uJywgJy1waHQnLCAnMS4wJywgJy1waCcsICc3LjQnLCAnLXRuJywgJzgnLCAnLW1hJywgJzUwMCcsICctaW1hZScsICc8aW5maWxlLm1hZT4nLCAnLW9tYWUnLCAnPG91dGZpbGUubWFlPic=

>  <s_epik_input>  (1) 
W1NIXVMoPU8pKD1PKVtDQEBdMShbQ0gyXVtDSDNdKVtDQEBdKFtDSDNdKShbQ0BASF0xW09IXSlPW0NASF0oW0NAQEhdMltDSDNdKVtOSF1bQ0BASF0oRilbQ0BIXTJbQ0gyXS9bQ0hdPVtDSF1cQyhbQ0gyXVtOSDJdKT1OXEMoPU5cW0hdKVxbQ0gyXVtDSDJdW0NIMl1bTkhdW0NIMl1bT0hd

>  <s_glide_docking_method>  (1) 
confgen

>  <s_i_glide_gridfile>  (1) 
gpcr_drd2_6luq_protein_autoprepared_prepared

>  <s_lp_Force_Field>  (1) 
S-OPLS

>  <s_lp_Variant>  (1) 
DiffSBDD_10_num_sample_50-11

>  <s_m_source_file>  (1) 
generated__ligand_DiffSBDD_2026-05-06_prepared.sdf

>  <GenAI_Model>  (1) 
DiffSBDD

>  <Protein>  (1) 
generic_title2

$$$$
DiffSBDD_10_num_sample_50
     RDKit          3D

  0  0  0  0  0  0  0  0  0  0999 V3000
M  V30 BEGIN CTAB
M  V30 COUNTS 71 72 0 0 1
M  V30 BEGIN ATOM
M  V30 1 C 6.106564 5.622627 -19.670087 0 CFG=2
M  V30 2 C 10.816949 8.584654 -7.742203 0
M  V30 3 C 8.811118 7.293649 -11.343535 0
M  V30 4 C 7.006385 5.486205 -13.808605 0 CFG=1
M  V30 5 C 6.653385 4.729020 -18.527662 0 CFG=2
M  V30 6 N 12.769494 8.169302 -9.108973 0
M  V30 7 N 8.124746 5.158364 -15.888235 0
M  V30 8 C 6.735819 4.911054 -16.077853 0 CFG=1
M  V30 9 S 5.552850 4.742594 -21.243312 0
M  V30 10 C 11.545927 8.751911 -6.426746 0
M  V30 11 S 6.939006 5.565623 -22.613527 0 CHG=-1
M  V30 12 C 5.527708 8.005307 -20.486130 0
M  V30 13 O 12.286225 6.569273 -2.288319 0
M  V30 14 O 5.798368 3.295050 -21.194265 0
M  V30 15 C 7.595631 5.512214 -19.413694 0 CFG=2
M  V30 16 C 9.834859 5.957300 -9.373366 0
M  V30 17 C 8.266913 5.802514 -14.597579 0 CFG=2
M  V30 18 N 11.834840 7.660328 -4.223080 0
M  V30 19 N 10.666279 8.169299 -10.087200 0
M  V30 20 C 11.266405 7.521288 -5.553863 0
M  V30 21 C 5.486495 6.995174 -15.303472 0
M  V30 22 C 5.322815 6.920459 -19.418615 0
M  V30 23 C 6.742300 3.203712 -18.495537 0
M  V30 24 C 6.793687 6.436518 -12.613149 0
M  V30 25 C 9.834861 7.213708 -10.262485 0
M  V30 26 O 8.185115 6.569264 -18.691670 0
M  V30 27 C 11.411968 8.316746 -8.923561 0
M  V30 28 O 4.222295 5.236271 -21.627830 0
M  V30 29 F 9.376497 5.369370 -13.995256 0
M  V30 30 N 9.028631 6.112055 -8.181321 0
M  V30 31 C 11.640855 6.405444 -3.523971 0
M  V30 32 C 5.950820 5.566508 -14.920586 0 CFG=2
M  V30 33 O 6.243150 5.369308 -17.305413 0
M  V30 34 C 7.863097 6.348661 -11.537045 0
M  V30 35 H 9.740462 8.686893 -7.704456 0
M  V30 36 H 8.858509 8.171955 -11.969874 0
M  V30 37 H 7.061923 4.457594 -13.447192 0
M  V30 38 H 13.419887 8.409357 -8.376635 0
M  V30 39 H 8.530402 5.713642 -16.631162 0
M  V30 40 H 6.634834 3.832337 -15.987311 0
M  V30 41 H 11.166099 9.653220 -5.944456 0
M  V30 42 H 12.612761 8.910097 -6.581575 0
M  V30 43 H 5.003264 8.920176 -20.210074 0
M  V30 44 H 6.585272 8.248500 -20.599895 0
M  V30 45 H 5.152136 7.695982 -21.461064 0
M  V30 46 H 11.972014 5.894298 -1.703721 0
M  V30 47 H 8.254428 4.987808 -20.103883 0
M  V30 48 H 9.554245 5.065549 -9.930850 0
M  V30 49 H 10.843715 5.769337 -9.018217 0
M  V30 50 H 8.234842 6.882877 -14.729752 0
M  V30 51 H 12.822951 7.858739 -4.268810 0
M  V30 52 H 11.674839 6.634631 -6.042089 0
M  V30 53 H 10.189409 7.363915 -5.466855 0
M  V30 54 H 6.305888 7.614897 -15.667326 0
M  V30 55 H 4.732369 6.961797 -16.090354 0
M  V30 56 H 5.034848 7.513208 -14.458415 0
M  V30 57 H 4.264383 6.675307 -19.333585 0
M  V30 58 H 5.604589 7.351497 -18.459758 0
M  V30 59 H 7.250454 2.826557 -19.380589 0
M  V30 60 H 7.349969 2.852967 -17.663832 0
M  V30 61 H 5.751460 2.754456 -18.432833 0
M  V30 62 H 5.831432 6.233196 -12.142197 0
M  V30 63 H 6.754927 7.470949 -12.953693 0
M  V30 64 H 7.493397 6.961806 -18.178903 0
M  V30 65 H 8.136312 6.540009 -8.435671 0
M  V30 66 H 8.805539 5.210973 -7.787568 0
M  V30 67 H 12.090810 5.577197 -4.069462 0
M  V30 68 H 10.582408 6.182344 -3.379473 0
M  V30 69 H 5.080684 4.969361 -14.660273 0
M  V30 70 H 7.827810 5.476879 -10.905642 0
M  V30 71 H 13.157575 8.148730 -10.040053 0
M  V30 END ATOM
M  V30 BEGIN BOND
M  V30 1 1 5 1
M  V30 2 1 8 7
M  V30 3 1 9 1
M  V30 4 1 10 2
M  V30 5 1 11 9
M  V30 6 2 14 9
M  V30 7 1 15 1
M  V30 8 1 15 5
M  V30 9 1 17 4
M  V30 10 1 17 7
M  V30 11 1 20 10
M  V30 12 1 20 18
M  V30 13 1 1 22 CFG=1
M  V30 14 1 22 12
M  V30 15 1 23 5
M  V30 16 1 24 4
M  V30 17 1 25 3
M  V30 18 1 25 16
M  V30 19 2 25 19
M  V30 20 1 26 15
M  V30 21 2 27 2
M  V30 22 1 27 6
M  V30 23 1 27 19
M  V30 24 2 28 9
M  V30 25 1 29 17
M  V30 26 1 30 16
M  V30 27 1 31 13
M  V30 28 1 31 18
M  V30 29 1 32 4
M  V30 30 1 32 8
M  V30 31 1 32 21
M  V30 32 1 5 33 CFG=1
M  V30 33 1 33 8
M  V30 34 2 34 3
M  V30 35 1 34 24
M  V30 36 1 35 2
M  V30 37 1 36 3
M  V30 38 1 4 37 CFG=1
M  V30 39 1 38 6
M  V30 40 1 39 7
M  V30 41 1 8 40 CFG=3
M  V30 42 1 41 10
M  V30 43 1 42 10
M  V30 44 1 43 12
M  V30 45 1 44 12
M  V30 46 1 45 12
M  V30 47 1 46 13
M  V30 48 1 15 47 CFG=3
M  V30 49 1 48 16
M  V30 50 1 49 16
M  V30 51 1 17 50 CFG=3
M  V30 52 1 51 18
M  V30 53 1 52 20
M  V30 54 1 53 20
M  V30 55 1 54 21
M  V30 56 1 55 21
M  V30 57 1 56 21
M  V30 58 1 57 22
M  V30 59 1 58 22
M  V30 60 1 59 23
M  V30 61 1 60 23
M  V30 62 1 61 23
M  V30 63 1 62 24
M  V30 64 1 63 24
M  V30 65 1 64 26
M  V30 66 1 65 30
M  V30 67 1 66 30
M  V30 68 1 67 31
M  V30 69 1 68 31
M  V30 70 1 32 69 CFG=1
M  V30 71 1 70 34
M  V30 72 1 71 6
M  V30 END BOND
M  V30 END CTAB
M  END
>  <i_epik_Tot_Q>  (1) 
-1

>  <i_epik_Tot_abs_Q>  (1) 
1

>  <i_i_glide_confnum>  (1) 
4376

>  <i_i_glide_lignum>  (1) 
44

>  <i_i_glide_posenum>  (1) 
366

>  <i_i_glide_rotatable_bonds>  (1) 
15

>  <i_lp_mmshare_version>  (1) 
72125

>  <i_m_source_file_index>  (1) 
11

>  <i_f3d_flags>  (1) 
0

>  <num_sample>  (1) 
50

>  <b_lp_Chiralities_Consistent>  (1) 
1

>  <r_epik_Charging_Adjusted_Penalty>  (1) 
1.239197207418439

>  <r_epik_Ionization_Penalty>  (1) 
1.2496715491914541

>  <r_epik_Ionization_Penalty_Charging>  (1) 
1.1069707349969355e-11

>  <r_epik_Ionization_Penalty_Neutral>  (1) 
1.2496715491803843

>  <r_epik_State_Penalty>  (1) 
1.2391972074073692

>  <r_glide_ring_energy>  (1) 
1.0889701093151358

>  <r_i_docking_score>  (1) 
-3.4276215392700191

>  <r_i_glide_ecoul>  (1) 
-3.8463820693862503

>  <r_i_glide_eff_state_penalty>  (1) 
1.2391972074073692

>  <r_i_glide_einternal>  (1) 
1.9953400631158598

>  <r_i_glide_emodel>  (1) 
-48.702036164665287

>  <r_i_glide_emodel_strain>  (1) 
1.7344648817635431

>  <r_i_glide_energy>  (1) 
-41.001224493820324

>  <r_i_glide_erotb>  (1) 
0.82803537691766171

>  <r_i_glide_esite>  (1) 
-0.090024482206021647

>  <r_i_glide_evdw>  (1) 
-37.154842424434072

>  <r_i_glide_gscore>  (1) 
-4.6668187466773885

>  <r_i_glide_gscore_strain>  (1) 
0

>  <r_i_glide_hbond>  (1) 
-0.20410411704732531

>  <r_i_glide_ligand_efficiency>  (1) 
-0.10081239821382409

>  <r_i_glide_ligand_efficiency_ln>  (1) 
-0.75725773955239317

>  <r_i_glide_ligand_efficiency_sa>  (1) 
-0.32659303496858966

>  <r_i_glide_lipo>  (1) 
-1.9961986834506071

>  <r_i_glide_metal>  (1) 
-0

>  <r_i_glide_rewards>  (1) 
-0.76982740926145443

>  <r_lp_Energy>  (1) 
18.399373000000001

>  <s_epik_Chemistry_Notes>  (1) 
This compound has an imine and may undergo hydrolysis. This compound contains an acetal/aminal-like group ( X-CH(R)-Y where X, Y are N, S, or O) that may be acid/base labile, releasing an aldehyde.

>  <s_epik_cmdline>  (1) 
J2VwaWtfcHl0aG9uJywgJy1waHQnLCAnMS4wJywgJy1waCcsICc3LjQnLCAnLXRuJywgJzgnLCAnLW1hJywgJzUwMCcsICctaW1hZScsICc8aW5maWxlLm1hZT4nLCAnLW9tYWUnLCAnPG91dGZpbGUubWFlPic=

>  <s_epik_input>  (1) 
W1NIXVMoPU8pKD1PKVtDQEBdMShbQ0gyXVtDSDNdKVtDQEBdKFtDSDNdKShbQ0BASF0xW09IXSlPW0NASF0oW0NAQEhdMltDSDNdKVtOSF1bQ0BASF0oRilbQ0BIXTJbQ0gyXVxbQ0hdPVtDSF1cQyhbQ0gyXVtOSDJdKT1OXEMoPU5cW0hdKVxbQ0gyXVtDSDJdW0NIMl1bTkhdW0NIMl1bT0hd

>  <s_glide_docking_method>  (1) 
confgen

>  <s_i_glide_gridfile>  (1) 
gpcr_drd2_6luq_protein_autoprepared_prepared

>  <s_lp_Force_Field>  (1) 
S-OPLS

>  <s_lp_Variant>  (1) 
DiffSBDD_10_num_sample_50-24

>  <s_m_source_file>  (1) 
generated__ligand_DiffSBDD_2026-05-06_prepared.sdf

>  <GenAI_Model>  (1) 
DiffSBDD

>  <Protein>  (1) 
generic_title2

$$$$
DiffSBDD_46_num_sample_50
     RDKit          3D

  0  0  0  0  0  0  0  0  0  0999 V3000
M  V30 BEGIN CTAB
M  V30 COUNTS 66 68 0 0 1
M  V30 BEGIN ATOM
M  V30 1 O 10.694264 6.166650 -19.256705 0
M  V30 2 C 7.087713 0.431570 -16.822997 0
M  V30 3 C 9.899978 5.726404 -18.508406 0
M  V30 4 C 6.635131 0.803440 -15.399978 0
M  V30 5 O 7.539784 0.611032 -19.946939 0
M  V30 6 O 7.209792 3.619707 -18.003000 0
M  V30 7 O 8.909309 4.969257 -8.296063 0
M  V30 8 O 8.592187 5.362920 -13.959040 0
M  V30 9 C 6.998654 5.733347 -15.710239 0
M  V30 10 N 5.388757 -0.248839 -18.461058 0
M  V30 11 C 9.035040 5.619246 -9.333297 0
M  V30 12 O 8.111769 -0.228441 -17.001703 0
M  V30 13 O 10.571516 7.039342 -8.255622 0
M  V30 14 C 10.741333 8.361322 -6.265016 0
M  V30 15 C 7.738938 0.567157 -14.354681 0
M  V30 16 F 8.964569 2.265488 -18.207746 0
M  V30 17 N 9.834853 6.713158 -9.406671 0
M  V30 18 C 6.875344 1.597605 -19.168250 0 CFG=2
M  V30 19 C 8.343000 5.306609 -10.598918 0
M  V30 20 C 8.232766 5.369200 -15.292603 0
M  V30 21 C 5.349214 0.048377 -15.020851 0
M  V30 22 C 7.678111 5.819872 -12.965943 0
M  V30 23 C 7.563279 4.997145 -18.089842 0 CFG=1
M  V30 24 C 7.852656 2.742349 -18.819453 0 CFG=1
M  V30 25 C 9.202185 7.422374 -11.678260 0
M  V30 26 C 6.659362 -0.327002 -20.570788 0
M  V30 27 C 9.359180 4.945109 -16.217661 0
M  V30 28 C 9.845365 7.946559 -7.434566 0
M  V30 29 C 10.222041 7.503639 -10.560767 0
M  V30 30 C 6.177322 0.884530 -17.980662 0 CFG=2
M  V30 31 C 8.416374 6.128161 -11.676717 0
M  V30 32 C 6.587800 5.765558 -17.173228 0
M  V30 33 O 5.033497 -1.962629 -19.882827 0
M  V30 34 C 9.010204 5.241465 -17.670096 0
M  V30 35 C 5.619237 -0.921734 -19.599753 0
M  V30 36 H 6.417620 1.871313 -15.406923 0
M  V30 37 H 6.245524 6.029012 -14.998895 0
M  V30 38 H 4.703247 -0.637471 -17.830165 0
M  V30 39 H 10.234540 9.071955 -5.613397 0
M  V30 40 H 11.020624 7.494919 -5.664932 0
M  V30 41 H 11.656138 8.833035 -6.624693 0
M  V30 42 H 8.634803 1.134761 -14.600648 0
M  V30 43 H 7.416224 0.883207 -13.362531 0
M  V30 44 H 8.011525 -0.487290 -14.293859 0
M  V30 45 H 6.097460 2.043376 -19.792325 0
M  V30 46 H 7.745629 4.409005 -10.657783 0
M  V30 47 H 4.512777 0.313113 -15.667079 0
M  V30 48 H 5.491820 -1.030699 -15.091747 0
M  V30 49 H 5.047053 0.271837 -13.997188 0
M  V30 50 H 6.912755 5.060293 -12.798660 0
M  V30 51 H 7.180078 6.746331 -13.253692 0
M  V30 52 H 7.402329 5.327022 -19.118858 0
M  V30 53 H 8.151080 3.221780 -19.752433 0
M  V30 54 H 9.698694 7.557474 -12.638916 0
M  V30 55 H 8.481852 8.235892 -11.577678 0
M  V30 56 H 6.131998 0.160254 -21.392018 0
M  V30 57 H 7.251718 -1.132795 -21.004817 0
M  V30 58 H 10.290546 5.430504 -15.920080 0
M  V30 59 H 9.496806 3.870069 -16.107395 0
M  V30 60 H 9.545274 8.826675 -8.005205 0
M  V30 61 H 8.932851 7.477478 -7.060602 0
M  V30 62 H 11.178591 7.116730 -10.912842 0
M  V30 63 H 10.392805 8.542007 -10.276795 0
M  V30 64 H 5.460946 1.597403 -17.574038 0
M  V30 65 H 5.578671 5.369323 -17.285214 0
M  V30 66 H 6.548988 6.813320 -17.473512 0
M  V30 END ATOM
M  V30 BEGIN BOND
M  V30 1 2 3 1
M  V30 2 1 4 2
M  V30 3 2 11 7
M  V30 4 2 12 2
M  V30 5 1 15 4
M  V30 6 1 17 11
M  V30 7 1 17 13
M  V30 8 1 18 5
M  V30 9 1 19 11
M  V30 10 1 20 8
M  V30 11 2 20 9
M  V30 12 1 21 4
M  V30 13 1 22 8
M  V30 14 1 23 6
M  V30 15 1 24 6
M  V30 16 1 24 16
M  V30 17 1 24 18
M  V30 18 1 26 5
M  V30 19 1 27 20
M  V30 20 1 28 13
M  V30 21 1 28 14
M  V30 22 1 29 17
M  V30 23 1 29 25
M  V30 24 1 30 2
M  V30 25 1 30 10
M  V30 26 1 30 18
M  V30 27 2 31 19
M  V30 28 1 31 22
M  V30 29 1 31 25
M  V30 30 1 32 9
M  V30 31 1 32 23
M  V30 32 2 34 3
M  V30 33 1 34 23
M  V30 34 1 34 27
M  V30 35 1 35 10
M  V30 36 1 35 26
M  V30 37 2 35 33
M  V30 38 1 36 4
M  V30 39 1 37 9
M  V30 40 1 38 10
M  V30 41 1 39 14
M  V30 42 1 40 14
M  V30 43 1 41 14
M  V30 44 1 42 15
M  V30 45 1 43 15
M  V30 46 1 44 15
M  V30 47 1 18 45 CFG=3
M  V30 48 1 46 19
M  V30 49 1 47 21
M  V30 50 1 48 21
M  V30 51 1 49 21
M  V30 52 1 50 22
M  V30 53 1 51 22
M  V30 54 1 23 52 CFG=3
M  V30 55 1 24 53 CFG=3
M  V30 56 1 54 25
M  V30 57 1 55 25
M  V30 58 1 56 26
M  V30 59 1 57 26
M  V30 60 1 58 27
M  V30 61 1 59 27
M  V30 62 1 60 28
M  V30 63 1 61 28
M  V30 64 1 62 29
M  V30 65 1 63 29
M  V30 66 1 30 64 CFG=1
M  V30 67 1 65 32
M  V30 68 1 66 32
M  V30 END BOND
M  V30 END CTAB
M  END
>  <i_epik_Tot_Q>  (1) 
0

>  <i_epik_Tot_abs_Q>  (1) 
0

>  <i_i_glide_confnum>  (1) 
82

>  <i_i_glide_lignum>  (1) 
113

>  <i_i_glide_posenum>  (1) 
47

>  <i_i_glide_rotatable_bonds>  (1) 
10

>  <i_lp_mmshare_version>  (1) 
72125

>  <i_m_source_file_index>  (1) 
47

>  <i_f3d_flags>  (1) 
0

>  <num_sample>  (1) 
50

>  <b_lp_Chiralities_Consistent>  (1) 
1

>  <r_epik_Charging_Adjusted_Penalty>  (1) 
0

>  <r_epik_Ionization_Penalty>  (1) 
2.9296726468019972e-06

>  <r_epik_Ionization_Penalty_Charging>  (1) 
0

>  <r_epik_Ionization_Penalty_Neutral>  (1) 
2.9296726468019972e-06

>  <r_epik_State_Penalty>  (1) 
-0

>  <r_glide_ring_energy>  (1) 
0

>  <r_i_docking_score>  (1) 
-3.4158877301657826

>  <r_i_glide_ecoul>  (1) 
0.65317854020219501

>  <r_i_glide_eff_state_penalty>  (1) 
-0

>  <r_i_glide_einternal>  (1) 
8.5228024265966305

>  <r_i_glide_emodel>  (1) 
-45.848082171309365

>  <r_i_glide_emodel_strain>  (1) 
0.12511809868930612

>  <r_i_glide_energy>  (1) 
-41.322195906843774

>  <r_i_glide_erotb>  (1) 
0.66665793866395417

>  <r_i_glide_esite>  (1) 
-0.16007517912476832

>  <r_i_glide_evdw>  (1) 
-41.975374447045972

>  <r_i_glide_gscore>  (1) 
-3.4158877301657826

>  <r_i_glide_gscore_strain>  (1) 
0

>  <r_i_glide_hbond>  (1) 
0

>  <r_i_glide_ligand_efficiency>  (1) 
-0.097596792290450929

>  <r_i_glide_ligand_efficiency_ln>  (1) 
-0.74986316831494249

>  <r_i_glide_ligand_efficiency_sa>  (1) 
-0.31924557924376756

>  <r_i_glide_lipo>  (1) 
-1.5120848539543541

>  <r_i_glide_metal>  (1) 
-0

>  <r_i_glide_rewards>  (1) 
-0.40959369442864468

>  <r_lp_Energy>  (1) 
33.611015999999999

>  <r_lp_tautomer_probability>  (1) 
1

>  <s_epik_Chemistry_Notes>  (1) 
This compound has a N-S or N-O group and may undergo hydrolysis at high or low pH.

>  <s_epik_cmdline>  (1) 
J2VwaWtfcHl0aG9uJywgJy1waHQnLCAnMS4wJywgJy1waCcsICc3LjQnLCAnLXRuJywgJzgnLCAnLW1hJywgJzUwMCcsICctaW1hZScsICc8aW5maWxlLm1hZT4nLCAnLW9tYWUnLCAnPG91dGZpbGUubWFlPic=

>  <s_epik_input>  (1) 
W0NIM11bQ0hdKFtDSDNdKUMoPU8pW0NAQEhdMVtOSF1DKD1PKVtDSDJdT1tDQEBIXTFbQ0BIXShGKU9bQ0BIXShDKD1DPU8pW0NIMl0yKVtDSDJdW0NIXT1DMk9bQ0gyXUMoPVtDSF0zKVtDSDJdW0NIMl1OKEMzPU8pT1tDSDJdW0NIM10=

>  <s_glide_docking_method>  (1) 
confgen

>  <s_i_glide_gridfile>  (1) 
gpcr_drd2_6luq_protein_autoprepared_prepared

>  <s_lp_Force_Field>  (1) 
S-OPLS

>  <s_lp_Variant>  (1) 
DiffSBDD_46_num_sample_50-1

>  <s_m_source_file>  (1) 
generated__ligand_DiffSBDD_2026-05-06_prepared.sdf

>  <GenAI_Model>  (1) 
DiffSBDD

>  <Protein>  (1) 
generic_title2

$$$$
DiffSBDD_10_num_sample_50
     RDKit          3D

  0  0  0  0  0  0  0  0  0  0999 V3000
M  V30 BEGIN CTAB
M  V30 COUNTS 73 74 0 0 1
M  V30 BEGIN ATOM
M  V30 1 C 6.117894 -1.764339 -20.338209 0 CFG=2
M  V30 2 C 8.057086 4.357222 -11.857259 0
M  V30 3 C 7.291325 3.427228 -14.901993 0
M  V30 4 C 8.803890 2.140445 -18.191282 0 CFG=1
M  V30 5 C 7.492156 -1.244308 -20.802621 0 CFG=2
M  V30 6 N 5.650444 4.570181 -11.892039 0
M  V30 7 N 8.165914 1.789670 -20.472133 0
M  V30 8 C 8.856220 0.616323 -20.052651 0 CFG=1
M  V30 9 S 5.677111 -3.520876 -20.830364 0
M  V30 10 C 8.342653 5.719068 -11.247316 0
M  V30 11 S 7.188065 -4.598681 -19.793987 0 CHG=-1
M  V30 12 C 5.782336 -2.011924 -17.794778 0
M  V30 13 O 10.891539 8.553629 -9.119939 0
M  V30 14 O 4.385958 -3.878711 -20.223008 0
M  V30 15 C 6.235069 -0.867312 -21.560525 0 CFG=2
M  V30 16 C 6.861212 0.883406 -14.388260 0
M  V30 17 C 7.742922 2.473921 -19.264188 0 CFG=2
M  V30 18 N 9.434886 6.896603 -9.304813 0 CHG=1
M  V30 19 N 6.634883 2.626384 -12.694629 0
M  V30 20 C 9.003139 5.594655 -9.862962 0
M  V30 21 C 9.913187 -0.256483 -17.898162 0
M  V30 22 C 5.373100 -1.286430 -19.085397 0
M  V30 23 C 8.596329 -2.071157 -21.452317 0
M  V30 24 C 8.191273 1.915065 -16.790155 0
M  V30 25 C 6.922789 2.338461 -13.908013 0
M  V30 26 O 5.834867 0.482622 -21.413107 0
M  V30 27 C 6.822533 3.887180 -12.131905 0
M  V30 28 O 5.886352 -3.724536 -22.272643 0
M  V30 29 F 7.634628 3.782914 -19.487328 0
M  V30 30 N 6.233182 0.014998 -13.368004 0 CHG=1
M  V30 31 C 10.454581 7.621615 -10.081352 0
M  V30 32 C 9.618996 0.970914 -18.778167 0 CFG=2
M  V30 33 O 7.956347 -0.402942 -19.744954 0
M  V30 34 C 7.823273 3.241349 -16.141624 0
M  V30 35 H 8.919531 3.742538 -12.077715 0
M  V30 36 H 7.102174 4.434028 -14.560047 0
M  V30 37 H 9.500771 2.978080 -18.125124 0
M  V30 38 H 5.645247 5.466169 -11.422171 0
M  V30 39 H 7.340984 1.535425 -21.013511 0
M  V30 40 H 9.545943 0.287682 -20.827867 0
M  V30 41 H 7.436833 6.320519 -11.173328 0
M  V30 42 H 8.997372 6.238874 -11.946186 0
M  V30 43 H 5.278815 -1.584103 -16.927670 0
M  V30 44 H 5.525572 -3.070994 -17.827878 0
M  V30 45 H 6.856924 -1.936912 -17.628557 0
M  V30 46 H 11.618651 9.043636 -9.478055 0
M  V30 47 H 6.072828 -1.259670 -22.561741 0
M  V30 48 H 6.215948 0.808230 -15.260695 0
M  V30 49 H 7.851592 0.482090 -14.594250 0
M  V30 50 H 6.756897 2.102872 -18.982674 0
M  V30 51 H 9.780586 6.756588 -8.367561 0
M  V30 52 H 9.836390 4.898741 -9.900623 0
M  V30 53 H 8.282321 5.164423 -9.165773 0
M  V30 54 H 9.010056 -0.682574 -17.459783 0
M  V30 55 H 10.390747 -1.030815 -18.491871 0
M  V30 56 H 10.596389 -0.001384 -17.091716 0
M  V30 57 H 5.543324 -0.218988 -18.947881 0
M  V30 58 H 4.301319 -1.398340 -19.250362 0
M  V30 59 H 8.190848 -2.823475 -22.124633 0
M  V30 60 H 9.256186 -1.441499 -22.047093 0
M  V30 61 H 9.189011 -2.577338 -20.691658 0
M  V30 62 H 8.938586 1.442856 -16.156675 0
M  V30 63 H 7.343022 1.249627 -16.920700 0
M  V30 64 H 4.918620 0.518891 -21.675379 0
M  V30 65 H 6.050819 -0.921836 -13.715304 0
M  V30 66 H 6.831497 -0.030208 -12.556886 0
M  V30 67 H 10.031415 8.117425 -10.955745 0
M  V30 68 H 11.275755 6.971343 -10.381787 0
M  V30 69 H 10.576807 1.376489 -19.108347 0
M  V30 70 H 8.022577 4.117587 -16.741614 0
M  V30 71 H 4.749131 4.148069 -12.054903 0
M  V30 72 H 8.573456 7.452750 -9.246606 0
M  V30 73 H 5.353903 0.425054 -13.090805 0
M  V30 END ATOM
M  V30 BEGIN BOND
M  V30 1 1 5 1
M  V30 2 1 8 7
M  V30 3 1 9 1
M  V30 4 1 10 2
M  V30 5 1 11 9
M  V30 6 2 14 9
M  V30 7 1 15 1
M  V30 8 1 15 5
M  V30 9 1 17 4
M  V30 10 1 17 7
M  V30 11 1 20 10
M  V30 12 1 20 18
M  V30 13 1 1 22 CFG=1
M  V30 14 1 22 12
M  V30 15 1 23 5
M  V30 16 1 24 4
M  V30 17 1 25 3
M  V30 18 1 25 16
M  V30 19 2 25 19
M  V30 20 1 26 15
M  V30 21 2 27 2
M  V30 22 1 27 6
M  V30 23 1 27 19
M  V30 24 2 28 9
M  V30 25 1 29 17
M  V30 26 1 30 16
M  V30 27 1 31 13
M  V30 28 1 31 18
M  V30 29 1 32 4
M  V30 30 1 32 8
M  V30 31 1 32 21
M  V30 32 1 5 33 CFG=1
M  V30 33 1 33 8
M  V30 34 2 34 3
M  V30 35 1 34 24
M  V30 36 1 35 2
M  V30 37 1 36 3
M  V30 38 1 4 37 CFG=1
M  V30 39 1 38 6
M  V30 40 1 39 7
M  V30 41 1 8 40 CFG=3
M  V30 42 1 41 10
M  V30 43 1 42 10
M  V30 44 1 43 12
M  V30 45 1 44 12
M  V30 46 1 45 12
M  V30 47 1 46 13
M  V30 48 1 15 47 CFG=3
M  V30 49 1 48 16
M  V30 50 1 49 16
M  V30 51 1 17 50 CFG=1
M  V30 52 1 51 18
M  V30 53 1 52 20
M  V30 54 1 53 20
M  V30 55 1 54 21
M  V30 56 1 55 21
M  V30 57 1 56 21
M  V30 58 1 57 22
M  V30 59 1 58 22
M  V30 60 1 59 23
M  V30 61 1 60 23
M  V30 62 1 61 23
M  V30 63 1 62 24
M  V30 64 1 63 24
M  V30 65 1 64 26
M  V30 66 1 65 30
M  V30 67 1 66 30
M  V30 68 1 67 31
M  V30 69 1 68 31
M  V30 70 1 32 69 CFG=3
M  V30 71 1 70 34
M  V30 72 1 71 6
M  V30 73 1 72 18
M  V30 74 1 73 30
M  V30 END BOND
M  V30 END CTAB
M  END
>  <i_epik_Tot_Q>  (1) 
1

>  <i_epik_Tot_abs_Q>  (1) 
3

>  <i_i_glide_confnum>  (1) 
3715

>  <i_i_glide_lignum>  (1) 
33

>  <i_i_glide_posenum>  (1) 
329

>  <i_i_glide_rotatable_bonds>  (1) 
15

>  <i_lp_mmshare_version>  (1) 
72125

>  <i_m_source_file_index>  (1) 
11

>  <i_f3d_flags>  (1) 
0

>  <num_sample>  (1) 
50

>  <b_lp_Chiralities_Consistent>  (1) 
1

>  <r_epik_Charging_Adjusted_Penalty>  (1) 
2.168687317063887

>  <r_epik_Ionization_Penalty>  (1) 
1.1047352072338965

>  <r_epik_Ionization_Penalty_Charging>  (1) 
1.0999234457570315

>  <r_epik_Ionization_Penalty_Neutral>  (1) 
0.0048117614768649203

>  <r_epik_State_Penalty>  (1) 
1.0687638713068555

>  <r_glide_ring_energy>  (1) 
0

>  <r_i_docking_score>  (1) 
-3.4113807321305902

>  <r_i_glide_ecoul>  (1) 
-10.236517629276923

>  <r_i_glide_eff_state_penalty>  (1) 
1.0687638713068555

>  <r_i_glide_einternal>  (1) 
14.225319173694292

>  <r_i_glide_emodel>  (1) 
-45.184439037426301

>  <r_i_glide_emodel_strain>  (1) 
0.42714181450969591

>  <r_i_glide_energy>  (1) 
-37.021826068455312

>  <r_i_glide_erotb>  (1) 
0.82219216958862984

>  <r_i_glide_esite>  (1) 
-0.18563036063902244

>  <r_i_glide_evdw>  (1) 
-26.78530843917839

>  <r_i_glide_gscore>  (1) 
-4.4801446034374459

>  <r_i_glide_gscore_strain>  (1) 
0

>  <r_i_glide_hbond>  (1) 
-0.6968590265147705

>  <r_i_glide_ligand_efficiency>  (1) 
-0.10033472741560559

>  <r_i_glide_ligand_efficiency_ln>  (1) 
-0.75366968971608328

>  <r_i_glide_ligand_efficiency_sa>  (1) 
-0.32504556701355536

>  <r_i_glide_lipo>  (1) 
-1.0404644661260722

>  <r_i_glide_metal>  (1) 
-0

>  <r_i_glide_rewards>  (1) 
-0.50463985339575257

>  <r_lp_Energy>  (1) 
18.368548999999998

>  <s_epik_Chemistry_Notes>  (1) 
This compound has an imine and may undergo hydrolysis. This compound contains an acetal/aminal-like group ( X-CH(R)-Y where X, Y are N, S, or O) that may be acid/base labile, releasing an aldehyde.

>  <s_epik_cmdline>  (1) 
J2VwaWtfcHl0aG9uJywgJy1waHQnLCAnMS4wJywgJy1waCcsICc3LjQnLCAnLXRuJywgJzgnLCAnLW1hJywgJzUwMCcsICctaW1hZScsICc8aW5maWxlLm1hZT4nLCAnLW9tYWUnLCAnPG91dGZpbGUubWFlPic=

>  <s_epik_input>  (1) 
W1NIXVMoPU8pKD1PKVtDQEBdMShbQ0gyXVtDSDNdKVtDQEBdKFtDSDNdKShbQ0BASF0xW09IXSlPW0NASF0oW0NAQEhdMltDSDNdKVtOSF1bQ0BASF0oRilbQ0BIXTJbQ0gyXS9bQ0hdPVtDSF1cQyhbQ0gyXVtOSDJdKT1OL0MoPU4vW0hdKS9bQ0gyXVtDSDJdW0NIMl1bTkhdW0NIMl1bT0hd

>  <s_glide_docking_method>  (1) 
confgen

>  <s_i_glide_gridfile>  (1) 
gpcr_drd2_6luq_protein_autoprepared_prepared

>  <s_lp_Force_Field>  (1) 
S-OPLS

>  <s_lp_Variant>  (1) 
DiffSBDD_10_num_sample_50-13

>  <s_m_source_file>  (1) 
generated__ligand_DiffSBDD_2026-05-06_prepared.sdf

>  <GenAI_Model>  (1) 
DiffSBDD

>  <Protein>  (1) 
generic_title2

$$$$
DiffSBDD_10_num_sample_50
     RDKit          3D

  0  0  0  0  0  0  0  0  0  0999 V3000
M  V30 BEGIN CTAB
M  V30 COUNTS 71 72 0 0 1
M  V30 BEGIN ATOM
M  V30 1 C 10.950534 7.559016 -9.286595 0 CFG=2
M  V30 2 C 6.898736 0.051903 -18.148659 0
M  V30 3 C 7.622190 2.133982 -15.635673 0
M  V30 4 C 7.251601 4.141780 -12.691993 0 CFG=1
M  V30 5 C 9.787226 6.535347 -9.385659 0 CFG=2
M  V30 6 N 8.553419 -1.041216 -16.771349 0
M  V30 7 N 7.327304 5.367644 -10.654475 0
M  V30 8 C 8.675324 4.985292 -10.979195 0 CFG=1
M  V30 9 S 11.756797 7.772068 -7.583875 0
M  V30 10 C 7.601054 -0.181491 -19.470832 0
M  V30 11 S 10.463855 8.968057 -6.433617 0 CHG=-1
M  V30 12 C 11.834785 7.364196 -11.773674 0
M  V30 13 O 7.988404 2.535966 -22.724325 0
M  V30 14 O 11.832484 6.481703 -6.884727 0
M  V30 15 C 9.520237 8.036941 -9.384414 0 CFG=2
M  V30 16 C 5.960976 1.156666 -13.836634 0
M  V30 17 C 6.444303 5.091422 -11.773732 0 CFG=1
M  V30 18 N 8.756361 0.891439 -21.324006 0
M  V30 19 N 6.680869 -0.114193 -15.779607 0
M  V30 20 C 7.905727 1.145161 -20.171550 0
M  V30 21 C 9.157663 5.770902 -13.350176 0
M  V30 22 C 12.029845 7.849025 -10.328761 0
M  V30 23 C 9.346378 5.640106 -8.229650 0
M  V30 24 C 6.723985 4.075511 -14.148995 0
M  V30 25 C 6.742998 0.990945 -15.137722 0
M  V30 26 O 9.036352 8.501858 -10.638232 0
M  V30 27 C 7.373244 -0.356556 -16.955533 0
M  V30 28 O 12.981712 8.567579 -7.770137 0
M  V30 29 F 6.155415 6.250489 -12.366206 0
M  V30 30 N 4.897501 0.169301 -13.706715 0
M  V30 31 C 9.122031 2.128620 -21.990960 0
M  V30 32 C 8.709269 4.588244 -12.475032 0 CFG=2
M  V30 33 O 9.644937 5.965509 -10.707468 0
M  V30 34 C 7.620493 3.430870 -15.207066 0
M  V30 35 H 5.956878 0.582062 -18.192409 0
M  V30 36 H 8.312151 1.855794 -16.418260 0
M  V30 37 H 7.165024 3.140459 -12.277564 0
M  V30 38 H 9.027458 -1.444812 -17.564993 0
M  V30 39 H 7.243720 6.334241 -10.320204 0
M  V30 40 H 8.930569 4.111655 -10.380047 0
M  V30 41 H 6.958361 -0.799151 -20.098455 0
M  V30 42 H 8.521830 -0.747684 -19.328740 0
M  V30 43 H 12.645231 7.742670 -12.399561 0
M  V30 44 H 11.869482 6.285712 -11.891685 0
M  V30 45 H 10.897264 7.727500 -12.191481 0
M  V30 46 H 7.750285 3.409460 -22.454928 0
M  V30 47 H 9.016860 8.481389 -8.537756 0
M  V30 48 H 6.643597 1.045026 -12.995933 0
M  V30 49 H 5.429768 2.077600 -13.738639 0
M  V30 50 H 5.504157 4.653904 -11.431735 0
M  V30 51 H 9.595195 0.426841 -21.007037 0
M  V30 52 H 8.412392 1.825087 -19.484061 0
M  V30 53 H 6.973851 1.620725 -20.481809 0
M  V30 54 H 8.674131 6.709578 -13.064034 0
M  V30 55 H 10.230954 5.893030 -13.269764 0
M  V30 56 H 8.987332 5.629774 -14.410399 0
M  V30 57 H 12.184628 8.928368 -10.331561 0
M  V30 58 H 12.952816 7.418494 -9.942957 0
M  V30 59 H 9.411921 6.164725 -7.277949 0
M  V30 60 H 8.306212 5.330783 -8.320104 0
M  V30 61 H 9.970724 4.749101 -8.196671 0
M  V30 62 H 6.708165 5.110065 -14.484917 0
M  V30 63 H 5.666487 3.871303 -14.252003 0
M  V30 64 H 8.091673 8.379371 -10.554226 0
M  V30 65 H 4.255348 0.263467 -14.478531 0
M  V30 66 H 5.246111 -0.789003 -13.746761 0
M  V30 67 H 9.947198 1.943182 -22.678868 0
M  V30 68 H 9.435955 2.892203 -21.278129 0
M  V30 69 H 9.397372 3.754739 -12.621622 0
M  V30 70 H 8.324691 4.102136 -15.670169 0
M  V30 71 H 8.702252 -1.538144 -15.900271 0
M  V30 END ATOM
M  V30 BEGIN BOND
M  V30 1 1 5 1
M  V30 2 1 8 7
M  V30 3 1 9 1
M  V30 4 1 10 2
M  V30 5 1 11 9
M  V30 6 2 14 9
M  V30 7 1 15 1
M  V30 8 1 15 5
M  V30 9 1 17 4
M  V30 10 1 17 7
M  V30 11 1 20 10
M  V30 12 1 20 18
M  V30 13 1 1 22 CFG=3
M  V30 14 1 22 12
M  V30 15 1 23 5
M  V30 16 1 24 4
M  V30 17 1 25 3
M  V30 18 1 25 16
M  V30 19 2 25 19
M  V30 20 1 26 15
M  V30 21 2 27 2
M  V30 22 1 27 6
M  V30 23 1 27 19
M  V30 24 2 28 9
M  V30 25 1 29 17
M  V30 26 1 30 16
M  V30 27 1 31 13
M  V30 28 1 31 18
M  V30 29 1 32 4
M  V30 30 1 32 8
M  V30 31 1 32 21
M  V30 32 1 5 33 CFG=3
M  V30 33 1 33 8
M  V30 34 2 34 3
M  V30 35 1 34 24
M  V30 36 1 35 2
M  V30 37 1 36 3
M  V30 38 1 4 37 CFG=1
M  V30 39 1 38 6
M  V30 40 1 39 7
M  V30 41 1 8 40 CFG=1
M  V30 42 1 41 10
M  V30 43 1 42 10
M  V30 44 1 43 12
M  V30 45 1 44 12
M  V30 46 1 45 12
M  V30 47 1 46 13
M  V30 48 1 15 47 CFG=1
M  V30 49 1 48 16
M  V30 50 1 49 16
M  V30 51 1 17 50 CFG=1
M  V30 52 1 51 18
M  V30 53 1 52 20
M  V30 54 1 53 20
M  V30 55 1 54 21
M  V30 56 1 55 21
M  V30 57 1 56 21
M  V30 58 1 57 22
M  V30 59 1 58 22
M  V30 60 1 59 23
M  V30 61 1 60 23
M  V30 62 1 61 23
M  V30 63 1 62 24
M  V30 64 1 63 24
M  V30 65 1 64 26
M  V30 66 1 65 30
M  V30 67 1 66 30
M  V30 68 1 67 31
M  V30 69 1 68 31
M  V30 70 1 32 69 CFG=1
M  V30 71 1 70 34
M  V30 72 1 71 6
M  V30 END BOND
M  V30 END CTAB
M  END
>  <i_epik_Tot_Q>  (1) 
-1

>  <i_epik_Tot_abs_Q>  (1) 
1

>  <i_i_glide_confnum>  (1) 
2456

>  <i_i_glide_lignum>  (1) 
37

>  <i_i_glide_posenum>  (1) 
50

>  <i_i_glide_rotatable_bonds>  (1) 
15

>  <i_lp_mmshare_version>  (1) 
72125

>  <i_m_source_file_index>  (1) 
11

>  <i_f3d_flags>  (1) 
0

>  <num_sample>  (1) 
50

>  <b_lp_Chiralities_Consistent>  (1) 
1

>  <r_epik_Charging_Adjusted_Penalty>  (1) 
1.239197207418439

>  <r_epik_Ionization_Penalty>  (1) 
1.2496715491914541

>  <r_epik_Ionization_Penalty_Charging>  (1) 
1.1069707349969355e-11

>  <r_epik_Ionization_Penalty_Neutral>  (1) 
1.2496715491803843

>  <r_epik_State_Penalty>  (1) 
1.2391972074073692

>  <r_glide_ring_energy>  (1) 
0

>  <r_i_docking_score>  (1) 
-3.402445007138942

>  <r_i_glide_ecoul>  (1) 
-11.371897204989107

>  <r_i_glide_eff_state_penalty>  (1) 
1.2391972074073692

>  <r_i_glide_einternal>  (1) 
36.904516773651935

>  <r_i_glide_emodel>  (1) 
-24.216744033508611

>  <r_i_glide_emodel_strain>  (1) 
4.3616986463772065

>  <r_i_glide_energy>  (1) 
-37.059999849297967

>  <r_i_glide_erotb>  (1) 
0.82803537691766171

>  <r_i_glide_esite>  (1) 
-0.078940056805262615

>  <r_i_glide_evdw>  (1) 
-25.688102644308863

>  <r_i_glide_gscore>  (1) 
-4.6416422145463114

>  <r_i_glide_gscore_strain>  (1) 
0.090424661594301625

>  <r_i_glide_hbond>  (1) 
-0.53487825016584223

>  <r_i_glide_ligand_efficiency>  (1) 
-0.10007191197467477

>  <r_i_glide_ligand_efficiency_ln>  (1) 
-0.75169553742683182

>  <r_i_glide_ligand_efficiency_sa>  (1) 
-0.3241941470095579

>  <r_i_glide_lipo>  (1) 
-1.1330326372646626

>  <r_i_glide_metal>  (1) 
-0

>  <r_i_glide_rewards>  (1) 
-0.82306159585869731

>  <r_lp_Energy>  (1) 
27.690203

>  <s_epik_Chemistry_Notes>  (1) 
This compound has an imine and may undergo hydrolysis. This compound contains an acetal/aminal-like group ( X-CH(R)-Y where X, Y are N, S, or O) that may be acid/base labile, releasing an aldehyde.

>  <s_epik_cmdline>  (1) 
J2VwaWtfcHl0aG9uJywgJy1waHQnLCAnMS4wJywgJy1waCcsICc3LjQnLCAnLXRuJywgJzgnLCAnLW1hJywgJzUwMCcsICctaW1hZScsICc8aW5maWxlLm1hZT4nLCAnLW9tYWUnLCAnPG91dGZpbGUubWFlPic=

>  <s_epik_input>  (1) 
W1NIXVMoPU8pKD1PKVtDQEBdMShbQ0gyXVtDSDNdKVtDQEBdKFtDSDNdKShbQ0BASF0xW09IXSlPW0NASF0oW0NAQEhdMltDSDNdKVtOSF1bQ0BASF0oRilbQ0BIXTJbQ0gyXS9bQ0hdPVtDSF1cQyhbQ0gyXVtOSDJdKT1OL0MoPU4vW0hdKS9bQ0gyXVtDSDJdW0NIMl1bTkhdW0NIMl1bT0hd

>  <s_glide_docking_method>  (1) 
confgen

>  <s_i_glide_gridfile>  (1) 
gpcr_drd2_6luq_protein_autoprepared_prepared

>  <s_lp_Force_Field>  (1) 
S-OPLS

>  <s_lp_Variant>  (1) 
DiffSBDD_10_num_sample_50-17

>  <s_m_source_file>  (1) 
generated__ligand_DiffSBDD_2026-05-06_prepared.sdf

>  <GenAI_Model>  (1) 
DiffSBDD

>  <Protein>  (1) 
generic_title2

$$$$
DiffSBDD_4_num_sample_50
     RDKit          3D

  0  0  0  0  0  0  0  0  0  0999 V3000
M  V30 BEGIN CTAB
M  V30 COUNTS 43 44 0 0 1
M  V30 BEGIN ATOM
M  V30 1 C 6.880297 1.811046 -13.092103 0
M  V30 2 C 10.313912 7.547133 -10.833699 0
M  V30 3 C 9.351950 6.105363 -7.537299 0
M  V30 4 C 5.463974 7.035832 -14.868606 0
M  V30 5 C 9.120150 7.071069 -11.678200 0
M  V30 6 O 6.563037 0.691946 -12.692049 0
M  V30 7 N 8.702431 5.687094 -11.368241 0
M  V30 8 O 7.725482 4.438536 -14.699314 0
M  V30 9 C 9.620923 6.018108 -9.029362 0 CFG=2
M  V30 10 C 9.922572 7.460676 -9.372339 0 CFG=1
M  V30 11 C 8.347599 2.237056 -13.134726 0
M  V30 12 C 8.528751 5.402667 -9.926320 0
M  V30 13 O 9.650822 8.159345 -6.292307 0
M  V30 14 C 7.868084 5.167825 -13.718194 0
M  V30 15 O 7.520891 6.469576 -13.717324 0
M  V30 16 C 10.931539 7.853867 -8.301679 0
M  V30 17 C 10.346200 7.186321 -7.040412 0 CFG=2
M  V30 18 C 8.427880 4.706550 -12.366368 0
M  V30 19 C 8.634108 3.371418 -12.147943 0
M  V30 20 C 6.993352 7.089460 -14.879278 0
M  V30 21 H 6.161515 2.556634 -13.436211 0
M  V30 22 H 11.210570 6.968012 -11.045285 0
M  V30 23 H 10.556182 8.569279 -11.091228 0
M  V30 24 H 9.498277 5.128749 -7.091257 0
M  V30 25 H 8.316143 6.396829 -7.356358 0
M  V30 26 H 5.053145 7.568146 -15.727525 0
M  V30 27 H 5.066084 7.501509 -13.965369 0
M  V30 28 H 5.108499 6.004952 -14.906498 0
M  V30 29 H 8.272482 7.749531 -11.564434 0
M  V30 30 H 9.494141 7.159113 -12.691979 0
M  V30 31 H 10.529590 5.430047 -9.109943 0
M  V30 32 H 9.035010 8.075154 -9.221777 0
M  V30 33 H 8.962207 1.386195 -12.842697 0
M  V30 34 H 8.634780 2.453782 -14.157075 0
M  V30 35 H 7.546006 5.769134 -9.637552 0
M  V30 36 H 8.473969 4.344185 -9.704942 0
M  V30 37 H 8.836043 8.342021 -6.741074 0
M  V30 38 H 11.906724 7.423969 -8.533381 0
M  V30 39 H 11.059247 8.933812 -8.213976 0
M  V30 40 H 11.139740 6.754892 -6.428906 0
M  V30 41 H 9.034959 3.058101 -11.199395 0
M  V30 42 H 7.388085 6.627116 -15.785082 0
M  V30 43 H 7.316273 8.130092 -14.882371 0
M  V30 END ATOM
M  V30 BEGIN BOND
M  V30 1 1 5 2
M  V30 2 2 6 1
M  V30 3 1 7 5
M  V30 4 1 9 3
M  V30 5 1 10 2
M  V30 6 1 10 9
M  V30 7 1 11 1
M  V30 8 1 12 7
M  V30 9 1 12 9
M  V30 10 2 14 8
M  V30 11 1 15 14
M  V30 12 1 16 10
M  V30 13 1 17 3
M  V30 14 1 17 13
M  V30 15 1 17 16
M  V30 16 1 18 7
M  V30 17 1 18 14
M  V30 18 1 19 11
M  V30 19 2 19 18
M  V30 20 1 20 4
M  V30 21 1 20 15
M  V30 22 1 21 1
M  V30 23 1 22 2
M  V30 24 1 23 2
M  V30 25 1 24 3
M  V30 26 1 25 3
M  V30 27 1 26 4
M  V30 28 1 27 4
M  V30 29 1 28 4
M  V30 30 1 29 5
M  V30 31 1 30 5
M  V30 32 1 9 31 CFG=1
M  V30 33 1 10 32 CFG=3
M  V30 34 1 33 11
M  V30 35 1 34 11
M  V30 36 1 35 12
M  V30 37 1 36 12
M  V30 38 1 37 13
M  V30 39 1 38 16
M  V30 40 1 39 16
M  V30 41 1 17 40 CFG=1
M  V30 42 1 41 19
M  V30 43 1 42 20
M  V30 44 1 43 20
M  V30 END BOND
M  V30 END CTAB
M  END
>  <i_epik_Tot_Q>  (1) 
0

>  <i_epik_Tot_abs_Q>  (1) 
0

>  <i_i_glide_confnum>  (1) 
13

>  <i_i_glide_lignum>  (1) 
13

>  <i_i_glide_posenum>  (1) 
241

>  <i_i_glide_rotatable_bonds>  (1) 
7

>  <i_lp_mmshare_version>  (1) 
72125

>  <i_m_source_file_index>  (1) 
5

>  <i_f3d_flags>  (1) 
0

>  <num_sample>  (1) 
50

>  <b_lp_Chiralities_Consistent>  (1) 
1

>  <r_epik_Charging_Adjusted_Penalty>  (1) 
0.41067984158451698

>  <r_epik_Ionization_Penalty>  (1) 
6.7674502354530413e-05

>  <r_epik_Ionization_Penalty_Charging>  (1) 
2.6319130011581777e-09

>  <r_epik_Ionization_Penalty_Neutral>  (1) 
6.7671870441529249e-05

>  <r_epik_State_Penalty>  (1) 
0.41067983895260396

>  <r_glide_ring_energy>  (1) 
0

>  <r_i_docking_score>  (1) 
-3.3959408145418841

>  <r_i_glide_ecoul>  (1) 
-1.6485854501846831

>  <r_i_glide_eff_state_penalty>  (1) 
0.41067983895260396

>  <r_i_glide_einternal>  (1) 
13.398253221583833

>  <r_i_glide_emodel>  (1) 
-25.924202575250867

>  <r_i_glide_emodel_strain>  (1) 
1.157066554499913

>  <r_i_glide_energy>  (1) 
-27.385905987523255

>  <r_i_glide_erotb>  (1) 
0.91336080097250838

>  <r_i_glide_esite>  (1) 
-0.033529546456465019

>  <r_i_glide_evdw>  (1) 
-25.737320537338572

>  <r_i_glide_gscore>  (1) 
-3.806620653494488

>  <r_i_glide_gscore_strain>  (1) 
0

>  <r_i_glide_hbond>  (1) 
0

>  <r_i_glide_ligand_efficiency>  (1) 
-0.1697970407270942

>  <r_i_glide_ligand_efficiency_ln>  (1) 
-0.849891980255568

>  <r_i_glide_ligand_efficiency_sa>  (1) 
-0.46090007859530735

>  <r_i_glide_lipo>  (1) 
-0.84213258641649502

>  <r_i_glide_metal>  (1) 
-0

>  <r_i_glide_rewards>  (1) 
-2.3101654771994045

>  <r_lp_Energy>  (1) 
30.399182

>  <r_lp_tautomer_probability>  (1) 
0.5

>  <s_epik_Chemistry_Notes>  (1) 
This compound has an ester and may undergo hydrolysis at high or low pH. This compound has an imine and may undergo hydrolysis.

>  <s_epik_cmdline>  (1) 
J2VwaWtfcHl0aG9uJywgJy1waHQnLCAnMS4wJywgJy1waCcsICc3LjQnLCAnLXRuJywgJzgnLCAnLW1hJywgJzUwMCcsICctaW1hZScsICc8aW5maWxlLm1hZT4nLCAnLW9tYWUnLCAnPG91dGZpbGUubWFlPic=

>  <s_epik_input>  (1) 
W0NIM11bQ0gyXU9DKD1PKUMoPVtDSF0vW0NIMl1bQ0hdPU8pXE4oW0NIMl0xKVtDSDJdW0NIMl1bQ0BASF0oW0NASF0xMilbQ0gyXVtDQEhdKFtDSDJdMilbT0hd

>  <s_glide_docking_method>  (1) 
confgen

>  <s_i_glide_gridfile>  (1) 
gpcr_drd2_6luq_protein_autoprepared_prepared

>  <s_lp_Force_Field>  (1) 
S-OPLS

>  <s_lp_Variant>  (1) 
DiffSBDD_4_num_sample_50-2

>  <s_m_source_file>  (1) 
generated__ligand_DiffSBDD_2026-05-06_prepared.sdf

>  <GenAI_Model>  (1) 
DiffSBDD

>  <Protein>  (1) 
generic_title2

$$$$
DiffSBDD_47_num_sample_50
     RDKit          3D

  0  0  0  0  0  0  0  0  0  0999 V3000
M  V30 BEGIN CTAB
M  V30 COUNTS 61 63 0 0 1
M  V30 BEGIN ATOM
M  V30 1 C 8.419208 0.521060 -17.772254 0
M  V30 2 C 5.649284 3.705243 -12.954745 0
M  V30 3 O 5.496043 3.487311 -10.585327 0
M  V30 4 N 9.971645 3.438586 -16.856268 0
M  V30 5 C 6.136849 6.908423 -17.405334 0
M  V30 6 O 10.355829 3.738913 -18.273709 0
M  V30 7 N 9.715202 -0.282497 -19.165748 0
M  V30 8 C 8.128746 5.089740 -16.321786 0
M  V30 9 C 6.052446 4.079564 -11.669784 0
M  V30 10 C 5.756190 7.956086 -15.174772 0
M  V30 11 O 10.362692 5.769452 -16.671762 0
M  V30 12 C 7.582987 5.739794 -12.618177 0
M  V30 13 C 7.111664 5.365821 -13.947715 0
M  V30 14 C 7.899128 0.552397 -15.293515 0
M  V30 15 O 7.407232 5.369301 -10.211375 0
M  V30 16 N 8.723659 -0.638210 -18.286816 0
M  V30 17 F 8.986626 7.015770 -11.115608 0
M  V30 18 C 9.607081 4.690161 -16.212480 0 CFG=2
M  V30 19 C 8.665100 6.840138 -12.397318 0
M  V30 20 C 7.353350 0.671360 -16.721967 0
M  V30 21 C 6.176355 4.333339 -14.069908 0
M  V30 22 C 8.199270 8.273925 -12.691577 0
M  V30 23 N 10.035084 1.050602 -19.214228 0
M  V30 24 C 7.021894 5.065026 -11.487420 0
M  V30 25 C 11.745642 5.739837 -16.340653 0
M  V30 26 C 9.210332 1.534933 -18.326004 0
M  V30 27 C 6.215076 6.693114 -15.878108 0
M  V30 28 C 10.063755 6.396577 -12.845139 0
M  V30 29 C 9.170823 2.989902 -17.982618 0 CFG=1
M  V30 30 C 7.551259 6.084501 -15.251962 0 CFG=2
M  V30 31 H 4.911646 2.935969 -13.091699 0
M  V30 32 H 5.757216 3.943330 -9.791448 0
M  V30 33 H 7.033599 7.369369 -17.804960 0
M  V30 34 H 5.286264 7.533536 -17.681700 0
M  V30 35 H 5.996103 5.961240 -17.926463 0
M  V30 36 H 8.088118 5.499101 -17.326248 0
M  V30 37 H 7.519793 4.188283 -16.343147 0
M  V30 38 H 6.464125 8.756013 -15.384355 0
M  V30 39 H 5.675065 7.769441 -14.104527 0
M  V30 40 H 4.774580 8.285793 -15.516170 0
M  V30 41 H 7.097517 0.652929 -14.561870 0
M  V30 42 H 8.634317 1.330192 -15.085658 0
M  V30 43 H 8.372829 -0.417046 -15.132194 0
M  V30 44 H 7.434858 6.313080 -10.025519 0
M  V30 45 H 9.835128 4.560671 -15.157347 0
M  V30 46 H 6.582836 -0.087037 -16.864463 0
M  V30 47 H 6.845608 1.630442 -16.835978 0
M  V30 48 H 5.834884 4.042082 -15.044659 0
M  V30 49 H 7.834823 8.436682 -13.696729 0
M  V30 50 H 8.994933 8.993250 -12.498433 0
M  V30 51 H 7.376061 8.539183 -12.028068 0
M  V30 52 H 12.232346 6.618102 -16.765580 0
M  V30 53 H 12.250532 4.857890 -16.736438 0
M  V30 54 H 11.898612 5.770414 -15.263542 0
M  V30 55 H 10.176676 -0.963507 -19.752136 0
M  V30 56 H 5.388926 6.005655 -15.722266 0
M  V30 57 H 10.109420 6.158903 -13.891574 0
M  V30 58 H 10.378262 5.496321 -12.314784 0
M  V30 59 H 10.813470 7.165210 -12.654414 0
M  V30 60 H 8.252281 3.474852 -18.301097 0
M  V30 61 H 8.234744 6.891131 -15.074879 0
M  V30 END ATOM
M  V30 BEGIN BOND
M  V30 1 1 6 4
M  V30 2 2 9 2
M  V30 3 1 9 3
M  V30 4 1 13 12
M  V30 5 2 16 1
M  V30 6 1 16 7
M  V30 7 1 18 4
M  V30 8 1 18 8
M  V30 9 1 18 11
M  V30 10 1 19 12
M  V30 11 1 19 17
M  V30 12 1 20 1
M  V30 13 1 20 14
M  V30 14 1 21 2
M  V30 15 2 21 13
M  V30 16 1 22 19
M  V30 17 1 23 7
M  V30 18 1 24 9
M  V30 19 2 24 12
M  V30 20 1 24 15
M  V30 21 1 25 11
M  V30 22 1 26 1
M  V30 23 2 26 23
M  V30 24 1 27 5
M  V30 25 1 27 10
M  V30 26 1 28 19
M  V30 27 1 29 4
M  V30 28 1 29 6
M  V30 29 1 29 26
M  V30 30 1 30 8
M  V30 31 1 30 13
M  V30 32 1 30 27
M  V30 33 1 31 2
M  V30 34 1 32 3
M  V30 35 1 33 5
M  V30 36 1 34 5
M  V30 37 1 35 5
M  V30 38 1 36 8
M  V30 39 1 37 8
M  V30 40 1 38 10
M  V30 41 1 39 10
M  V30 42 1 40 10
M  V30 43 1 41 14
M  V30 44 1 42 14
M  V30 45 1 43 14
M  V30 46 1 44 15
M  V30 47 1 18 45 CFG=1
M  V30 48 1 46 20
M  V30 49 1 47 20
M  V30 50 1 48 21
M  V30 51 1 49 22
M  V30 52 1 50 22
M  V30 53 1 51 22
M  V30 54 1 52 25
M  V30 55 1 53 25
M  V30 56 1 54 25
M  V30 57 1 55 7
M  V30 58 1 56 27
M  V30 59 1 57 28
M  V30 60 1 58 28
M  V30 61 1 59 28
M  V30 62 1 29 60 CFG=1
M  V30 63 1 30 61 CFG=1
M  V30 END BOND
M  V30 END CTAB
M  END
>  <i_epik_Tot_Q>  (1) 
0

>  <i_epik_Tot_abs_Q>  (1) 
0

>  <i_i_glide_confnum>  (1) 
129

>  <i_i_glide_lignum>  (1) 
114

>  <i_i_glide_posenum>  (1) 
184

>  <i_i_glide_rotatable_bonds>  (1) 
11

>  <i_lp_mmshare_version>  (1) 
72125

>  <i_m_source_file_index>  (1) 
48

>  <i_f3d_flags>  (1) 
0

>  <num_sample>  (1) 
50

>  <b_lp_Chiralities_Consistent>  (1) 
1

>  <r_epik_Charging_Adjusted_Penalty>  (1) 
0.45906188326467423

>  <r_epik_Ionization_Penalty>  (1) 
0.024085043624638366

>  <r_epik_Ionization_Penalty_Charging>  (1) 
0

>  <r_epik_Ionization_Penalty_Neutral>  (1) 
0.024085043624638366

>  <r_epik_State_Penalty>  (1) 
0.45906188326467423

>  <r_glide_ring_energy>  (1) 
0

>  <r_i_docking_score>  (1) 
-3.3880711822084963

>  <r_i_glide_ecoul>  (1) 
-5.9419968706192785

>  <r_i_glide_eff_state_penalty>  (1) 
0.45906188326467423

>  <r_i_glide_einternal>  (1) 
15.141687738830306

>  <r_i_glide_emodel>  (1) 
-14.212785285995128

>  <r_i_glide_emodel_strain>  (1) 
6.3064077767974922

>  <r_i_glide_energy>  (1) 
-19.042907263086928

>  <r_i_glide_erotb>  (1) 
0.55490112727109764

>  <r_i_glide_esite>  (1) 
-0.09140295446157598

>  <r_i_glide_evdw>  (1) 
-13.100910392467648

>  <r_i_glide_gscore>  (1) 
-3.8471330654731704

>  <r_i_glide_gscore_strain>  (1) 
0.57660194419937305

>  <r_i_glide_hbond>  (1) 
-0.41467128692096084

>  <r_i_glide_ligand_efficiency>  (1) 
-0.11293570607361654

>  <r_i_glide_ligand_efficiency_ln>  (1) 
-0.76980668859003942

>  <r_i_glide_ligand_efficiency_sa>  (1) 
-0.35091749699479202

>  <r_i_glide_lipo>  (1) 
-1.7050584552503034

>  <r_i_glide_metal>  (1) 
-0

>  <r_i_glide_rewards>  (1) 
-1.2211583900945269

>  <r_lp_Energy>  (1) 
27.782063999999998

>  <r_lp_tautomer_probability>  (1) 
0.65234765234750614

>  <s_epik_Chemistry_Notes>  (1) 
This compound contains an acetal/aminal-like group ( X-CH(R)-Y where X, Y are N, S, or O) that may be acid/base labile, releasing an aldehyde. This compound has a N-S or N-O group and may undergo hydrolysis at high or low pH.

>  <s_epik_cmdline>  (1) 
J2VwaWtfcHl0aG9uJywgJy1waHQnLCAnMS4wJywgJy1waCcsICc3LjQnLCAnLXRuJywgJzgnLCAnLW1hJywgJzUwMCcsICctaW1hZScsICc8aW5maWxlLm1hZT4nLCAnLW9tYWUnLCAnPG91dGZpbGUubWFlPic=

>  <s_epik_input>  (1) 
W0NIM11bQ0gyXUMxPU5OPU5bQ0BIXTFbQ0BASF0yT04yW0NAQEhdKE9bQ0gzXSlbQ0gyXVtDQEBIXShbQ0hdKFtDSDNdKVtDSDNdKUMoQyhDKEYpKFtDSDNdKVtDSDNdKT1DM1tPSF0pPVtDSF1bQ0gyXUMzPU8=

>  <s_glide_docking_method>  (1) 
confgen

>  <s_i_glide_gridfile>  (1) 
gpcr_drd2_6luq_protein_autoprepared_prepared

>  <s_lp_Force_Field>  (1) 
S-OPLS

>  <s_lp_Variant>  (1) 
DiffSBDD_47_num_sample_50-1

>  <s_m_source_file>  (1) 
generated__ligand_DiffSBDD_2026-05-06_prepared.sdf

>  <GenAI_Model>  (1) 
DiffSBDD

>  <Protein>  (1) 
generic_title2

$$$$
DiffSBDD_29_num_sample_50
     RDKit          3D

  0  0  0  0  0  0  0  0  0  0999 V3000
M  V30 BEGIN CTAB
M  V30 COUNTS 63 66 0 0 1
M  V30 BEGIN ATOM
M  V30 1 C 9.108330 6.414034 -11.032851 0
M  V30 2 O 7.137041 6.134041 -17.861636 0
M  V30 3 C 6.520276 7.138176 -21.566559 0
M  V30 4 C 9.446949 7.110730 -12.314483 0
M  V30 5 O 7.519276 3.921114 -19.882200 0
M  V30 6 N 8.265240 4.271205 -14.776463 0
M  V30 7 C 7.396584 6.150871 -20.770659 0
M  V30 8 C 5.005940 7.650017 -19.514611 0
M  V30 9 C 4.352581 6.680262 -17.269740 0
M  V30 10 C 9.355423 5.821641 -8.724880 0
M  V30 11 C 9.136909 5.270825 -14.149970 0
M  V30 12 C 7.591548 3.522364 -13.708943 0
M  V30 13 C 7.007071 2.659433 -20.299113 0
M  V30 14 C 6.131374 5.466566 -18.625341 0 CFG=1
M  V30 15 C 8.049970 5.591336 -11.107393 0
M  V30 16 C 6.729884 4.400539 -12.779737 0
M  V30 17 C 8.391778 6.304587 -13.264900 0 CFG=1
M  V30 18 C 4.868407 6.359608 -18.682577 0 CFG=2
M  V30 19 C 9.802696 6.569292 -9.826544 0
M  V30 20 C 8.007781 5.300781 -17.092447 0
M  V30 21 N 7.572342 4.831344 -10.093962 0
M  V30 22 C 6.639737 5.033434 -20.026568 0 CFG=2
M  V30 23 C 5.103744 7.409976 -21.028939 0
M  V30 24 N 7.459941 5.593976 -12.343372 0
M  V30 25 C 8.234850 4.969320 -8.905496 0
M  V30 26 N 11.845005 8.185604 -9.620204 0
M  V30 27 C 7.346483 4.821025 -15.780934 0
M  V30 28 C 10.938856 7.471358 -9.711269 0
M  V30 29 C 5.925199 2.120613 -19.352140 0
M  V30 30 H 6.421117 6.772283 -22.589408 0
M  V30 31 H 7.060030 8.082523 -21.650068 0
M  V30 32 H 9.207641 8.172538 -12.245099 0
M  V30 33 H 10.487315 6.975393 -12.613205 0
M  V30 34 H 8.094258 5.696419 -21.475024 0
M  V30 35 H 8.027308 6.702066 -20.073265 0
M  V30 36 H 4.112910 8.253031 -19.345300 0
M  V30 37 H 5.834843 8.254101 -19.161148 0
M  V30 38 H 5.052817 7.313816 -16.723822 0
M  V30 39 H 3.394973 7.200817 -17.305642 0
M  V30 40 H 4.208405 5.769324 -16.691636 0
M  V30 41 H 9.845070 5.896545 -7.765157 0
M  V30 42 H 9.743835 5.769297 -14.902203 0
M  V30 43 H 9.852728 4.742288 -13.519913 0
M  V30 44 H 8.343516 3.011536 -13.105082 0
M  V30 45 H 6.976205 2.731945 -14.140367 0
M  V30 46 H 6.636599 2.715277 -21.323694 0
M  V30 47 H 7.841775 1.958505 -20.314576 0
M  V30 48 H 5.834837 4.569303 -18.092361 0
M  V30 49 H 6.352219 3.806432 -11.948024 0
M  V30 50 H 5.846276 4.741121 -13.319046 0
M  V30 51 H 7.834678 7.004214 -13.888143 0
M  V30 52 H 4.093162 5.769319 -19.165540 0
M  V30 53 H 8.894100 5.889849 -16.875004 0
M  V30 54 H 8.370766 4.450006 -17.666323 0
M  V30 55 H 5.790932 4.726597 -20.640407 0
M  V30 56 H 4.433107 6.600095 -21.318207 0
M  V30 57 H 4.720615 8.290700 -21.545651 0
M  V30 58 H 7.860249 4.381727 -8.080257 0
M  V30 59 H 6.634839 4.044008 -16.045145 0
M  V30 60 H 6.760545 5.633059 -15.350260 0
M  V30 61 H 5.617508 1.117503 -19.648583 0
M  V30 62 H 6.292205 2.066882 -18.326844 0
M  V30 63 H 5.034821 2.747711 -19.360369 0
M  V30 END ATOM
M  V30 BEGIN BOND
M  V30 1 1 4 1
M  V30 2 1 7 3
M  V30 3 1 11 6
M  V30 4 1 12 6
M  V30 5 1 13 5
M  V30 6 1 14 2
M  V30 7 1 15 1
M  V30 8 1 16 12
M  V30 9 1 17 4
M  V30 10 1 17 11
M  V30 11 1 18 8
M  V30 12 1 18 9
M  V30 13 1 18 14
M  V30 14 2 19 1
M  V30 15 1 19 10
M  V30 16 1 20 2
M  V30 17 2 21 15
M  V30 18 1 22 5
M  V30 19 1 22 7
M  V30 20 1 22 14
M  V30 21 1 23 3
M  V30 22 1 23 8
M  V30 23 1 24 15
M  V30 24 1 24 16
M  V30 25 1 24 17
M  V30 26 2 25 10
M  V30 27 1 25 21
M  V30 28 1 27 6
M  V30 29 1 27 20
M  V30 30 1 28 19
M  V30 31 3 28 26
M  V30 32 1 29 13
M  V30 33 1 30 3
M  V30 34 1 31 3
M  V30 35 1 32 4
M  V30 36 1 33 4
M  V30 37 1 34 7
M  V30 38 1 35 7
M  V30 39 1 36 8
M  V30 40 1 37 8
M  V30 41 1 38 9
M  V30 42 1 39 9
M  V30 43 1 40 9
M  V30 44 1 41 10
M  V30 45 1 42 11
M  V30 46 1 43 11
M  V30 47 1 44 12
M  V30 48 1 45 12
M  V30 49 1 46 13
M  V30 50 1 47 13
M  V30 51 1 14 48 CFG=1
M  V30 52 1 49 16
M  V30 53 1 50 16
M  V30 54 1 17 51 CFG=3
M  V30 55 1 18 52 CFG=3
M  V30 56 1 53 20
M  V30 57 1 54 20
M  V30 58 1 22 55 CFG=3
M  V30 59 1 56 23
M  V30 60 1 57 23
M  V30 61 1 58 25
M  V30 62 1 59 27
M  V30 63 1 60 27
M  V30 64 1 61 29
M  V30 65 1 62 29
M  V30 66 1 63 29
M  V30 END BOND
M  V30 END CTAB
M  END
>  <i_epik_Tot_Q>  (1) 
0

>  <i_epik_Tot_abs_Q>  (1) 
0

>  <i_i_glide_confnum>  (1) 
311

>  <i_i_glide_lignum>  (1) 
72

>  <i_i_glide_posenum>  (1) 
209

>  <i_i_glide_rotatable_bonds>  (1) 
6

>  <i_lp_mmshare_version>  (1) 
72125

>  <i_m_source_file_index>  (1) 
30

>  <i_f3d_flags>  (1) 
0

>  <num_sample>  (1) 
50

>  <b_lp_Chiralities_Consistent>  (1) 
1

>  <r_epik_Charging_Adjusted_Penalty>  (1) 
0.33209033116494396

>  <r_epik_Ionization_Penalty>  (1) 
0.33211857123964

>  <r_epik_Ionization_Penalty_Charging>  (1) 
0

>  <r_epik_Ionization_Penalty_Neutral>  (1) 
0.33211857123964

>  <r_epik_State_Penalty>  (1) 
0.33209033116494396

>  <r_glide_ring_energy>  (1) 
0.98173149914431301

>  <r_i_docking_score>  (1) 
-3.3840880245623643

>  <r_i_glide_ecoul>  (1) 
0.7213498679872834

>  <r_i_glide_eff_state_penalty>  (1) 
0.33209033116494396

>  <r_i_glide_einternal>  (1) 
2.7523179193299203

>  <r_i_glide_emodel>  (1) 
-34.760610860994063

>  <r_i_glide_emodel_strain>  (1) 
0

>  <r_i_glide_energy>  (1) 
-29.622144255602741

>  <r_i_glide_erotb>  (1) 
0.61650785367983663

>  <r_i_glide_esite>  (1) 
-0.019429722950925602

>  <r_i_glide_evdw>  (1) 
-30.343494123590023

>  <r_i_glide_gscore>  (1) 
-3.7161783557273083

>  <r_i_glide_gscore_strain>  (1) 
0

>  <r_i_glide_hbond>  (1) 
0

>  <r_i_glide_ligand_efficiency>  (1) 
-0.11669269050215049

>  <r_i_glide_ligand_efficiency_ln>  (1) 
-0.77487034455663262

>  <r_i_glide_ligand_efficiency_sa>  (1) 
-0.35851691646430811

>  <r_i_glide_lipo>  (1) 
-1.7198715822737953

>  <r_i_glide_metal>  (1) 
-0

>  <r_i_glide_rewards>  (1) 
-1.1844126782010149

>  <r_lp_Energy>  (1) 
52.960926000000001

>  <s_epik_cmdline>  (1) 
J2VwaWtfcHl0aG9uJywgJy1waHQnLCAnMS4wJywgJy1waCcsICc3LjQnLCAnLXRuJywgJzgnLCAnLW1hJywgJzUwMCcsICctaW1hZScsICc8aW5maWxlLm1hZT4nLCAnLW9tYWUnLCAnPG91dGZpbGUubWFlPic=

>  <s_epik_input>  (1) 
TiNDYzFbY0hdW2NIXW5jKGMxMilOM1tDQEhdKFtDSDJdMilbQ0gyXU4oW0NIMl1bQ0gyXTMpW0NIMl1bQ0gyXU9bQ0BIXTRbQ0BASF0oW0NIM10pW0NIMl1bQ0gyXVtDSDJdW0NIMl1bQ0BIXTRPW0NIMl1bQ0gzXQ==

>  <s_glide_docking_method>  (1) 
confgen

>  <s_i_glide_gridfile>  (1) 
gpcr_drd2_6luq_protein_autoprepared_prepared

>  <s_lp_Force_Field>  (1) 
S-OPLS

>  <s_lp_Variant>  (1) 
DiffSBDD_29_num_sample_50-2

>  <s_m_source_file>  (1) 
generated__ligand_DiffSBDD_2026-05-06_prepared.sdf

>  <GenAI_Model>  (1) 
DiffSBDD

>  <Protein>  (1) 
generic_title2

$$$$
DiffSBDD_43_num_sample_50
     RDKit          3D

  0  0  0  0  0  0  0  0  0  0999 V3000
M  V30 BEGIN CTAB
M  V30 COUNTS 58 58 0 0 1
M  V30 BEGIN ATOM
M  V30 1 C 6.779906 5.656547 -14.540988 0
M  V30 2 C 7.928746 0.989986 -16.747647 0
M  V30 3 N 9.509179 8.569300 -6.584725 0
M  V30 4 O 9.695501 6.260374 -9.923019 0
M  V30 5 C 6.770700 3.182583 -14.176301 0
M  V30 6 C 6.935576 0.595788 -14.355843 0 CFG=2
M  V30 7 C 8.348540 5.700791 -11.840185 0 CFG=1
M  V30 8 O 6.267288 -0.665175 -16.316172 0
M  V30 9 O 5.435085 1.484062 -19.247519 0
M  V30 10 N 7.438276 4.662500 -12.313326 0
M  V30 11 C 6.504410 1.344092 -18.776131 0
M  V30 12 F 7.838589 6.908651 -12.073807 0
M  V30 13 O 7.434818 6.169296 -15.472876 0
M  V30 14 C 11.827635 8.252417 -5.711313 0
M  V30 15 C 9.800993 7.823835 -7.805518 0 CFG=2
M  V30 16 C 8.571779 5.508552 -10.335522 0
M  V30 17 C 7.452060 4.501263 -13.778852 0 CFG=2
M  V30 18 C 7.559422 1.908035 -13.811205 0
M  V30 19 O 10.234839 5.592324 -8.695072 0
M  V30 20 C 6.685982 0.617869 -15.894066 0 CFG=2
M  V30 21 F 11.034841 10.288137 -6.291667 0
M  V30 22 C 10.442970 6.437865 -7.642072 0
M  V30 23 C 7.697952 1.191273 -18.244494 0
M  V30 24 O 5.609961 5.964439 -14.221950 0 CHG=-1
M  V30 25 C 11.150411 6.011825 -6.580797 0
M  V30 26 C 11.434831 6.826714 -5.345980 0
M  V30 27 C 5.648196 0.226588 -13.577705 0
M  V30 28 C 5.894782 -0.230712 -12.130564 0
M  V30 29 F 10.528227 8.581435 -8.625757 0
M  V30 30 C 10.615534 9.135059 -5.804923 0 CFG=1
M  V30 31 H 8.373767 1.920166 -16.396958 0
M  V30 32 H 8.694967 0.223704 -16.624388 0
M  V30 33 H 8.837119 9.288548 -6.807947 0
M  V30 34 H 6.634809 3.207523 -15.256251 0
M  V30 35 H 5.773866 3.150542 -13.739286 0
M  V30 36 H 7.661903 -0.196896 -14.167386 0
M  V30 37 H 9.304331 5.638921 -12.363621 0
M  V30 38 H 6.902922 -1.307249 -16.029088 0
M  V30 39 H 7.674534 3.794070 -11.860675 0
M  V30 40 H 12.493512 8.672649 -4.955768 0
M  V30 41 H 12.336293 8.288765 -6.681635 0
M  V30 42 H 8.836918 7.687286 -8.291636 0
M  V30 43 H 7.690346 5.769301 -9.749910 0
M  V30 44 H 8.783003 4.455922 -10.141835 0
M  V30 45 H 8.488497 4.450780 -14.115961 0
M  V30 46 H 7.667797 1.845465 -12.728924 0
M  V30 47 H 8.579733 1.994294 -14.177399 0
M  V30 48 H 5.867527 1.305561 -16.106317 0
M  V30 49 H 8.582120 1.206740 -18.863804 0
M  V30 50 H 11.558384 5.015601 -6.596516 0
M  V30 51 H 10.570397 6.795015 -4.681362 0
M  V30 52 H 12.234834 6.333832 -4.800896 0
M  V30 53 H 4.935299 1.050338 -13.586791 0
M  V30 54 H 5.138871 -0.582057 -14.097609 0
M  V30 55 H 4.980512 -0.630648 -11.693938 0
M  V30 56 H 6.634826 -1.029086 -12.090319 0
M  V30 57 H 6.234786 0.581470 -11.491786 0
M  V30 58 H 10.268146 9.386893 -4.810210 0
M  V30 END ATOM
M  V30 BEGIN BOND
M  V30 1 1 10 7
M  V30 2 2 11 9
M  V30 3 1 12 7
M  V30 4 2 13 1
M  V30 5 1 15 3
M  V30 6 1 16 4
M  V30 7 1 16 7
M  V30 8 1 17 1
M  V30 9 1 17 5
M  V30 10 1 17 10
M  V30 11 1 18 5
M  V30 12 1 18 6
M  V30 13 1 19 4
M  V30 14 1 20 2
M  V30 15 1 20 6
M  V30 16 1 20 8
M  V30 17 1 22 15
M  V30 18 1 22 19
M  V30 19 1 23 2
M  V30 20 2 23 11
M  V30 21 1 24 1
M  V30 22 2 25 22
M  V30 23 1 26 14
M  V30 24 1 26 25
M  V30 25 1 27 6
M  V30 26 1 28 27
M  V30 27 1 29 15
M  V30 28 1 30 3
M  V30 29 1 30 14
M  V30 30 1 30 21
M  V30 31 1 31 2
M  V30 32 1 32 2
M  V30 33 1 33 3
M  V30 34 1 34 5
M  V30 35 1 35 5
M  V30 36 1 6 36 CFG=3
M  V30 37 1 7 37 CFG=3
M  V30 38 1 38 8
M  V30 39 1 39 10
M  V30 40 1 40 14
M  V30 41 1 41 14
M  V30 42 1 15 42 CFG=3
M  V30 43 1 43 16
M  V30 44 1 44 16
M  V30 45 1 17 45 CFG=3
M  V30 46 1 46 18
M  V30 47 1 47 18
M  V30 48 1 20 48 CFG=1
M  V30 49 1 49 23
M  V30 50 1 50 25
M  V30 51 1 51 26
M  V30 52 1 52 26
M  V30 53 1 53 27
M  V30 54 1 54 27
M  V30 55 1 55 28
M  V30 56 1 56 28
M  V30 57 1 57 28
M  V30 58 1 30 58 CFG=1
M  V30 END BOND
M  V30 END CTAB
M  END
>  <i_epik_Tot_Q>  (1) 
-1

>  <i_epik_Tot_abs_Q>  (1) 
1

>  <i_i_glide_confnum>  (1) 
9170

>  <i_i_glide_lignum>  (1) 
106

>  <i_i_glide_posenum>  (1) 
94

>  <i_i_glide_rotatable_bonds>  (1) 
15

>  <i_lp_mmshare_version>  (1) 
72125

>  <i_m_source_file_index>  (1) 
44

>  <i_f3d_flags>  (1) 
0

>  <num_sample>  (1) 
50

>  <b_lp_Chiralities_Consistent>  (1) 
1

>  <r_epik_Charging_Adjusted_Penalty>  (1) 
0.10859487374936995

>  <r_epik_Ionization_Penalty>  (1) 
0.10861046635066096

>  <r_epik_Ionization_Penalty_Charging>  (1) 
0.0014700329650535538

>  <r_epik_Ionization_Penalty_Neutral>  (1) 
0.10714043338560741

>  <r_epik_State_Penalty>  (1) 
0.1071248407843164

>  <r_glide_ring_energy>  (1) 
0

>  <r_i_docking_score>  (1) 
-3.3834834497510484

>  <r_i_glide_ecoul>  (1) 
-1.2831422812594977

>  <r_i_glide_eff_state_penalty>  (1) 
0.1071248407843164

>  <r_i_glide_einternal>  (1) 
9.885768009727629

>  <r_i_glide_emodel>  (1) 
-29.174259212881182

>  <r_i_glide_emodel_strain>  (1) 
0.30455171322192598

>  <r_i_glide_energy>  (1) 
-27.39458016907642

>  <r_i_glide_erotb>  (1) 
1.1463316203487632

>  <r_i_glide_esite>  (1) 
-0.1625970747348171

>  <r_i_glide_evdw>  (1) 
-26.111437887816923

>  <r_i_glide_gscore>  (1) 
-3.490608290535365

>  <r_i_glide_gscore_strain>  (1) 
0

>  <r_i_glide_hbond>  (1) 
-0.2450742037365008

>  <r_i_glide_ligand_efficiency>  (1) 
-0.11278278165836828

>  <r_i_glide_ligand_efficiency_ln>  (1) 
-0.76876430578835853

>  <r_i_glide_ligand_efficiency_sa>  (1) 
-0.35044232528077862

>  <r_i_glide_lipo>  (1) 
-1.7124259237989023

>  <r_i_glide_metal>  (1) 
-0

>  <r_i_glide_rewards>  (1) 
-1.0187994720341371

>  <r_lp_Energy>  (1) 
14.872098999999999

>  <s_epik_cmdline>  (1) 
J2VwaWtfcHl0aG9uJywgJy1waHQnLCAnMS4wJywgJy1waCcsICc3LjQnLCAnLXRuJywgJzgnLCAnLW1hJywgJzUwMCcsICctaW1hZScsICc8aW5maWxlLm1hZT4nLCAnLW9tYWUnLCAnPG91dGZpbGUubWFlPic=

>  <s_epik_input>  (1) 
Tz1DPVtDSF1bQ0gyXVtDQEBIXShbT0hdKVtDQEhdKFtDSDJdW0NIM10pW0NIMl1bQ0gyXVtDQEBIXShDKD1PKVtPSF0pW05IXVtDQEBIXShGKVtDSDJdT09DMT1bQ0hdW0NIMl1bQ0gyXVtDQEBIXShGKVtOSF1bQ0BIXTFG

>  <s_glide_docking_method>  (1) 
confgen

>  <s_i_glide_gridfile>  (1) 
gpcr_drd2_6luq_protein_autoprepared_prepared

>  <s_lp_Force_Field>  (1) 
S-OPLS

>  <s_lp_Variant>  (1) 
DiffSBDD_43_num_sample_50-1

>  <s_m_source_file>  (1) 
generated__ligand_DiffSBDD_2026-05-06_prepared.sdf

>  <GenAI_Model>  (1) 
DiffSBDD

>  <Protein>  (1) 
generic_title2

$$$$
DiffSBDD_31_num_sample_50
     RDKit          3D

  0  0  0  0  0  0  0  0  0  0999 V3000
M  V30 BEGIN CTAB
M  V30 COUNTS 71 76 0 0 1
M  V30 BEGIN ATOM
M  V30 1 C 9.854179 4.863085 -21.581837 0
M  V30 2 C 7.641276 5.773107 -20.073115 0
M  V30 3 C 8.955722 5.125566 -8.133657 0
M  V30 4 C 6.735682 6.830338 -12.268351 0
M  V30 5 C 8.421673 5.747998 -10.906119 0
M  V30 6 C 7.484459 4.537505 -15.926814 0
M  V30 7 C 10.025170 7.698051 -10.607145 0 CFG=2
M  V30 8 C 5.194655 6.502451 -20.070829 0
M  V30 9 F 10.913461 4.427474 -22.303964 0
M  V30 10 C 8.636727 4.160552 -21.624471 0
M  V30 11 C 6.461982 6.258803 -19.265805 0
M  V30 12 C 7.799409 4.920156 -13.342908 0
M  V30 13 C 5.878543 7.079763 -15.961834 0
M  V30 14 C 5.316517 6.147896 -17.032639 0
M  V30 15 C 7.588171 5.216481 -17.310106 0
M  V30 16 C 7.533553 4.612021 -20.872822 0
M  V30 17 F 9.297690 8.521538 -11.364729 0
M  V30 18 C 9.971231 6.018231 -20.788979 0
M  V30 19 C 8.870065 6.473632 -20.037779 0
M  V30 20 C 9.500224 6.181024 -8.762013 0
M  V30 21 N 6.311069 5.570167 -17.952105 0
M  V30 22 C 6.330638 7.369306 -13.622562 0
M  V30 23 C 11.414253 7.363131 -11.205657 0
M  V30 24 C 8.056590 6.077038 -12.355309 0 CFG=1
M  V30 25 O 11.329567 6.569307 -12.367755 0
M  V30 26 C 5.944873 7.674402 -19.493228 0
M  V30 27 C 6.951563 3.744528 -12.880348 0
M  V30 28 C 9.280913 6.474609 -10.125830 0
M  V30 29 C 10.282571 8.311795 -9.148918 0 CFG=2
M  V30 30 O 11.434793 9.133093 -9.055759 0
M  V30 31 C 8.423317 3.549603 -13.129847 0
M  V30 32 C 7.527689 5.540983 -14.751005 0 CFG=2
M  V30 33 N 6.283967 6.373919 -14.705505 0 CFG=2 CHG=1
M  V30 34 C 10.350348 7.165057 -8.049080 0
M  V30 35 H 9.140727 4.969373 -7.091729 0
M  V30 36 H 8.324326 4.420328 -8.637423 0
M  V30 37 H 5.949117 6.188045 -11.868933 0
M  V30 38 H 6.816722 7.664848 -11.571420 0
M  V30 39 H 7.906784 4.905312 -10.484553 0
M  V30 40 H 6.634870 3.862189 -15.868836 0
M  V30 41 H 8.363900 3.900810 -15.857922 0
M  V30 42 H 5.237621 6.385826 -21.152673 0
M  V30 43 H 4.234861 6.248339 -19.629732 0
M  V30 44 H 8.547775 3.273345 -22.233725 0
M  V30 45 H 5.051659 7.745261 -15.710873 0
M  V30 46 H 6.635136 7.746997 -16.358238 0
M  V30 47 H 4.789179 5.369313 -16.511284 0
M  V30 48 H 4.516342 6.653011 -17.566781 0
M  V30 49 H 8.098499 4.504952 -17.960201 0
M  V30 50 H 8.238859 6.089039 -17.257236 0
M  V30 51 H 6.600436 4.067627 -20.908392 0
M  V30 52 H 10.907208 6.557838 -20.756703 0
M  V30 53 H 8.966074 7.362069 -19.430706 0
M  V30 54 H 5.325533 7.769411 -13.514185 0
M  V30 55 H 7.034726 8.156888 -13.910069 0
M  V30 56 H 12.028023 6.956782 -10.416715 0
M  V30 57 H 12.085673 8.169286 -11.410081 0
M  V30 58 H 8.818439 6.718089 -12.791238 0
M  V30 59 H 12.196557 6.406134 -12.705930 0
M  V30 60 H 5.434708 8.222705 -18.704790 0
M  V30 61 H 6.496980 8.299968 -20.192977 0
M  V30 62 H 6.607507 3.719401 -11.848271 0
M  V30 63 H 6.265580 3.293591 -13.593352 0
M  V30 64 H 9.419716 8.937732 -8.907417 0
M  V30 65 H 11.508430 9.438261 -8.164957 0
M  V30 66 H 8.634820 2.892314 -13.963906 0
M  V30 67 H 9.064595 3.402667 -12.263433 0
M  V30 68 H 8.367640 6.201528 -14.961080 0
M  V30 69 H 9.937051 7.469740 -7.086535 0
M  V30 70 H 11.354774 6.762575 -7.919551 0
M  V30 71 H 5.537026 5.738779 -14.469750 0
M  V30 END ATOM
M  V30 BEGIN BOND
M  V30 1 1 9 1
M  V30 2 1 10 1
M  V30 3 1 11 2
M  V30 4 1 11 8
M  V30 5 1 14 13
M  V30 6 1 15 6
M  V30 7 1 16 2
M  V30 8 2 16 10
M  V30 9 1 7 17 CFG=3
M  V30 10 2 18 1
M  V30 11 2 19 2
M  V30 12 1 19 18
M  V30 13 2 20 3
M  V30 14 1 21 11
M  V30 15 1 21 14
M  V30 16 1 21 15
M  V30 17 1 22 4
M  V30 18 1 23 7
M  V30 19 1 24 4
M  V30 20 1 24 5
M  V30 21 1 24 12
M  V30 22 1 25 23
M  V30 23 1 26 8
M  V30 24 1 26 11
M  V30 25 1 27 12
M  V30 26 2 28 5
M  V30 27 1 28 7
M  V30 28 1 28 20
M  V30 29 1 29 7
M  V30 30 1 30 29
M  V30 31 1 31 12
M  V30 32 1 31 27
M  V30 33 1 32 6
M  V30 34 1 32 12
M  V30 35 1 33 13
M  V30 36 1 33 22
M  V30 37 1 33 32
M  V30 38 1 34 20
M  V30 39 1 34 29
M  V30 40 1 35 3
M  V30 41 1 36 3
M  V30 42 1 37 4
M  V30 43 1 38 4
M  V30 44 1 39 5
M  V30 45 1 40 6
M  V30 46 1 41 6
M  V30 47 1 42 8
M  V30 48 1 43 8
M  V30 49 1 44 10
M  V30 50 1 45 13
M  V30 51 1 46 13
M  V30 52 1 47 14
M  V30 53 1 48 14
M  V30 54 1 49 15
M  V30 55 1 50 15
M  V30 56 1 51 16
M  V30 57 1 52 18
M  V30 58 1 53 19
M  V30 59 1 54 22
M  V30 60 1 55 22
M  V30 61 1 56 23
M  V30 62 1 57 23
M  V30 63 1 24 58 CFG=3
M  V30 64 1 59 25
M  V30 65 1 60 26
M  V30 66 1 61 26
M  V30 67 1 62 27
M  V30 68 1 63 27
M  V30 69 1 29 64 CFG=1
M  V30 70 1 65 30
M  V30 71 1 66 31
M  V30 72 1 67 31
M  V30 73 1 32 68 CFG=3
M  V30 74 1 69 34
M  V30 75 1 70 34
M  V30 76 1 33 71 CFG=1
M  V30 END BOND
M  V30 END CTAB
M  END
>  <i_epik_Tot_Q>  (1) 
1

>  <i_epik_Tot_abs_Q>  (1) 
1

>  <i_i_glide_confnum>  (1) 
94

>  <i_i_glide_lignum>  (1) 
79

>  <i_i_glide_posenum>  (1) 
335

>  <i_i_glide_rotatable_bonds>  (1) 
6

>  <i_lp_mmshare_version>  (1) 
72125

>  <i_m_source_file_index>  (1) 
32

>  <i_f3d_flags>  (1) 
0

>  <num_sample>  (1) 
50

>  <b_lp_Chiralities_Consistent>  (1) 
1

>  <r_epik_Charging_Adjusted_Penalty>  (1) 
0.0036996964664751512

>  <r_epik_Ionization_Penalty>  (1) 
0.0040620325304727405

>  <r_epik_Ionization_Penalty_Charging>  (1) 
0.0036996964664751512

>  <r_epik_Ionization_Penalty_Neutral>  (1) 
0.00036233606399758918

>  <r_epik_State_Penalty>  (1) 
-0

>  <r_glide_ring_energy>  (1) 
0

>  <r_i_docking_score>  (1) 
-3.3811808210463541

>  <r_i_glide_ecoul>  (1) 
0.6952618265330488

>  <r_i_glide_eff_state_penalty>  (1) 
-0

>  <r_i_glide_einternal>  (1) 
0.9905995113773951

>  <r_i_glide_emodel>  (1) 
-24.01756740144608

>  <r_i_glide_emodel_strain>  (1) 
0.43470702110201387

>  <r_i_glide_energy>  (1) 
-21.757825992622529

>  <r_i_glide_erotb>  (1) 
0.36352394052346937

>  <r_i_glide_esite>  (1) 
-0.060060501701226891

>  <r_i_glide_evdw>  (1) 
-22.453087819155577

>  <r_i_glide_gscore>  (1) 
-3.3811808210463541

>  <r_i_glide_gscore_strain>  (1) 
0

>  <r_i_glide_hbond>  (1) 
-9.9854712871322272e-05

>  <r_i_glide_ligand_efficiency>  (1) 
-0.099446494736657468

>  <r_i_glide_ligand_efficiency_ln>  (1) 
-0.74699768227876207

>  <r_i_glide_ligand_efficiency_sa>  (1) 
-0.32216803794455473

>  <r_i_glide_lipo>  (1) 
-1.7168020349198183

>  <r_i_glide_metal>  (1) 
-0

>  <r_i_glide_rewards>  (1) 
-0.94937725325808608

>  <r_lp_Energy>  (1) 
28.935495999999997

>  <r_lp_tautomer_probability>  (1) 
1

>  <s_epik_cmdline>  (1) 
J2VwaWtfcHl0aG9uJywgJy1waHQnLCAnMS4wJywgJy1waCcsICc3LjQnLCAnLXRuJywgJzgnLCAnLW1hJywgJzUwMCcsICctaW1hZScsICc8aW5maWxlLm1hZT4nLCAnLW9tYWUnLCAnPG91dGZpbGUubWFlPic=

>  <s_epik_input>  (1) 
RmMxW2NIXVtjSF1jKFtjSF1bY0hdMSlDMihbQ0gyXVtDSDJdMilOKFtDSDJdW0NIMl0zKVtDSDJdW0NIMl1OKFtDQEhdM0M0NVtDSDJdW0NIMl01KVtDSDJdW0NIMl1bQ0BIXTQvW0NIXT1DKFxbQ0BdNihGKVtDSDJdW09IXSlDKD1bQ0gyXSlbQ0gyXVtDQEhdNltPSF0=

>  <s_glide_docking_method>  (1) 
confgen

>  <s_i_glide_gridfile>  (1) 
gpcr_drd2_6luq_protein_autoprepared_prepared

>  <s_lp_Force_Field>  (1) 
S-OPLS

>  <s_lp_Variant>  (1) 
DiffSBDD_31_num_sample_50-2

>  <s_m_source_file>  (1) 
generated__ligand_DiffSBDD_2026-05-06_prepared.sdf

>  <GenAI_Model>  (1) 
DiffSBDD

>  <Protein>  (1) 
generic_title2

$$$$
DiffSBDD_24_num_sample_50
     RDKit          3D

  0  0  0  0  0  0  0  0  0  0999 V3000
M  V30 BEGIN CTAB
M  V30 COUNTS 84 90 0 0 1
M  V30 BEGIN ATOM
M  V30 1 N 9.756999 3.215746 -19.613877 0
M  V30 2 C 7.320697 3.678628 -12.328908 0
M  V30 3 O 5.434830 0.335209 -18.212270 0
M  V30 4 C 8.212747 0.639095 -20.967782 0 CFG=2
M  V30 5 C 13.261384 4.982470 -17.535127 0 CFG=1
M  V30 6 C 6.864610 6.122639 -11.500972 0 CFG=2
M  V30 7 C 7.321078 -0.225558 -16.891763 0 CFG=2
M  V30 8 C 7.561488 1.369301 -18.834035 0
M  V30 9 N 13.964263 6.090454 -18.181787 0
M  V30 10 N 7.788260 0.565049 -14.626874 0
M  V30 11 C 8.277804 2.095776 -16.538526 0
M  V30 12 C 10.213998 1.863675 -20.013653 0
M  V30 13 C 12.473269 4.154834 -18.559940 0
M  V30 14 C 8.215331 2.254852 -18.041869 0
M  V30 15 C 14.750534 6.693016 -17.106166 0
M  V30 16 C 10.486169 4.340862 -20.230659 0
M  V30 17 C 13.019027 7.021980 -18.817633 0 CFG=2
M  V30 18 O 8.575442 4.604532 -18.241586 0
M  V30 19 C 5.376131 6.220739 -11.234979 0
M  V30 20 F 8.543025 -0.761180 -16.979727 0
M  V30 21 C 12.177891 6.254872 -19.868193 0
M  V30 22 C 8.010257 -0.853494 -23.043354 0
M  V30 23 C 15.485408 5.547423 -16.391424 0 CFG=1
M  V30 24 C 4.718994 0.305921 -19.438103 0
M  V30 25 C 11.434037 5.067836 -19.235861 0 CFG=2
M  V30 26 C 9.522225 1.354593 -21.289823 0
M  V30 27 F 5.834937 6.918876 -13.529853 0
M  V30 28 C 7.257379 5.165227 -12.605708 0 CFG=2
M  V30 29 C 8.828464 3.461329 -18.624224 0
M  V30 30 C 7.378104 0.260870 -22.201291 0
M  V30 31 C 6.838541 0.121643 -18.314839 0 CFG=2
M  V30 32 C 7.341155 1.011771 -15.958642 0 CFG=1
M  V30 33 C 13.759023 8.195329 -19.485009 0
M  V30 34 S 14.536415 4.040761 -16.677803 0
M  V30 35 C 7.643999 1.385039 -13.421101 0 CFG=1
M  V30 36 O 7.459182 1.553049 -20.188929 0
M  V30 37 C 5.922266 5.887706 -12.611128 0 CFG=1
M  V30 38 Cl 17.138224 5.369331 -17.034279 0
M  V30 39 C 7.475250 2.882464 -13.625617 0
M  V30 40 C 6.616446 0.346541 -13.781290 0
M  V30 41 H 8.185949 3.497139 -11.689836 0
M  V30 42 H 6.428608 3.369265 -11.782527 0
M  V30 43 H 8.459911 -0.272824 -20.423714 0
M  V30 44 H 12.578525 5.376301 -16.779022 0
M  V30 45 H 7.406251 7.065970 -11.491667 0
M  V30 46 H 6.688714 -1.010014 -16.472853 0
M  V30 47 H 9.315383 1.873095 -16.291711 0
M  V30 48 H 8.039314 3.074199 -16.133712 0
M  V30 49 H 10.186163 1.127365 -19.209249 0
M  V30 50 H 11.280462 1.937047 -20.230529 0
M  V30 51 H 13.144446 3.719257 -19.301967 0
M  V30 52 H 11.984245 3.325531 -18.048145 0
M  V30 53 H 15.449096 7.442566 -17.479192 0
M  V30 54 H 14.077998 7.190442 -16.404775 0
M  V30 55 H 11.055290 3.997627 -21.095757 0
M  V30 56 H 9.758260 5.050799 -20.627614 0
M  V30 57 H 12.347796 7.425405 -18.057062 0
M  V30 58 H 4.931391 5.419078 -10.650938 0
M  V30 59 H 4.948529 7.209089 -11.079702 0
M  V30 60 H 11.456518 6.934874 -20.323618 0
M  V30 61 H 12.821655 5.899970 -20.674526 0
M  V30 62 H 7.334409 -1.160001 -23.840683 0
M  V30 63 H 8.220947 -1.734148 -22.435658 0
M  V30 64 H 8.942984 -0.526606 -23.503353 0
M  V30 65 H 15.571321 5.747453 -15.323038 0
M  V30 66 H 3.651609 0.390608 -19.234126 0
M  V30 67 H 4.880163 -0.632889 -19.968234 0
M  V30 68 H 4.991417 1.133351 -20.091983 0
M  V30 69 H 10.827099 5.498650 -18.440714 0
M  V30 70 H 9.351626 2.179948 -21.982700 0
M  V30 71 H 10.187670 0.658804 -21.801238 0
M  V30 72 H 8.027554 5.529350 -13.284103 0
M  V30 73 H 6.397238 -0.079799 -21.868851 0
M  V30 74 H 7.197007 1.141743 -22.818618 0
M  V30 75 H 7.005492 -0.748157 -18.948727 0
M  V30 76 H 6.331965 1.425764 -15.929695 0
M  V30 77 H 13.064087 8.822993 -20.041415 0
M  V30 78 H 14.517480 7.843623 -20.184537 0
M  V30 79 H 14.244746 8.843416 -18.756193 0
M  V30 80 H 8.319916 1.130212 -12.609044 0
M  V30 81 H 8.387661 3.255828 -14.085583 0
M  V30 82 H 6.636732 3.086943 -14.291923 0
M  V30 83 H 5.635735 0.705522 -14.089012 0
M  V30 84 H 6.598866 -0.567285 -13.190587 0
M  V30 END ATOM
M  V30 BEGIN BOND
M  V30 1 1 9 5
M  V30 2 1 12 1
M  V30 3 1 13 5
M  V30 4 2 14 8
M  V30 5 1 14 11
M  V30 6 1 15 9
M  V30 7 1 16 1
M  V30 8 1 17 9
M  V30 9 1 19 6
M  V30 10 1 20 7
M  V30 11 1 21 17
M  V30 12 1 23 15
M  V30 13 1 24 3
M  V30 14 1 25 13
M  V30 15 1 25 16
M  V30 16 1 25 21
M  V30 17 1 26 4
M  V30 18 1 26 12
M  V30 19 1 28 2
M  V30 20 1 28 6
M  V30 21 1 29 1
M  V30 22 1 29 14
M  V30 23 2 29 18
M  V30 24 1 30 4
M  V30 25 1 30 22
M  V30 26 1 31 3
M  V30 27 1 31 7
M  V30 28 1 31 8
M  V30 29 1 32 7
M  V30 30 1 32 10
M  V30 31 1 32 11
M  V30 32 1 33 17
M  V30 33 1 34 5
M  V30 34 1 34 23
M  V30 35 1 35 10
M  V30 36 1 36 4
M  V30 37 1 36 8
M  V30 38 1 37 6
M  V30 39 1 37 19
M  V30 40 1 37 27 CFG=3
M  V30 41 1 37 28
M  V30 42 1 38 23
M  V30 43 1 39 2
M  V30 44 1 39 35
M  V30 45 1 40 10
M  V30 46 1 40 35
M  V30 47 1 41 2
M  V30 48 1 42 2
M  V30 49 1 4 43 CFG=1
M  V30 50 1 5 44 CFG=1
M  V30 51 1 6 45 CFG=3
M  V30 52 1 7 46 CFG=1
M  V30 53 1 47 11
M  V30 54 1 48 11
M  V30 55 1 49 12
M  V30 56 1 50 12
M  V30 57 1 51 13
M  V30 58 1 52 13
M  V30 59 1 53 15
M  V30 60 1 54 15
M  V30 61 1 55 16
M  V30 62 1 56 16
M  V30 63 1 17 57 CFG=1
M  V30 64 1 58 19
M  V30 65 1 59 19
M  V30 66 1 60 21
M  V30 67 1 61 21
M  V30 68 1 62 22
M  V30 69 1 63 22
M  V30 70 1 64 22
M  V30 71 1 23 65 CFG=1
M  V30 72 1 66 24
M  V30 73 1 67 24
M  V30 74 1 68 24
M  V30 75 1 25 69 CFG=1
M  V30 76 1 70 26
M  V30 77 1 71 26
M  V30 78 1 28 72 CFG=3
M  V30 79 1 73 30
M  V30 80 1 74 30
M  V30 81 1 31 75 CFG=3
M  V30 82 1 32 76 CFG=1
M  V30 83 1 77 33
M  V30 84 1 78 33
M  V30 85 1 79 33
M  V30 86 1 35 80 CFG=1
M  V30 87 1 81 39
M  V30 88 1 82 39
M  V30 89 1 83 40
M  V30 90 1 84 40
M  V30 END BOND
M  V30 END CTAB
M  END
>  <i_epik_Tot_Q>  (1) 
0

>  <i_epik_Tot_abs_Q>  (1) 
0

>  <i_i_glide_confnum>  (1) 
125

>  <i_i_glide_lignum>  (1) 
66

>  <i_i_glide_posenum>  (1) 
31

>  <i_i_glide_rotatable_bonds>  (1) 
8

>  <i_lp_mmshare_version>  (1) 
72125

>  <i_m_source_file_index>  (1) 
25

>  <i_f3d_flags>  (1) 
0

>  <num_sample>  (1) 
50

>  <b_lp_Chiralities_Consistent>  (1) 
1

>  <r_epik_Charging_Adjusted_Penalty>  (1) 
0.52172569417545378

>  <r_epik_Ionization_Penalty>  (1) 
0.52172594648505022

>  <r_epik_Ionization_Penalty_Charging>  (1) 
0

>  <r_epik_Ionization_Penalty_Neutral>  (1) 
0.52172594648505022

>  <r_epik_State_Penalty>  (1) 
0.52172569417545378

>  <r_glide_ring_energy>  (1) 
0

>  <r_i_docking_score>  (1) 
-3.3440515387214313

>  <r_i_glide_ecoul>  (1) 
-3.1212565551420894

>  <r_i_glide_eff_state_penalty>  (1) 
0.52172569417545378

>  <r_i_glide_einternal>  (1) 
12.720661315515201

>  <r_i_glide_emodel>  (1) 
-40.371219492666953

>  <r_i_glide_emodel_strain>  (1) 
0

>  <r_i_glide_energy>  (1) 
-38.326514325701766

>  <r_i_glide_erotb>  (1) 
0.23292316522527595

>  <r_i_glide_esite>  (1) 
-0.01334304944547645

>  <r_i_glide_evdw>  (1) 
-35.205257770559676

>  <r_i_glide_gscore>  (1) 
-3.8657772328968854

>  <r_i_glide_gscore_strain>  (1) 
0

>  <r_i_glide_hbond>  (1) 
0

>  <r_i_glide_ligand_efficiency>  (1) 
-0.083601288468035787

>  <r_i_glide_ligand_efficiency_ln>  (1) 
-0.71318778216561374

>  <r_i_glide_ligand_efficiency_sa>  (1) 
-0.28591238478304226

>  <r_i_glide_lipo>  (1) 
-1.4275776204499586

>  <r_i_glide_metal>  (1) 
-0

>  <r_i_glide_rewards>  (1) 
-0.42932835642742895

>  <r_lp_Energy>  (1) 
49.504489

>  <s_epik_Chemistry_Notes>  (1) 
This compound contains an acetal/aminal-like group ( X-CH(R)-Y where X, Y are N, S, or O) that may be acid/base labile, releasing an aldehyde.

>  <s_epik_cmdline>  (1) 
J2VwaWtfcHl0aG9uJywgJy1waHQnLCAnMS4wJywgJy1waCcsICc3LjQnLCAnLXRuJywgJzgnLCAnLW1hJywgJzUwMCcsICctaW1hZScsICc8aW5maWxlLm1hZT4nLCAnLW9tYWUnLCAnPG91dGZpbGUubWFlPic=

>  <s_epik_input>  (1) 
UzFbQ0BASF0oQ2wpW0NIMl1OKFtDQEhdMTIpW0NAQEhdKFtDSDNdKVtDSDJdW0NASF0oW0NIMl0yKVtDSDJdTihbQ0gyXVtDSDJdW0NAQEhdKE8zKVtDSDJdW0NIM10pQyg9TylDKD1DMzQpW0NIMl1bQ0BASF0oW0NASF0oRilbQ0BIXTRPW0NIM10pTjVbQ0BIXShbQ0gyXTUpW0NIMl1bQ0gyXVtDQEBIXTZbQ0hdKFtDSDJdNylDNjdG

>  <s_glide_docking_method>  (1) 
confgen

>  <s_i_glide_gridfile>  (1) 
gpcr_drd2_6luq_protein_autoprepared_prepared

>  <s_lp_Force_Field>  (1) 
S-OPLS

>  <s_lp_Variant>  (1) 
DiffSBDD_24_num_sample_50-3

>  <s_m_source_file>  (1) 
generated__ligand_DiffSBDD_2026-05-06_prepared.sdf

>  <GenAI_Model>  (1) 
DiffSBDD

>  <Protein>  (1) 
generic_title2

$$$$
DiffSBDD_41_num_sample_50
     RDKit          3D

  0  0  0  0  0  0  0  0  0  0999 V3000
M  V30 BEGIN CTAB
M  V30 COUNTS 105 110 0 0 1
M  V30 BEGIN ATOM
M  V30 1 C 14.978792 3.738417 -16.291195 0
M  V30 2 C 10.715549 5.336057 -18.409881 0
M  V30 3 C 12.088470 5.550324 -19.086400 0
M  V30 4 C 16.314371 4.722750 -20.458045 0
M  V30 5 C 14.355192 4.883737 -15.984662 0
M  V30 6 O 9.384255 4.569293 -20.241551 0
M  V30 7 C 5.656221 3.604343 -20.143587 0
M  V30 8 N 8.604572 1.547242 -19.945136 0
M  V30 9 O 6.654025 1.229836 -14.446851 0
M  V30 10 C 11.067973 1.860181 -19.669610 0 CFG=2
M  V30 11 C 16.420369 4.023722 -21.834533 0
M  V30 12 O 12.045809 2.682013 -20.287560 0
M  V30 13 C 9.860339 1.931708 -22.039810 0
M  V30 14 C 7.978492 1.099580 -16.651933 0 CFG=1
M  V30 15 C 6.905317 -0.620389 -22.046127 0
M  V30 16 C 7.391566 2.834654 -16.195882 0 CFG=2
M  V30 17 C 13.318718 2.672428 -19.654036 0
M  V30 18 C 13.423223 3.444697 -18.305094 0 CFG=1
M  V30 19 C 8.665851 2.453721 -16.930855 0
M  V30 20 C 14.653335 2.914569 -17.518413 0
M  V30 21 C 6.978803 0.104023 -13.657533 0
M  V30 22 C 6.460367 6.026210 -19.947324 0
M  V30 23 O 6.547500 3.167837 -19.117789 0
M  V30 24 C 7.014669 4.252366 -15.786270 0
M  V30 25 C 9.577913 5.459230 -19.419087 0
M  V30 26 C 7.841426 -0.643140 -20.831779 0
M  V30 27 N 6.459221 0.787682 -19.366429 0 CHG=1
M  V30 28 N 8.829379 6.570309 -19.351386 0
M  V30 29 C 6.262410 4.805710 -20.867357 0
M  V30 30 C 13.254087 5.483371 -16.832036 0 CFG=2
M  V30 31 S 8.634354 -0.561783 -17.091560 0
M  V30 32 C 13.349901 5.027504 -18.332588 0 CFG=2
M  V30 33 O 13.222143 6.890116 -16.672283 0
M  V30 34 C 16.008874 4.933521 -23.015690 0
M  V30 35 F 7.808264 6.286658 -14.919929 0
M  V30 36 C 10.968854 0.445753 -20.152071 0
M  V30 37 C 7.635522 0.607369 -20.018614 0
M  V30 38 C 6.151419 1.971936 -18.528181 0 CFG=1
M  V30 39 C 14.784374 5.752661 -22.658901 0
M  V30 40 C 14.379914 5.939667 -21.397497 0
M  V30 41 C 8.189035 5.038479 -15.186060 0
M  V30 42 C 9.922597 1.463338 -20.592939 0 CFG=2
M  V30 43 F 8.619306 4.466127 -14.062271 0
M  V30 44 N 15.034319 5.415228 -20.297583 0
M  V30 45 C 14.633767 5.721694 -18.925683 0
M  V30 46 C 7.751814 1.687538 -15.230238 0 CFG=1
M  V30 47 C 7.725033 6.843662 -20.272790 0
M  V30 48 C 6.638586 1.768714 -17.066214 0 CFG=1
M  V30 49 H 15.756576 3.360653 -15.643428 0
M  V30 50 H 10.570267 6.045648 -17.593624 0
M  V30 51 H 10.655734 4.342909 -17.971665 0
M  V30 52 H 12.072549 5.129892 -20.090364 0
M  V30 53 H 12.190942 6.625774 -19.236267 0
M  V30 54 H 17.107785 5.465817 -20.369034 0
M  V30 55 H 16.475205 3.999685 -19.662682 0
M  V30 56 H 14.631734 5.423182 -15.091765 0
M  V30 57 H 5.484211 2.806723 -20.868037 0
M  V30 58 H 4.687568 3.872408 -19.720422 0
M  V30 59 H 8.405983 2.398820 -19.432903 0
M  V30 60 H 10.857626 2.082537 -18.627423 0
M  V30 61 H 15.769960 3.149438 -21.833902 0
M  V30 62 H 17.430141 3.642016 -21.987174 0
M  V30 63 H 10.222438 1.150052 -22.707239 0
M  V30 64 H 8.839499 2.184450 -22.330129 0
M  V30 65 H 10.474498 2.819780 -22.188498 0
M  V30 66 H 7.058184 -1.498981 -22.673529 0
M  V30 67 H 5.857389 -0.607318 -21.745718 0
M  V30 68 H 7.087521 0.262641 -22.658454 0
M  V30 69 H 14.030933 3.065369 -20.369706 0
M  V30 70 H 13.608454 1.630171 -19.512079 0
M  V30 71 H 12.574831 3.117219 -17.706386 0
M  V30 72 H 8.700117 2.867873 -17.929227 0
M  V30 73 H 9.599814 2.654793 -16.407520 0
M  V30 74 H 15.537715 2.886721 -18.148690 0
M  V30 75 H 14.473398 1.885066 -17.204898 0
M  V30 76 H 6.095496 -0.230626 -13.113356 0
M  V30 77 H 7.319214 -0.710962 -14.291406 0
M  V30 78 H 7.759505 0.335150 -12.931285 0
M  V30 79 H 5.583146 6.668067 -20.041317 0
M  V30 80 H 6.480235 5.727438 -18.898446 0
M  V30 81 H 6.635013 4.794638 -16.652287 0
M  V30 82 H 6.207517 4.225025 -15.056545 0
M  V30 83 H 5.061268 2.001535 -18.483198 0
M  V30 84 H 8.868660 -0.764293 -21.166876 0
M  V30 85 H 9.042619 7.265426 -18.650864 0
M  V30 86 H 7.197480 4.491353 -21.325424 0
M  V30 87 H 5.621538 5.087398 -21.703171 0
M  V30 88 H 12.337105 5.107706 -16.377558 0
M  V30 89 H 7.742529 -1.272608 -16.390208 0
M  V30 90 H 14.006513 7.261136 -17.044938 0
M  V30 91 H 15.798229 4.320666 -23.889265 0
M  V30 92 H 16.818052 5.616320 -23.277229 0
M  V30 93 H 11.679922 0.102646 -20.901096 0
M  V30 94 H 10.674238 -0.301517 -19.418186 0
M  V30 95 H 7.625496 -1.509852 -20.206251 0
M  V30 96 H 14.234876 6.197635 -23.475299 0
M  V30 97 H 13.508769 6.528733 -21.154812 0
M  V30 98 H 9.036053 5.099299 -15.868989 0
M  V30 99 H 14.505621 6.803308 -18.886687 0
M  V30 100 H 15.491248 5.527413 -18.282506 0
M  V30 101 H 8.634422 1.844946 -14.611302 0
M  V30 102 H 8.038500 6.707474 -21.309864 0
M  V30 103 H 7.490267 7.903130 -20.177675 0
M  V30 104 H 5.796942 1.319903 -16.538001 0
M  V30 105 H 5.744228 0.085956 -19.506025 0
M  V30 END ATOM
M  V30 BEGIN BOND
M  V30 1 1 3 2
M  V30 2 2 5 1
M  V30 3 1 11 4
M  V30 4 1 12 10
M  V30 5 1 17 12
M  V30 6 1 18 17
M  V30 7 1 19 14
M  V30 8 1 19 16
M  V30 9 1 20 1
M  V30 10 1 20 18
M  V30 11 1 21 9
M  V30 12 1 23 7
M  V30 13 1 16 24 CFG=1
M  V30 14 1 25 2
M  V30 15 2 25 6
M  V30 16 1 26 15
M  V30 17 1 28 25
M  V30 18 1 29 7
M  V30 19 1 29 22
M  V30 20 1 30 5
M  V30 21 1 14 31 CFG=1
M  V30 22 1 32 3
M  V30 23 1 32 18
M  V30 24 1 32 30
M  V30 25 1 33 30
M  V30 26 1 34 11
M  V30 27 1 36 10
M  V30 28 1 37 8
M  V30 29 1 37 26
M  V30 30 2 37 27
M  V30 31 1 38 23
M  V30 32 1 38 27
M  V30 33 1 39 34
M  V30 34 2 40 39
M  V30 35 1 41 24
M  V30 36 1 41 35
M  V30 37 1 42 8
M  V30 38 1 42 10
M  V30 39 1 42 13 CFG=3
M  V30 40 1 42 36
M  V30 41 1 43 41
M  V30 42 1 44 4
M  V30 43 1 44 40
M  V30 44 1 32 45 CFG=3
M  V30 45 1 45 44
M  V30 46 1 46 9
M  V30 47 1 46 14
M  V30 48 1 46 16
M  V30 49 1 47 22
M  V30 50 1 47 28
M  V30 51 1 48 14
M  V30 52 1 48 16
M  V30 53 1 48 38
M  V30 54 1 49 1
M  V30 55 1 50 2
M  V30 56 1 51 2
M  V30 57 1 52 3
M  V30 58 1 53 3
M  V30 59 1 54 4
M  V30 60 1 55 4
M  V30 61 1 56 5
M  V30 62 1 57 7
M  V30 63 1 58 7
M  V30 64 1 59 8
M  V30 65 1 10 60 CFG=1
M  V30 66 1 61 11
M  V30 67 1 62 11
M  V30 68 1 63 13
M  V30 69 1 64 13
M  V30 70 1 65 13
M  V30 71 1 66 15
M  V30 72 1 67 15
M  V30 73 1 68 15
M  V30 74 1 69 17
M  V30 75 1 70 17
M  V30 76 1 18 71 CFG=1
M  V30 77 1 72 19
M  V30 78 1 73 19
M  V30 79 1 74 20
M  V30 80 1 75 20
M  V30 81 1 76 21
M  V30 82 1 77 21
M  V30 83 1 78 21
M  V30 84 1 79 22
M  V30 85 1 80 22
M  V30 86 1 81 24
M  V30 87 1 82 24
M  V30 88 1 38 83 CFG=1
M  V30 89 1 84 26
M  V30 90 1 85 28
M  V30 91 1 86 29
M  V30 92 1 87 29
M  V30 93 1 30 88 CFG=1
M  V30 94 1 89 31
M  V30 95 1 90 33
M  V30 96 1 91 34
M  V30 97 1 92 34
M  V30 98 1 93 36
M  V30 99 1 94 36
M  V30 100 1 95 26
M  V30 101 1 96 39
M  V30 102 1 97 40
M  V30 103 1 98 41
M  V30 104 1 99 45
M  V30 105 1 100 45
M  V30 106 1 46 101 CFG=1
M  V30 107 1 102 47
M  V30 108 1 103 47
M  V30 109 1 48 104 CFG=1
M  V30 110 1 105 27
M  V30 END BOND
M  V30 END CTAB
M  END
>  <i_epik_Tot_Q>  (1) 
1

>  <i_epik_Tot_abs_Q>  (1) 
1

>  <i_i_glide_confnum>  (1) 
119

>  <i_i_glide_lignum>  (1) 
101

>  <i_i_glide_posenum>  (1) 
191

>  <i_i_glide_rotatable_bonds>  (1) 
9

>  <i_lp_mmshare_version>  (1) 
72125

>  <i_m_source_file_index>  (1) 
42

>  <i_f3d_flags>  (1) 
0

>  <num_sample>  (1) 
50

>  <b_lp_Chiralities_Consistent>  (1) 
1

>  <r_epik_Charging_Adjusted_Penalty>  (1) 
0.076842420233623365

>  <r_epik_Ionization_Penalty>  (1) 
0.078794888684849976

>  <r_epik_Ionization_Penalty_Charging>  (1) 
0.00072930087509115145

>  <r_epik_Ionization_Penalty_Neutral>  (1) 
0.078065587809758821

>  <r_epik_State_Penalty>  (1) 
0.076113119358532211

>  <r_glide_ring_energy>  (1) 
0

>  <r_i_docking_score>  (1) 
-3.3368427834936623

>  <r_i_glide_ecoul>  (1) 
-1.1901299625918964

>  <r_i_glide_eff_state_penalty>  (1) 
0.076113119358532211

>  <r_i_glide_einternal>  (1) 
11.008233723120208

>  <r_i_glide_emodel>  (1) 
-28.142034262938783

>  <r_i_glide_emodel_strain>  (1) 
2.4794806557894731

>  <r_i_glide_energy>  (1) 
-30.085510365117795

>  <r_i_glide_erotb>  (1) 
0.0035911919815773572

>  <r_i_glide_esite>  (1) 
0

>  <r_i_glide_evdw>  (1) 
-28.895380402525898

>  <r_i_glide_gscore>  (1) 
-3.4129559028521945

>  <r_i_glide_gscore_strain>  (1) 
0

>  <r_i_glide_hbond>  (1) 
-0.097049266375626914

>  <r_i_glide_ligand_efficiency>  (1) 
-0.069517557989451292

>  <r_i_glide_ligand_efficiency_ln>  (1) 
-0.68501438885843557

>  <r_i_glide_ligand_efficiency_sa>  (1) 
-0.2526435723720688

>  <r_i_glide_lipo>  (1) 
-1.274945024875578

>  <r_i_glide_metal>  (1) 
-0

>  <r_i_glide_rewards>  (1) 
-0.42126428906748703

>  <r_lp_Energy>  (1) 
118.844916

>  <s_epik_Chemistry_Notes>  (1) 
This compound has an imine and may undergo hydrolysis. This compound contains an acetal/aminal-like group ( X-CH(R)-Y where X, Y are N, S, or O) that may be acid/base labile, releasing an aldehyde.

>  <s_epik_cmdline>  (1) 
J2VwaWtfcHl0aG9uJywgJy1waHQnLCAnMS4wJywgJy1waCcsICc3LjQnLCAnLXRuJywgJzgnLCAnLW1hJywgJzUwMCcsICctaW1hZScsICc8aW5maWxlLm1hZT4nLCAnLW9tYWUnLCAnPG91dGZpbGUubWFlPic=

>  <s_epik_input>  (1) 
W0NIXTE9W0NIXVtDSDJdW0NIMl1bQ0gyXU4xW0NIMl1bQ0BdMjNbQ0BIXShbQ0gyXVtDSF09W0NIXVtDQEhdM1tPSF0pW0NIMl1PW0NASF00W0NAQF0oW0NIM10pKFtDSDJdNClbTkhdW0NASF0oW0NIMl1bQ0gzXSkvTj1DKFtDQEBIXTVbQ0BdKFtDSDJdW0NIXShGKUYpKFtDSDJdW0NAXTU2W1NIXSlbQ0BIXTZPW0NIM10pL09bQ0gyXVtDSDJdW0NIMl1bQ0gyXVtOSF1DKD1PKVtDSDJdW0NIMl0y

>  <s_glide_docking_method>  (1) 
confgen

>  <s_i_glide_gridfile>  (1) 
gpcr_drd2_6luq_protein_autoprepared_prepared

>  <s_lp_Force_Field>  (1) 
S-OPLS

>  <s_lp_Variant>  (1) 
DiffSBDD_41_num_sample_50-1

>  <s_m_source_file>  (1) 
generated__ligand_DiffSBDD_2026-05-06_prepared.sdf

>  <GenAI_Model>  (1) 
DiffSBDD

>  <Protein>  (1) 
generic_title2

$$$$
DiffSBDD_10_num_sample_50
     RDKit          3D

  0  0  0  0  0  0  0  0  0  0999 V3000
M  V30 BEGIN CTAB
M  V30 COUNTS 73 74 0 0 1
M  V30 BEGIN ATOM
M  V30 1 C 9.396033 6.119184 -21.298076 0 CFG=2
M  V30 2 C 9.608693 6.524129 -10.597429 0
M  V30 3 C 7.324006 6.535778 -14.606776 0
M  V30 4 C 5.661452 5.916114 -17.448731 0 CFG=1
M  V30 5 C 8.143993 5.214331 -21.187906 0 CFG=2
M  V30 6 N 9.034830 4.266547 -11.246985 0
M  V30 7 N 6.735178 4.228052 -18.698399 0
M  V30 8 C 6.230539 5.144195 -19.668149 0 CFG=1
M  V30 9 S 10.101346 6.267605 -23.024823 0
M  V30 10 C 10.071788 6.187979 -9.183847 0
M  V30 11 S 8.445904 7.219378 -23.928726 0 CHG=-1
M  V30 12 C 11.060964 7.557630 -19.915390 0
M  V30 13 O 10.510791 8.549017 -6.224885 0
M  V30 14 O 11.209327 7.234011 -23.039333 0
M  V30 15 C 9.500204 4.722455 -20.722552 0 CFG=2
M  V30 16 C 6.357328 6.063403 -12.262806 0
M  V30 17 C 6.901164 5.000479 -17.485881 0 CFG=2
M  V30 18 N 9.587529 6.569298 -6.721873 0 CHG=1
M  V30 19 N 8.769507 5.997716 -12.769986 0
M  V30 20 C 9.166083 6.816559 -8.120350 0
M  V30 21 C 5.341478 7.557087 -19.524902 0
M  V30 22 C 9.628456 7.374227 -20.446053 0
M  V30 23 C 7.402159 4.501159 -22.315041 0
M  V30 24 C 5.824235 7.156547 -16.553831 0
M  V30 25 C 7.575386 6.185700 -13.183423 0
M  V30 26 O 9.594323 4.640738 -19.316463 0
M  V30 27 C 9.153287 5.619698 -11.488074 0
M  V30 28 O 10.276801 4.941121 -23.636551 0
M  V30 29 F 7.035009 4.192952 -16.434937 0
M  V30 30 N 5.871398 7.402438 -11.891667 0 CHG=1
M  V30 31 C 10.859662 7.182201 -6.286434 0
M  V30 32 C 5.297655 6.132590 -18.937155 0 CFG=2
M  V30 33 O 7.279738 5.860978 -20.246024 0
M  V30 34 C 6.092560 6.795692 -15.101365 0
M  V30 35 H 9.663306 7.565299 -10.882898 0
M  V30 36 H 8.197311 6.569304 -15.238507 0
M  V30 37 H 4.823993 5.369335 -17.028033 0
M  V30 38 H 9.385434 3.852203 -10.396036 0
M  V30 39 H 7.631156 3.843875 -18.975890 0
M  V30 40 H 5.674865 4.613675 -20.440641 0
M  V30 41 H 11.087867 6.569325 -9.092784 0
M  V30 42 H 10.125047 5.110470 -9.030876 0
M  V30 43 H 11.147425 8.506103 -19.384905 0
M  V30 44 H 11.333372 6.766466 -19.217689 0
M  V30 45 H 11.808878 7.568759 -20.704778 0
M  V30 46 H 11.239501 9.034067 -5.864957 0
M  V30 47 H 10.004239 3.924020 -21.263768 0
M  V30 48 H 5.569771 5.493162 -12.755794 0
M  V30 49 H 6.580359 5.508958 -11.351617 0
M  V30 50 H 7.811361 5.596626 -17.555639 0
M  V30 51 H 9.652533 5.571430 -6.583609 0
M  V30 52 H 8.199828 6.339505 -8.227917 0
M  V30 53 H 9.034849 7.885741 -8.293403 0
M  V30 54 H 6.335553 7.995854 -19.491668 0
M  V30 55 H 5.036280 7.545224 -20.571718 0
M  V30 56 H 4.657848 8.221014 -18.997566 0
M  V30 57 H 9.345676 8.240966 -21.044622 0
M  V30 58 H 8.960945 7.369293 -19.586194 0
M  V30 59 H 8.073577 4.153185 -23.094443 0
M  V30 60 H 6.887853 3.619395 -21.935370 0
M  V30 61 H 6.667154 5.167721 -22.765640 0
M  V30 62 H 4.927701 7.775942 -16.591022 0
M  V30 63 H 6.634837 7.769278 -16.929618 0
M  V30 64 H 9.336909 5.483944 -18.974794 0
M  V30 65 H 4.877910 7.369383 -11.714871 0
M  V30 66 H 6.335080 7.682657 -11.016486 0
M  V30 67 H 11.687840 6.992632 -6.969447 0
M  V30 68 H 11.129778 6.820296 -5.293195 0
M  V30 69 H 4.280536 5.769348 -19.088763 0
M  V30 70 H 5.229559 6.752588 -14.459804 0
M  V30 71 H 8.804587 3.620182 -11.988680 0
M  V30 72 H 8.854672 6.924126 -6.121394 0
M  V30 73 H 6.072814 8.070181 -12.619529 0
M  V30 END ATOM
M  V30 BEGIN BOND
M  V30 1 1 5 1
M  V30 2 1 8 7
M  V30 3 1 9 1
M  V30 4 1 10 2
M  V30 5 1 11 9
M  V30 6 2 14 9
M  V30 7 1 15 1
M  V30 8 1 15 5
M  V30 9 1 17 4
M  V30 10 1 17 7
M  V30 11 1 20 10
M  V30 12 1 20 18
M  V30 13 1 1 22 CFG=1
M  V30 14 1 22 12
M  V30 15 1 23 5
M  V30 16 1 24 4
M  V30 17 1 25 3
M  V30 18 1 25 16
M  V30 19 2 25 19
M  V30 20 1 26 15
M  V30 21 2 27 2
M  V30 22 1 27 6
M  V30 23 1 27 19
M  V30 24 2 28 9
M  V30 25 1 29 17
M  V30 26 1 30 16
M  V30 27 1 31 13
M  V30 28 1 31 18
M  V30 29 1 32 4
M  V30 30 1 32 8
M  V30 31 1 32 21
M  V30 32 1 5 33 CFG=1
M  V30 33 1 33 8
M  V30 34 2 34 3
M  V30 35 1 34 24
M  V30 36 1 35 2
M  V30 37 1 36 3
M  V30 38 1 4 37 CFG=1
M  V30 39 1 38 6
M  V30 40 1 39 7
M  V30 41 1 8 40 CFG=3
M  V30 42 1 41 10
M  V30 43 1 42 10
M  V30 44 1 43 12
M  V30 45 1 44 12
M  V30 46 1 45 12
M  V30 47 1 46 13
M  V30 48 1 15 47 CFG=3
M  V30 49 1 48 16
M  V30 50 1 49 16
M  V30 51 1 17 50 CFG=3
M  V30 52 1 51 18
M  V30 53 1 52 20
M  V30 54 1 53 20
M  V30 55 1 54 21
M  V30 56 1 55 21
M  V30 57 1 56 21
M  V30 58 1 57 22
M  V30 59 1 58 22
M  V30 60 1 59 23
M  V30 61 1 60 23
M  V30 62 1 61 23
M  V30 63 1 62 24
M  V30 64 1 63 24
M  V30 65 1 64 26
M  V30 66 1 65 30
M  V30 67 1 66 30
M  V30 68 1 67 31
M  V30 69 1 68 31
M  V30 70 1 32 69 CFG=1
M  V30 71 1 70 34
M  V30 72 1 71 6
M  V30 73 1 72 18
M  V30 74 1 73 30
M  V30 END BOND
M  V30 END CTAB
M  END
>  <i_epik_Tot_Q>  (1) 
1

>  <i_epik_Tot_abs_Q>  (1) 
3

>  <i_i_glide_confnum>  (1) 
777

>  <i_i_glide_lignum>  (1) 
36

>  <i_i_glide_posenum>  (1) 
207

>  <i_i_glide_rotatable_bonds>  (1) 
15

>  <i_lp_mmshare_version>  (1) 
72125

>  <i_m_source_file_index>  (1) 
11

>  <i_f3d_flags>  (1) 
0

>  <num_sample>  (1) 
50

>  <b_lp_Chiralities_Consistent>  (1) 
1

>  <r_epik_Charging_Adjusted_Penalty>  (1) 
2.168687317063887

>  <r_epik_Ionization_Penalty>  (1) 
1.1047352072338965

>  <r_epik_Ionization_Penalty_Charging>  (1) 
1.0999234457570315

>  <r_epik_Ionization_Penalty_Neutral>  (1) 
0.0048117614768649203

>  <r_epik_State_Penalty>  (1) 
1.0687638713068555

>  <r_glide_ring_energy>  (1) 
0

>  <r_i_docking_score>  (1) 
-3.3221644190623021

>  <r_i_glide_ecoul>  (1) 
-7.0090233567051063

>  <r_i_glide_eff_state_penalty>  (1) 
1.0687638713068555

>  <r_i_glide_einternal>  (1) 
6.3632903068294038

>  <r_i_glide_emodel>  (1) 
-46.137568581723308

>  <r_i_glide_emodel_strain>  (1) 
1.7514963498231992

>  <r_i_glide_energy>  (1) 
-34.487986998936648

>  <r_i_glide_erotb>  (1) 
0.82219216958862984

>  <r_i_glide_esite>  (1) 
-0.11596593475846002

>  <r_i_glide_evdw>  (1) 
-27.478963642231541

>  <r_i_glide_gscore>  (1) 
-4.3909282903691578

>  <r_i_glide_gscore_strain>  (1) 
0

>  <r_i_glide_hbond>  (1) 
-0.20000000000000001

>  <r_i_glide_ligand_efficiency>  (1) 
-0.097710718207714764

>  <r_i_glide_ligand_efficiency_ln>  (1) 
-0.73395930372647988

>  <r_i_glide_ligand_efficiency_sa>  (1) 
-0.31654479581701145

>  <r_i_glide_lipo>  (1) 
-1.492294662485534

>  <r_i_glide_metal>  (1) 
-0

>  <r_i_glide_rewards>  (1) 
-0.97955817709644977

>  <r_lp_Energy>  (1) 
20.091348

>  <s_epik_Chemistry_Notes>  (1) 
This compound has an imine and may undergo hydrolysis. This compound contains an acetal/aminal-like group ( X-CH(R)-Y where X, Y are N, S, or O) that may be acid/base labile, releasing an aldehyde.

>  <s_epik_cmdline>  (1) 
J2VwaWtfcHl0aG9uJywgJy1waHQnLCAnMS4wJywgJy1waCcsICc3LjQnLCAnLXRuJywgJzgnLCAnLW1hJywgJzUwMCcsICctaW1hZScsICc8aW5maWxlLm1hZT4nLCAnLW9tYWUnLCAnPG91dGZpbGUubWFlPic=

>  <s_epik_input>  (1) 
W1NIXVMoPU8pKD1PKVtDQEBdMShbQ0gyXVtDSDNdKVtDQEBdKFtDSDNdKShbQ0BASF0xW09IXSlPW0NASF0oW0NAQEhdMltDSDNdKVtOSF1bQ0BASF0oRilbQ0BIXTJbQ0gyXVxbQ0hdPVtDSF1cQyhbQ0gyXVtOSDJdKT1OXEMoPU5cW0hdKVxbQ0gyXVtDSDJdW0NIMl1bTkhdW0NIMl1bT0hd

>  <s_glide_docking_method>  (1) 
confgen

>  <s_i_glide_gridfile>  (1) 
gpcr_drd2_6luq_protein_autoprepared_prepared

>  <s_lp_Force_Field>  (1) 
S-OPLS

>  <s_lp_Variant>  (1) 
DiffSBDD_10_num_sample_50-16

>  <s_m_source_file>  (1) 
generated__ligand_DiffSBDD_2026-05-06_prepared.sdf

>  <GenAI_Model>  (1) 
DiffSBDD

>  <Protein>  (1) 
generic_title2

$$$$
DiffSBDD_29_num_sample_50
     RDKit          3D

  0  0  0  0  0  0  0  0  0  0999 V3000
M  V30 BEGIN CTAB
M  V30 COUNTS 63 66 0 0 1
M  V30 BEGIN ATOM
M  V30 1 C 14.790040 5.878925 -18.596401 0
M  V30 2 O 8.477951 5.477588 -14.134117 0
M  V30 3 C 6.195892 4.393296 -11.029936 0
M  V30 4 C 14.437260 7.056161 -17.731644 0
M  V30 5 O 7.834838 2.620495 -13.898933 0
M  V30 6 N 10.865989 5.769300 -16.890472 0
M  V30 7 C 6.471310 4.018587 -12.497636 0
M  V30 8 C 8.199449 6.023786 -11.029763 0
M  V30 9 C 10.388400 6.533759 -12.147477 0
M  V30 10 C 16.196132 4.169766 -19.510609 0
M  V30 11 C 12.221979 6.287087 -16.703132 0
M  V30 12 C 10.880988 4.778210 -17.969967 0
M  V30 13 C 7.946598 1.247200 -13.562844 0
M  V30 14 C 8.930274 4.612800 -13.090891 0 CFG=1
M  V30 15 C 13.770940 5.398976 -19.327680 0
M  V30 16 C 11.346737 5.379350 -19.308075 0
M  V30 17 C 12.826705 6.970482 -17.950764 0 CFG=2
M  V30 18 C 9.358906 5.428672 -11.842443 0 CFG=2
M  V30 19 C 16.051694 5.278437 -18.658448 0
M  V30 20 C 8.858889 5.104126 -15.463078 0
M  V30 21 N 13.833544 4.330451 -20.161389 0
M  V30 22 C 7.896002 3.503766 -12.786359 0 CFG=2
M  V30 23 C 7.393101 4.969424 -10.258315 0
M  V30 24 N 12.610243 6.102529 -19.145148 0
M  V30 25 C 15.059391 3.732652 -20.242426 0
M  V30 26 N 18.060124 6.162500 -17.238133 0
M  V30 27 C 10.387688 5.187422 -15.641132 0
M  V30 28 C 17.171400 5.772928 -17.868762 0
M  V30 29 C 7.826849 0.430925 -14.849831 0
M  V30 30 H 5.834851 3.515269 -10.493067 0
M  V30 31 H 5.373592 5.109350 -11.000870 0
M  V30 32 H 14.743318 6.942374 -16.691627 0
M  V30 33 H 14.856319 7.972623 -18.148774 0
M  V30 34 H 5.748313 3.254706 -12.783980 0
M  V30 35 H 6.252728 4.870347 -13.141906 0
M  V30 36 H 8.634838 6.695517 -10.289584 0
M  V30 37 H 7.550783 6.646369 -11.647391 0
M  V30 38 H 9.927291 7.355084 -12.691663 0
M  V30 39 H 10.786921 6.958876 -11.225850 0
M  V30 40 H 11.238410 6.169306 -12.720464 0
M  V30 41 H 17.144584 3.660815 -19.605914 0
M  V30 42 H 12.870216 5.464966 -16.392839 0
M  V30 43 H 12.235121 7.004609 -15.881871 0
M  V30 44 H 9.883333 4.356997 -18.098865 0
M  V30 45 H 11.534486 3.945890 -17.703315 0
M  V30 46 H 8.911686 1.054438 -13.091675 0
M  V30 47 H 7.166018 0.960006 -12.856681 0
M  V30 48 H 9.834848 4.104347 -13.404823 0
M  V30 49 H 10.604278 6.099108 -19.653437 0
M  V30 50 H 11.394070 4.610422 -20.078877 0
M  V30 51 H 12.384683 7.955751 -18.103142 0
M  V30 52 H 9.864704 4.722183 -11.185157 0
M  V30 53 H 8.363415 5.793575 -16.144311 0
M  V30 54 H 8.492424 4.114013 -15.729119 0
M  V30 55 H 8.277602 2.969267 -11.919460 0
M  V30 56 H 8.053106 4.169301 -9.932068 0
M  V30 57 H 7.034832 5.407428 -9.329388 0
M  V30 58 H 15.132992 2.883109 -20.905105 0
M  V30 59 H 10.830440 4.202277 -15.503038 0
M  V30 60 H 10.775312 5.769300 -14.812420 0
M  V30 61 H 7.969581 -0.630701 -14.653556 0
M  V30 62 H 6.843930 0.558640 -15.303515 0
M  V30 63 H 8.575320 0.740159 -15.579565 0
M  V30 END ATOM
M  V30 BEGIN BOND
M  V30 1 1 4 1
M  V30 2 1 7 3
M  V30 3 1 11 6
M  V30 4 1 12 6
M  V30 5 1 13 5
M  V30 6 1 14 2
M  V30 7 1 15 1
M  V30 8 1 16 12
M  V30 9 1 17 4
M  V30 10 1 17 11
M  V30 11 1 18 8
M  V30 12 1 18 9
M  V30 13 1 18 14
M  V30 14 2 19 1
M  V30 15 1 19 10
M  V30 16 1 20 2
M  V30 17 2 21 15
M  V30 18 1 22 5
M  V30 19 1 22 7
M  V30 20 1 22 14
M  V30 21 1 23 3
M  V30 22 1 23 8
M  V30 23 1 24 15
M  V30 24 1 24 16
M  V30 25 1 24 17
M  V30 26 2 25 10
M  V30 27 1 25 21
M  V30 28 1 27 6
M  V30 29 1 27 20
M  V30 30 1 28 19
M  V30 31 3 28 26
M  V30 32 1 29 13
M  V30 33 1 30 3
M  V30 34 1 31 3
M  V30 35 1 32 4
M  V30 36 1 33 4
M  V30 37 1 34 7
M  V30 38 1 35 7
M  V30 39 1 36 8
M  V30 40 1 37 8
M  V30 41 1 38 9
M  V30 42 1 39 9
M  V30 43 1 40 9
M  V30 44 1 41 10
M  V30 45 1 42 11
M  V30 46 1 43 11
M  V30 47 1 44 12
M  V30 48 1 45 12
M  V30 49 1 46 13
M  V30 50 1 47 13
M  V30 51 1 14 48 CFG=3
M  V30 52 1 49 16
M  V30 53 1 50 16
M  V30 54 1 17 51 CFG=3
M  V30 55 1 18 52 CFG=1
M  V30 56 1 53 20
M  V30 57 1 54 20
M  V30 58 1 22 55 CFG=1
M  V30 59 1 56 23
M  V30 60 1 57 23
M  V30 61 1 58 25
M  V30 62 1 59 27
M  V30 63 1 60 27
M  V30 64 1 61 29
M  V30 65 1 62 29
M  V30 66 1 63 29
M  V30 END BOND
M  V30 END CTAB
M  END
>  <i_epik_Tot_Q>  (1) 
0

>  <i_epik_Tot_abs_Q>  (1) 
0

>  <i_i_glide_confnum>  (1) 
300

>  <i_i_glide_lignum>  (1) 
71

>  <i_i_glide_posenum>  (1) 
279

>  <i_i_glide_rotatable_bonds>  (1) 
6

>  <i_lp_mmshare_version>  (1) 
72125

>  <i_m_source_file_index>  (1) 
30

>  <i_f3d_flags>  (1) 
0

>  <num_sample>  (1) 
50

>  <b_lp_Chiralities_Consistent>  (1) 
1

>  <r_epik_Charging_Adjusted_Penalty>  (1) 
0.33209033116494396

>  <r_epik_Ionization_Penalty>  (1) 
0.33211857123964

>  <r_epik_Ionization_Penalty_Charging>  (1) 
0

>  <r_epik_Ionization_Penalty_Neutral>  (1) 
0.33211857123964

>  <r_epik_State_Penalty>  (1) 
0.33209033116494396

>  <r_glide_ring_energy>  (1) 
0.98173149914430957

>  <r_i_docking_score>  (1) 
-3.3205841339115212

>  <r_i_glide_ecoul>  (1) 
-1.8463910886164534

>  <r_i_glide_eff_state_penalty>  (1) 
0.33209033116494396

>  <r_i_glide_einternal>  (1) 
4.5138561788829445

>  <r_i_glide_emodel>  (1) 
-32.531535841113232

>  <r_i_glide_emodel_strain>  (1) 
1.2878770193053271

>  <r_i_glide_energy>  (1) 
-30.01949531057808

>  <r_i_glide_erotb>  (1) 
0.61650785367983663

>  <r_i_glide_esite>  (1) 
0

>  <r_i_glide_evdw>  (1) 
-28.173104221961626

>  <r_i_glide_gscore>  (1) 
-3.6526744650764651

>  <r_i_glide_gscore_strain>  (1) 
0

>  <r_i_glide_hbond>  (1) 
0

>  <r_i_glide_ligand_efficiency>  (1) 
-0.11450290116936281

>  <r_i_glide_ligand_efficiency_ln>  (1) 
-0.76032956391731421

>  <r_i_glide_ligand_efficiency_sa>  (1) 
-0.35178918985247704

>  <r_i_glide_lipo>  (1) 
-1.4422027946062574

>  <r_i_glide_metal>  (1) 
-0

>  <r_i_glide_rewards>  (1) 
-1.1413656497594955

>  <r_lp_Energy>  (1) 
50.742739

>  <s_epik_cmdline>  (1) 
J2VwaWtfcHl0aG9uJywgJy1waHQnLCAnMS4wJywgJy1waCcsICc3LjQnLCAnLXRuJywgJzgnLCAnLW1hJywgJzUwMCcsICctaW1hZScsICc8aW5maWxlLm1hZT4nLCAnLW9tYWUnLCAnPG91dGZpbGUubWFlPic=

>  <s_epik_input>  (1) 
TiNDYzFbY0hdW2NIXW5jKGMxMilOM1tDQEhdKFtDSDJdMilbQ0gyXU4oW0NIMl1bQ0gyXTMpW0NIMl1bQ0gyXU9bQ0BIXTRbQ0BASF0oW0NIM10pW0NIMl1bQ0gyXVtDSDJdW0NIMl1bQ0BIXTRPW0NIMl1bQ0gzXQ==

>  <s_glide_docking_method>  (1) 
confgen

>  <s_i_glide_gridfile>  (1) 
gpcr_drd2_6luq_protein_autoprepared_prepared

>  <s_lp_Force_Field>  (1) 
S-OPLS

>  <s_lp_Variant>  (1) 
DiffSBDD_29_num_sample_50-1

>  <s_m_source_file>  (1) 
generated__ligand_DiffSBDD_2026-05-06_prepared.sdf

>  <GenAI_Model>  (1) 
DiffSBDD

>  <Protein>  (1) 
generic_title2

$$$$
DiffSBDD_10_num_sample_50
     RDKit          3D

  0  0  0  0  0  0  0  0  0  0999 V3000
M  V30 BEGIN CTAB
M  V30 COUNTS 73 74 0 0 1
M  V30 BEGIN ATOM
M  V30 1 C 10.382639 7.974703 -9.218922 0 CFG=2
M  V30 2 C 8.185044 0.794661 -17.689069 0
M  V30 3 C 7.966012 1.316503 -14.531463 0
M  V30 4 C 7.048741 4.521718 -12.618978 0 CFG=1
M  V30 5 C 9.156972 7.108244 -9.436427 0 CFG=2
M  V30 6 N 8.722083 -1.341634 -16.692940 0
M  V30 7 N 8.111215 6.633543 -12.851423 0
M  V30 8 C 8.077112 6.266078 -11.468042 0 CFG=1
M  V30 9 S 11.130510 7.838977 -7.502728 0
M  V30 10 C 9.401211 0.871528 -18.597069 0
M  V30 11 S 13.034685 8.569303 -7.891347 0 CHG=-1
M  V30 12 C 12.234243 7.387482 -10.846891 0
M  V30 13 O 9.819186 5.468385 -17.821596 0
M  V30 14 O 10.473953 8.781815 -6.583272 0
M  V30 15 C 9.056270 8.629880 -9.155998 0 CFG=2
M  V30 16 C 5.498674 0.530823 -14.097832 0
M  V30 17 C 7.595223 5.532863 -13.652470 0 CFG=1
M  V30 18 N 9.773851 3.294021 -18.094214 0 CHG=1
M  V30 19 N 6.802929 -0.220084 -16.019068 0
M  V30 20 C 10.390559 1.951843 -18.120884 0
M  V30 21 C 9.287829 4.050998 -11.324112 0
M  V30 22 C 11.273242 8.421825 -10.353986 0
M  V30 23 C 8.674666 6.063588 -8.435820 0
M  V30 24 C 6.758200 3.079975 -13.103690 0
M  V30 25 C 6.757806 0.508867 -14.966720 0
M  V30 26 O 8.634828 9.369250 -10.291552 0
M  V30 27 C 7.928974 -0.224391 -16.843292 0
M  V30 28 O 11.277657 6.430043 -7.108564 0
M  V30 29 F 8.597066 5.062061 -14.393976 0
M  V30 30 N 5.722858 -0.230666 -12.861082 0 CHG=1
M  V30 31 C 10.644731 4.357048 -17.572237 0
M  V30 32 C 7.904507 4.742305 -11.365714 0 CFG=2
M  V30 33 O 9.236868 6.667393 -10.802967 0
M  V30 34 C 7.963742 2.401988 -13.720628 0
M  V30 35 H 7.497225 1.626803 -17.737883 0
M  V30 36 H 8.903589 0.969472 -14.927206 0
M  V30 37 H 6.063660 4.908681 -12.349301 0
M  V30 38 H 9.533762 -1.503370 -17.268122 0
M  V30 39 H 9.055790 6.845081 -13.134016 0
M  V30 40 H 7.194710 6.769753 -11.091678 0
M  V30 41 H 9.067940 1.082357 -19.614482 0
M  V30 42 H 9.914770 -0.088907 -18.638778 0
M  V30 43 H 13.023571 7.883084 -11.412912 0
M  V30 44 H 12.635030 6.899878 -9.969770 0
M  V30 45 H 11.743800 6.656879 -11.491803 0
M  V30 46 H 10.061670 6.170057 -17.232816 0
M  V30 47 H 8.634801 8.970396 -8.213556 0
M  V30 48 H 5.058565 1.488080 -13.891172 0
M  V30 49 H 4.708430 0.005965 -14.637160 0
M  V30 50 H 6.816328 5.874916 -14.335302 0
M  V30 51 H 8.944596 3.269688 -17.519667 0
M  V30 52 H 11.266063 1.970765 -18.771495 0
M  V30 53 H 10.746533 1.703528 -17.119203 0
M  V30 54 H 9.919584 4.352468 -12.159976 0
M  V30 55 H 9.834271 4.293672 -10.413531 0
M  V30 56 H 9.196525 2.969702 -11.336468 0
M  V30 57 H 10.634825 8.569312 -11.214079 0
M  V30 58 H 11.757555 9.369473 -10.123803 0
M  V30 59 H 8.635755 6.483812 -7.431326 0
M  V30 60 H 7.666007 5.739780 -8.677255 0
M  V30 61 H 9.335007 5.197840 -8.419567 0
M  V30 62 H 6.015499 3.231139 -13.883689 0
M  V30 63 H 6.343545 2.490107 -12.288484 0
M  V30 64 H 7.739327 9.060829 -10.403844 0
M  V30 65 H 5.063382 0.047207 -12.148584 0
M  V30 66 H 5.537889 -1.219805 -13.091293 0
M  V30 67 H 11.587102 4.428534 -18.116840 0
M  V30 68 H 10.835390 4.232329 -16.504889 0
M  V30 69 H 7.333806 4.488798 -10.473087 0
M  V30 70 H 8.910953 2.852879 -13.491553 0
M  V30 71 H 8.445560 -2.107764 -16.076390 0
M  V30 72 H 9.504898 3.554967 -19.032260 0
M  V30 73 H 6.669478 -0.108203 -12.534416 0
M  V30 END ATOM
M  V30 BEGIN BOND
M  V30 1 1 5 1
M  V30 2 1 8 7
M  V30 3 1 9 1
M  V30 4 1 10 2
M  V30 5 1 11 9
M  V30 6 2 14 9
M  V30 7 1 15 1
M  V30 8 1 15 5
M  V30 9 1 17 4
M  V30 10 1 17 7
M  V30 11 1 20 10
M  V30 12 1 20 18
M  V30 13 1 1 22 CFG=3
M  V30 14 1 22 12
M  V30 15 1 23 5
M  V30 16 1 24 4
M  V30 17 1 25 3
M  V30 18 1 25 16
M  V30 19 2 25 19
M  V30 20 1 26 15
M  V30 21 2 27 2
M  V30 22 1 27 6
M  V30 23 1 27 19
M  V30 24 2 28 9
M  V30 25 1 29 17
M  V30 26 1 30 16
M  V30 27 1 31 13
M  V30 28 1 31 18
M  V30 29 1 32 4
M  V30 30 1 32 8
M  V30 31 1 32 21
M  V30 32 1 5 33 CFG=3
M  V30 33 1 33 8
M  V30 34 2 34 3
M  V30 35 1 34 24
M  V30 36 1 35 2
M  V30 37 1 36 3
M  V30 38 1 4 37 CFG=1
M  V30 39 1 38 6
M  V30 40 1 39 7
M  V30 41 1 8 40 CFG=1
M  V30 42 1 41 10
M  V30 43 1 42 10
M  V30 44 1 43 12
M  V30 45 1 44 12
M  V30 46 1 45 12
M  V30 47 1 46 13
M  V30 48 1 15 47 CFG=1
M  V30 49 1 48 16
M  V30 50 1 49 16
M  V30 51 1 17 50 CFG=3
M  V30 52 1 51 18
M  V30 53 1 52 20
M  V30 54 1 53 20
M  V30 55 1 54 21
M  V30 56 1 55 21
M  V30 57 1 56 21
M  V30 58 1 57 22
M  V30 59 1 58 22
M  V30 60 1 59 23
M  V30 61 1 60 23
M  V30 62 1 61 23
M  V30 63 1 62 24
M  V30 64 1 63 24
M  V30 65 1 64 26
M  V30 66 1 65 30
M  V30 67 1 66 30
M  V30 68 1 67 31
M  V30 69 1 68 31
M  V30 70 1 32 69 CFG=1
M  V30 71 1 70 34
M  V30 72 1 71 6
M  V30 73 1 72 18
M  V30 74 1 73 30
M  V30 END BOND
M  V30 END CTAB
M  END
>  <i_epik_Tot_Q>  (1) 
1

>  <i_epik_Tot_abs_Q>  (1) 
3

>  <i_i_glide_confnum>  (1) 
3621

>  <i_i_glide_lignum>  (1) 
29

>  <i_i_glide_posenum>  (1) 
205

>  <i_i_glide_rotatable_bonds>  (1) 
15

>  <i_lp_mmshare_version>  (1) 
72125

>  <i_m_source_file_index>  (1) 
11

>  <i_f3d_flags>  (1) 
0

>  <num_sample>  (1) 
50

>  <b_lp_Chiralities_Consistent>  (1) 
1

>  <r_epik_Charging_Adjusted_Penalty>  (1) 
2.168687317063887

>  <r_epik_Ionization_Penalty>  (1) 
1.1047352072338965

>  <r_epik_Ionization_Penalty_Charging>  (1) 
1.0999234457570315

>  <r_epik_Ionization_Penalty_Neutral>  (1) 
0.0048117614768649203

>  <r_epik_State_Penalty>  (1) 
1.0687638713068555

>  <r_glide_ring_energy>  (1) 
0

>  <r_i_docking_score>  (1) 
-3.3204106675158744

>  <r_i_glide_ecoul>  (1) 
-16.607359750474686

>  <r_i_glide_eff_state_penalty>  (1) 
1.0687638713068555

>  <r_i_glide_einternal>  (1) 
33.624825262945116

>  <r_i_glide_emodel>  (1) 
-15.284610250017668

>  <r_i_glide_emodel_strain>  (1) 
6.0734571569989555

>  <r_i_glide_energy>  (1) 
-21.227490954948134

>  <r_i_glide_erotb>  (1) 
0.82219216958862984

>  <r_i_glide_esite>  (1) 
-0.20442468125280994

>  <r_i_glide_evdw>  (1) 
-4.6201312044734486

>  <r_i_glide_gscore>  (1) 
-4.3891745388227301

>  <r_i_glide_gscore_strain>  (1) 
0.51836428924973887

>  <r_i_glide_hbond>  (1) 
-0.57932729610994205

>  <r_i_glide_ligand_efficiency>  (1) 
-0.097659137279878655

>  <r_i_glide_ligand_efficiency_ln>  (1) 
-0.73357185081880938

>  <r_i_glide_ligand_efficiency_sa>  (1) 
-0.31637769363447277

>  <r_i_glide_lipo>  (1) 
-1.1600978091791339

>  <r_i_glide_metal>  (1) 
-0

>  <r_i_glide_rewards>  (1) 
-1.0637706883243383

>  <r_lp_Energy>  (1) 
21.645868

>  <s_epik_Chemistry_Notes>  (1) 
This compound has an imine and may undergo hydrolysis. This compound contains an acetal/aminal-like group ( X-CH(R)-Y where X, Y are N, S, or O) that may be acid/base labile, releasing an aldehyde.

>  <s_epik_cmdline>  (1) 
J2VwaWtfcHl0aG9uJywgJy1waHQnLCAnMS4wJywgJy1waCcsICc3LjQnLCAnLXRuJywgJzgnLCAnLW1hJywgJzUwMCcsICctaW1hZScsICc8aW5maWxlLm1hZT4nLCAnLW9tYWUnLCAnPG91dGZpbGUubWFlPic=

>  <s_epik_input>  (1) 
W1NIXVMoPU8pKD1PKVtDQEBdMShbQ0gyXVtDSDNdKVtDQEBdKFtDSDNdKShbQ0BASF0xW09IXSlPW0NASF0oW0NAQEhdMltDSDNdKVtOSF1bQ0BASF0oRilbQ0BIXTJbQ0gyXS9bQ0hdPVtDSF1cQyhbQ0gyXVtOSDJdKT1OL0MoPU4vW0hdKS9bQ0gyXVtDSDJdW0NIMl1bTkhdW0NIMl1bT0hd

>  <s_glide_docking_method>  (1) 
confgen

>  <s_i_glide_gridfile>  (1) 
gpcr_drd2_6luq_protein_autoprepared_prepared

>  <s_lp_Force_Field>  (1) 
S-OPLS

>  <s_lp_Variant>  (1) 
DiffSBDD_10_num_sample_50-9

>  <s_m_source_file>  (1) 
generated__ligand_DiffSBDD_2026-05-06_prepared.sdf

>  <GenAI_Model>  (1) 
DiffSBDD

>  <Protein>  (1) 
generic_title2

$$$$
DiffSBDD_10_num_sample_50
     RDKit          3D

  0  0  0  0  0  0  0  0  0  0999 V3000
M  V30 BEGIN CTAB
M  V30 COUNTS 73 74 0 0 1
M  V30 BEGIN ATOM
M  V30 1 C 13.858765 4.845804 -17.677088 0 CFG=2
M  V30 2 C 8.405920 5.052565 -10.738419 0
M  V30 3 C 7.387760 2.893761 -14.782179 0
M  V30 4 C 8.580518 3.262331 -18.217666 0 CFG=1
M  V30 5 C 12.952544 4.592158 -18.894522 0 CFG=2
M  V30 6 N 10.234766 5.081103 -12.291620 0
M  V30 7 N 10.730928 2.423833 -18.680208 0
M  V30 8 C 10.718422 3.729174 -19.252240 0 CFG=1
M  V30 9 S 15.506687 5.681764 -18.041574 0
M  V30 10 C 9.057439 5.989740 -9.741956 0
M  V30 11 S 16.636633 4.969375 -16.398804 0 CHG=-1
M  V30 12 C 12.885057 6.644112 -16.097847 0
M  V30 13 O 9.434817 8.418802 -7.950585 0
M  V30 14 O 16.124174 5.110629 -19.247921 0
M  V30 15 C 13.826092 3.474865 -18.326990 0 CFG=2
M  V30 16 C 8.348024 5.343863 -14.658328 0
M  V30 17 C 9.729096 2.417177 -17.635275 0 CFG=2
M  V30 18 N 9.764884 6.290123 -7.349178 0 CHG=1
M  V30 19 N 8.353952 3.785398 -12.759450 0
M  V30 20 C 8.874276 5.552362 -8.278101 0
M  V30 21 C 9.167811 5.760785 -18.965777 0
M  V30 22 C 13.267988 5.171182 -16.300193 0
M  V30 23 C 13.199767 5.300639 -20.222794 0
M  V30 24 C 7.575142 3.862300 -17.204746 0
M  V30 25 C 8.059851 3.995256 -13.988513 0
M  V30 26 O 13.222859 2.498944 -17.495568 0
M  V30 27 C 8.986862 4.666621 -11.883864 0
M  V30 28 O 15.377691 7.139472 -17.900511 0
M  V30 29 F 9.363128 1.165000 -17.367933 0
M  V30 30 N 9.654108 5.352806 -15.357556 0 CHG=1
M  V30 31 C 9.261904 7.577929 -6.833240 0
M  V30 32 C 9.263672 4.240171 -19.205914 0 CFG=2
M  V30 33 O 11.560654 4.589519 -18.527328 0
M  V30 34 C 7.175282 2.839108 -16.135706 0
M  V30 35 H 7.419779 4.688104 -10.487669 0
M  V30 36 H 7.055349 2.064104 -14.174797 0
M  V30 37 H 8.004733 2.568272 -18.834397 0
M  V30 38 H 10.805940 5.625271 -11.664799 0
M  V30 39 H 11.649866 2.212003 -18.285276 0
M  V30 40 H 11.055621 3.666153 -20.285447 0
M  V30 41 H 8.634857 6.968179 -9.931294 0
M  V30 42 H 10.121915 6.084306 -9.946861 0
M  V30 43 H 12.342853 6.776313 -15.162057 0
M  V30 44 H 13.763213 7.284970 -16.040013 0
M  V30 45 H 12.255315 7.005467 -16.911695 0
M  V30 46 H 8.607122 8.437395 -8.429765 0
M  V30 47 H 14.680729 3.104406 -18.889311 0
M  V30 48 H 7.487401 5.700889 -15.218052 0
M  V30 49 H 8.415493 6.120157 -13.896583 0
M  V30 50 H 10.144307 2.853184 -16.728281 0
M  V30 51 H 10.662042 6.442510 -7.783794 0
M  V30 52 H 9.131384 4.496143 -8.193509 0
M  V30 53 H 7.834772 5.644298 -7.963572 0
M  V30 54 H 9.595818 6.064848 -18.012567 0
M  V30 55 H 9.699375 6.302255 -19.748451 0
M  V30 56 H 8.131277 6.096456 -18.992129 0
M  V30 57 H 12.378394 4.561665 -16.149024 0
M  V30 58 H 13.967054 4.861302 -15.525562 0
M  V30 59 H 14.143904 4.993529 -20.666053 0
M  V30 60 H 12.426345 5.079403 -20.954545 0
M  V30 61 H 13.216970 6.380077 -20.070952 0
M  V30 62 H 6.656962 4.059225 -17.759336 0
M  V30 63 H 7.882879 4.846021 -16.940119 0
M  V30 64 H 13.843513 2.262640 -16.819229 0
M  V30 65 H 9.827423 6.264325 -15.755418 0
M  V30 66 H 10.395044 5.133590 -14.705531 0
M  V30 67 H 9.895933 7.916412 -6.013438 0
M  V30 68 H 8.234975 7.532323 -6.482704 0
M  V30 69 H 8.834153 4.047501 -20.191402 0
M  V30 70 H 6.670728 1.963760 -16.523285 0
M  V30 71 H 10.756095 4.545549 -12.984884 0
M  V30 72 H 9.892906 5.695277 -6.542874 0
M  V30 73 H 9.650415 4.667638 -16.099213 0
M  V30 END ATOM
M  V30 BEGIN BOND
M  V30 1 1 5 1
M  V30 2 1 8 7
M  V30 3 1 9 1
M  V30 4 1 10 2
M  V30 5 1 11 9
M  V30 6 2 14 9
M  V30 7 1 15 1
M  V30 8 1 15 5
M  V30 9 1 17 4
M  V30 10 1 17 7
M  V30 11 1 20 10
M  V30 12 1 20 18
M  V30 13 1 1 22 CFG=1
M  V30 14 1 22 12
M  V30 15 1 23 5
M  V30 16 1 24 4
M  V30 17 1 25 3
M  V30 18 1 25 16
M  V30 19 2 25 19
M  V30 20 1 26 15
M  V30 21 2 27 2
M  V30 22 1 27 6
M  V30 23 1 27 19
M  V30 24 2 28 9
M  V30 25 1 29 17
M  V30 26 1 30 16
M  V30 27 1 31 13
M  V30 28 1 31 18
M  V30 29 1 32 4
M  V30 30 1 32 8
M  V30 31 1 32 21
M  V30 32 1 5 33 CFG=1
M  V30 33 1 33 8
M  V30 34 2 34 3
M  V30 35 1 34 24
M  V30 36 1 35 2
M  V30 37 1 36 3
M  V30 38 1 4 37 CFG=3
M  V30 39 1 38 6
M  V30 40 1 39 7
M  V30 41 1 8 40 CFG=3
M  V30 42 1 41 10
M  V30 43 1 42 10
M  V30 44 1 43 12
M  V30 45 1 44 12
M  V30 46 1 45 12
M  V30 47 1 46 13
M  V30 48 1 15 47 CFG=3
M  V30 49 1 48 16
M  V30 50 1 49 16
M  V30 51 1 17 50 CFG=1
M  V30 52 1 51 18
M  V30 53 1 52 20
M  V30 54 1 53 20
M  V30 55 1 54 21
M  V30 56 1 55 21
M  V30 57 1 56 21
M  V30 58 1 57 22
M  V30 59 1 58 22
M  V30 60 1 59 23
M  V30 61 1 60 23
M  V30 62 1 61 23
M  V30 63 1 62 24
M  V30 64 1 63 24
M  V30 65 1 64 26
M  V30 66 1 65 30
M  V30 67 1 66 30
M  V30 68 1 67 31
M  V30 69 1 68 31
M  V30 70 1 32 69 CFG=3
M  V30 71 1 70 34
M  V30 72 1 71 6
M  V30 73 1 72 18
M  V30 74 1 73 30
M  V30 END BOND
M  V30 END CTAB
M  END
>  <i_epik_Tot_Q>  (1) 
1

>  <i_epik_Tot_abs_Q>  (1) 
3

>  <i_i_glide_confnum>  (1) 
3753

>  <i_i_glide_lignum>  (1) 
35

>  <i_i_glide_posenum>  (1) 
394

>  <i_i_glide_rotatable_bonds>  (1) 
15

>  <i_lp_mmshare_version>  (1) 
72125

>  <i_m_source_file_index>  (1) 
11

>  <i_f3d_flags>  (1) 
0

>  <num_sample>  (1) 
50

>  <b_lp_Chiralities_Consistent>  (1) 
1

>  <r_epik_Charging_Adjusted_Penalty>  (1) 
2.168687317063887

>  <r_epik_Ionization_Penalty>  (1) 
1.1047352072338965

>  <r_epik_Ionization_Penalty_Charging>  (1) 
1.0999234457570315

>  <r_epik_Ionization_Penalty_Neutral>  (1) 
0.0048117614768649203

>  <r_epik_State_Penalty>  (1) 
1.0687638713068555

>  <r_glide_ring_energy>  (1) 
0

>  <r_i_docking_score>  (1) 
-3.3146785940791403

>  <r_i_glide_ecoul>  (1) 
-11.390235100148077

>  <r_i_glide_eff_state_penalty>  (1) 
1.0687638713068555

>  <r_i_glide_einternal>  (1) 
8.8951008532403666

>  <r_i_glide_emodel>  (1) 
-43.554805254818618

>  <r_i_glide_emodel_strain>  (1) 
3.2099348298010426

>  <r_i_glide_energy>  (1) 
-35.436241920146941

>  <r_i_glide_erotb>  (1) 
0.82219216958862984

>  <r_i_glide_esite>  (1) 
-0.097332971682962843

>  <r_i_glide_evdw>  (1) 
-24.046006819998865

>  <r_i_glide_gscore>  (1) 
-4.383442465385996

>  <r_i_glide_gscore_strain>  (1) 
0

>  <r_i_glide_hbond>  (1) 
-0.5097704131995926

>  <r_i_glide_ligand_efficiency>  (1) 
-0.097490546884680604

>  <r_i_glide_ligand_efficiency_ln>  (1) 
-0.73230547501742083

>  <r_i_glide_ligand_efficiency_sa>  (1) 
-0.31583152620060712

>  <r_i_glide_lipo>  (1) 
-1.0433303489529033

>  <r_i_glide_metal>  (1) 
-0

>  <r_i_glide_rewards>  (1) 
-0.64436529511701179

>  <r_lp_Energy>  (1) 
30.519554999999997

>  <s_epik_Chemistry_Notes>  (1) 
This compound has an imine and may undergo hydrolysis. This compound contains an acetal/aminal-like group ( X-CH(R)-Y where X, Y are N, S, or O) that may be acid/base labile, releasing an aldehyde.

>  <s_epik_cmdline>  (1) 
J2VwaWtfcHl0aG9uJywgJy1waHQnLCAnMS4wJywgJy1waCcsICc3LjQnLCAnLXRuJywgJzgnLCAnLW1hJywgJzUwMCcsICctaW1hZScsICc8aW5maWxlLm1hZT4nLCAnLW9tYWUnLCAnPG91dGZpbGUubWFlPic=

>  <s_epik_input>  (1) 
W1NIXVMoPU8pKD1PKVtDQEBdMShbQ0gyXVtDSDNdKVtDQEBdKFtDSDNdKShbQ0BASF0xW09IXSlPW0NASF0oW0NAQEhdMltDSDNdKVtOSF1bQ0BASF0oRilbQ0BIXTJbQ0gyXS9bQ0hdPVtDSF1cQyhbQ0gyXVtOSDJdKT1OXEMoPU5cW0hdKVxbQ0gyXVtDSDJdW0NIMl1bTkhdW0NIMl1bT0hd

>  <s_glide_docking_method>  (1) 
confgen

>  <s_i_glide_gridfile>  (1) 
gpcr_drd2_6luq_protein_autoprepared_prepared

>  <s_lp_Force_Field>  (1) 
S-OPLS

>  <s_lp_Variant>  (1) 
DiffSBDD_10_num_sample_50-15

>  <s_m_source_file>  (1) 
generated__ligand_DiffSBDD_2026-05-06_prepared.sdf

>  <GenAI_Model>  (1) 
DiffSBDD

>  <Protein>  (1) 
generic_title2

$$$$
DiffSBDD_28_num_sample_50
     RDKit          3D

  0  0  0  0  0  0  0  0  0  0999 V3000
M  V30 BEGIN CTAB
M  V30 COUNTS 71 73 0 0 1
M  V30 BEGIN ATOM
M  V30 1 N 8.353454 5.215687 -12.898335 0 CFG=2 CHG=1
M  V30 2 C 6.443273 -0.230683 -12.714794 0
M  V30 3 C 11.435229 8.118618 -7.224561 0 CFG=2
M  V30 4 C 9.212437 5.435167 -14.073844 0
M  V30 5 N 7.251594 0.082640 -18.425745 0
M  V30 6 O 9.434832 4.014915 -10.838695 0 CHG=-1
M  V30 7 C 6.976979 4.709513 -13.210195 0 CFG=1
M  V30 8 N 6.854463 6.177186 -11.491678 0
M  V30 9 F 6.188428 0.786734 -20.341345 0
M  V30 10 C 12.477924 8.021060 -9.435481 0
M  V30 11 O 5.034843 4.832298 -11.730277 0
M  V30 12 C 12.468788 8.794534 -8.115864 0
M  V30 13 C 11.172592 7.212523 -9.417496 0 CFG=1
M  V30 14 C 10.354883 7.809720 -8.252818 0
M  V30 15 O 8.615307 0.169301 -13.640357 0
M  V30 16 N 7.306224 0.679727 -16.199035 0
M  V30 17 N 9.531372 0.549094 -17.582687 0
M  V30 18 C 6.557978 0.266988 -17.235217 0
M  V30 19 C 7.402352 0.306390 -13.775624 0
M  V30 20 C 6.867268 3.180316 -13.329039 0
M  V30 21 C 9.219591 0.073202 -20.064814 0 CFG=2
M  V30 22 C 7.176643 2.620872 -14.732240 0
M  V30 23 F 11.636289 0.335996 -20.381138 0
M  V30 24 C 9.112934 6.359634 -10.701138 0 CFG=1
M  V30 25 F 8.818618 1.017630 -20.916117 0
M  V30 26 O 5.346396 0.087101 -17.139551 0
M  V30 27 O 9.034843 4.891988 -8.831684 0
M  V30 28 C 6.802585 1.133982 -14.905932 0 CFG=1
M  V30 29 C 10.981261 8.946902 -6.014805 0
M  V30 30 C 8.191038 6.371559 -11.957444 0 CFG=1
M  V30 31 C 10.695421 0.579018 -18.292029 0
M  V30 32 C 9.200321 4.969409 -10.067080 0
M  V30 33 C 6.131924 5.247665 -12.066994 0
M  V30 34 C 6.490286 -0.302966 -19.634415 0
M  V30 35 C 8.692166 0.262325 -18.565581 0
M  V30 36 C 10.571383 0.341659 -19.561936 0
M  V30 37 C 10.470031 7.077888 -10.796782 0
M  V30 38 H 5.407201 -0.150198 -13.042650 0
M  V30 39 H 6.634825 -1.279382 -12.495822 0
M  V30 40 H 6.553673 0.339168 -11.792956 0
M  V30 41 H 11.834798 7.172464 -6.855178 0
M  V30 42 H 8.742967 6.154034 -14.748252 0
M  V30 43 H 10.196630 5.780551 -13.762639 0
M  V30 44 H 9.380278 4.517124 -14.627934 0
M  V30 45 H 6.596229 5.186242 -14.114629 0
M  V30 46 H 6.532581 6.678564 -10.659756 0
M  V30 47 H 13.347094 7.369298 -9.491636 0
M  V30 48 H 12.527267 8.708191 -10.281573 0
M  V30 49 H 13.450918 8.912149 -7.659594 0
M  V30 50 H 12.065456 9.769306 -8.354636 0
M  V30 51 H 11.428651 6.217693 -9.066508 0
M  V30 52 H 9.837948 8.718436 -8.564209 0
M  V30 53 H 9.609167 7.128609 -7.844968 0
M  V30 54 H 8.306937 0.744545 -16.356759 0
M  V30 55 H 5.853239 2.861147 -13.081884 0
M  V30 56 H 7.514718 2.728659 -12.576973 0
M  V30 57 H 9.133203 -0.936555 -20.464727 0
M  V30 58 H 8.234829 2.742745 -14.952778 0
M  V30 59 H 6.642341 3.205504 -15.481729 0
M  V30 60 H 8.634840 6.969200 -9.954375 0
M  V30 61 H 5.719674 1.023071 -14.865247 0
M  V30 62 H 10.634797 9.939956 -6.291699 0
M  V30 63 H 10.169970 8.441889 -5.491618 0
M  V30 64 H 11.800009 9.075449 -5.306991 0
M  V30 65 H 8.235749 7.325298 -12.485107 0
M  V30 66 H 11.622353 0.790518 -17.778613 0
M  V30 67 H 6.974213 -1.025015 -20.288429 0
M  V30 68 H 5.531798 -0.765931 -19.392641 0
M  V30 69 H 11.115132 6.569697 -11.512657 0
M  V30 70 H 10.300749 8.077384 -11.197752 0
M  V30 71 H 8.799574 4.513095 -12.299069 0
M  V30 END ATOM
M  V30 BEGIN BOND
M  V30 1 1 4 1
M  V30 2 1 7 1
M  V30 3 1 12 3
M  V30 4 1 12 10
M  V30 5 1 13 10
M  V30 6 1 14 3
M  V30 7 1 14 13
M  V30 8 1 18 5
M  V30 9 1 18 16
M  V30 10 1 19 2
M  V30 11 2 19 15
M  V30 12 1 20 7
M  V30 13 1 22 20
M  V30 14 1 25 21
M  V30 15 2 26 18
M  V30 16 1 28 16
M  V30 17 1 28 19
M  V30 18 1 28 22
M  V30 19 1 29 3
M  V30 20 1 30 1
M  V30 21 1 30 8
M  V30 22 1 30 24
M  V30 23 1 31 17
M  V30 24 1 32 6
M  V30 25 1 32 24
M  V30 26 2 32 27
M  V30 27 1 33 7
M  V30 28 1 33 8
M  V30 29 2 33 11
M  V30 30 1 34 5
M  V30 31 1 34 9
M  V30 32 1 35 5
M  V30 33 2 35 17
M  V30 34 1 35 21
M  V30 35 1 36 21
M  V30 36 1 36 23
M  V30 37 2 36 31
M  V30 38 1 37 13
M  V30 39 1 37 24
M  V30 40 1 38 2
M  V30 41 1 39 2
M  V30 42 1 40 2
M  V30 43 1 3 41 CFG=1
M  V30 44 1 42 4
M  V30 45 1 43 4
M  V30 46 1 44 4
M  V30 47 1 7 45 CFG=3
M  V30 48 1 46 8
M  V30 49 1 47 10
M  V30 50 1 48 10
M  V30 51 1 49 12
M  V30 52 1 50 12
M  V30 53 1 13 51 CFG=1
M  V30 54 1 52 14
M  V30 55 1 53 14
M  V30 56 1 54 16
M  V30 57 1 55 20
M  V30 58 1 56 20
M  V30 59 1 21 57 CFG=3
M  V30 60 1 58 22
M  V30 61 1 59 22
M  V30 62 1 24 60 CFG=1
M  V30 63 1 28 61 CFG=3
M  V30 64 1 62 29
M  V30 65 1 63 29
M  V30 66 1 64 29
M  V30 67 1 30 65 CFG=3
M  V30 68 1 66 31
M  V30 69 1 67 34
M  V30 70 1 68 34
M  V30 71 1 69 37
M  V30 72 1 70 37
M  V30 73 1 1 71 CFG=1
M  V30 END BOND
M  V30 END CTAB
M  END
>  <i_epik_Tot_Q>  (1) 
0

>  <i_epik_Tot_abs_Q>  (1) 
2

>  <i_i_glide_confnum>  (1) 
109

>  <i_i_glide_lignum>  (1) 
69

>  <i_i_glide_posenum>  (1) 
339

>  <i_i_glide_rotatable_bonds>  (1) 
13

>  <i_lp_mmshare_version>  (1) 
72125

>  <i_m_source_file_index>  (1) 
29

>  <i_f3d_flags>  (1) 
0

>  <num_sample>  (1) 
50

>  <b_lp_Chiralities_Consistent>  (1) 
1

>  <r_epik_Charging_Adjusted_Penalty>  (1) 
0.054083419880676768

>  <r_epik_Ionization_Penalty>  (1) 
0.12983459298085004

>  <r_epik_Ionization_Penalty_Charging>  (1) 
0.054083419880676768

>  <r_epik_Ionization_Penalty_Neutral>  (1) 
0.075751173100173264

>  <r_epik_State_Penalty>  (1) 
-0

>  <r_glide_ring_energy>  (1) 
0

>  <r_i_docking_score>  (1) 
-3.3112455299742711

>  <r_i_glide_ecoul>  (1) 
-3.4965369452120507

>  <r_i_glide_eff_state_penalty>  (1) 
-0

>  <r_i_glide_einternal>  (1) 
18.388405730351142

>  <r_i_glide_emodel>  (1) 
-26.16204434922178

>  <r_i_glide_emodel_strain>  (1) 
3.0191643835074444

>  <r_i_glide_energy>  (1) 
-33.519581116276541

>  <r_i_glide_erotb>  (1) 
0.66137813184917615

>  <r_i_glide_esite>  (1) 
-0.17583291752932964

>  <r_i_glide_evdw>  (1) 
-30.023044171064488

>  <r_i_glide_gscore>  (1) 
-3.3112455299742711

>  <r_i_glide_gscore_strain>  (1) 
0

>  <r_i_glide_hbond>  (1) 
-0.1538365554196528

>  <r_i_glide_ligand_efficiency>  (1) 
-0.089493122431737057

>  <r_i_glide_ligand_efficiency_ln>  (1) 
-0.7181315288424579

>  <r_i_glide_ligand_efficiency_sa>  (1) 
-0.29821093813906091

>  <r_i_glide_lipo>  (1) 
-1.8746273381302585

>  <r_i_glide_metal>  (1) 
-0

>  <r_i_glide_rewards>  (1) 
0.25730589959082573

>  <r_lp_Energy>  (1) 
31.855165999999997

>  <r_lp_tautomer_probability>  (1) 
1

>  <s_epik_Chemistry_Notes>  (1) 
This compound has an imine and may undergo hydrolysis. This compound contains an acetal/aminal-like group ( X-CH(R)-Y where X, Y are N, S, or O) that may be acid/base labile, releasing an aldehyde.

>  <s_epik_cmdline>  (1) 
J2VwaWtfcHl0aG9uJywgJy1waHQnLCAnMS4wJywgJy1waCcsICc3LjQnLCAnLXRuJywgJzgnLCAnLW1hJywgJzUwMCcsICctaW1hZScsICc8aW5maWxlLm1hZT4nLCAnLW9tYWUnLCAnPG91dGZpbGUubWFlPic=

>  <s_epik_input>  (1) 
W0NIM11bQ0BASF0xW0NIMl1bQ0gyXVtDQEBIXShbQ0gyXTEpW0NIMl1bQ0BIXShDKD1PKVtPSF0pW0NAQEhdMltOSF1DKD1PKVtDQEBIXShOMltDSDNdKVtDSDJdW0NIMl1bQ0BIXShDKD1PKVtDSDNdKVtOSF1DKD1PKU4oW0NIMl1GKUMoW0NASF0zRik9TltDSF09QzNG

>  <s_glide_docking_method>  (1) 
confgen

>  <s_i_glide_gridfile>  (1) 
gpcr_drd2_6luq_protein_autoprepared_prepared

>  <s_lp_Force_Field>  (1) 
S-OPLS

>  <s_lp_Variant>  (1) 
DiffSBDD_28_num_sample_50-1

>  <s_m_source_file>  (1) 
generated__ligand_DiffSBDD_2026-05-06_prepared.sdf

>  <GenAI_Model>  (1) 
DiffSBDD

>  <Protein>  (1) 
generic_title2

$$$$
DiffSBDD_29_num_sample_50
     RDKit          3D

  0  0  0  0  0  0  0  0  0  0999 V3000
M  V30 BEGIN CTAB
M  V30 COUNTS 63 66 0 0 1
M  V30 BEGIN ATOM
M  V30 1 C 15.437752 6.765846 -18.935057 0
M  V30 2 O 8.899611 5.417579 -14.896008 0
M  V30 3 C 5.633273 5.632409 -13.497138 0
M  V30 4 C 14.240822 6.955708 -19.826318 0
M  V30 5 O 7.834842 2.656349 -14.283623 0
M  V30 6 N 11.683696 5.166780 -17.466228 0
M  V30 7 C 6.171417 4.333613 -14.104023 0
M  V30 8 C 7.610763 7.191038 -12.995946 0
M  V30 9 C 9.785923 6.458005 -11.937333 0
M  V30 10 C 17.514230 7.351062 -17.894298 0
M  V30 11 C 12.233741 6.176089 -18.379076 0
M  V30 12 C 12.787078 4.671014 -16.628991 0
M  V30 13 C 8.129416 1.512755 -13.490942 0
M  V30 14 C 8.675024 4.850788 -13.595133 0 CFG=1
M  V30 15 C 15.439912 5.618293 -18.240710 0
M  V30 16 C 13.869386 3.959939 -17.447911 0
M  V30 17 C 13.389509 5.674098 -19.288647 0 CFG=2
M  V30 18 C 8.463328 5.983360 -12.547011 0 CFG=2
M  V30 19 C 16.483073 7.683373 -18.790582 0
M  V30 20 C 9.861296 4.765272 -15.722046 0
M  V30 21 N 16.396417 5.232202 -17.354320 0
M  V30 22 C 7.507203 3.834398 -13.553886 0 CFG=2
M  V30 23 C 6.416100 6.881598 -13.906317 0
M  V30 24 N 14.351428 4.833109 -18.511849 0
M  V30 25 C 17.426889 6.116914 -17.197729 0
M  V30 26 N 16.524018 9.922391 -20.134925 0
M  V30 27 C 10.585411 5.741505 -16.672283 0
M  V30 28 C 16.506429 8.932769 -19.536857 0
M  V30 29 C 6.851470 0.861229 -12.940514 0
M  V30 30 H 5.528295 5.561369 -12.413736 0
M  V30 31 H 4.634816 5.750109 -13.892214 0
M  V30 32 H 13.735937 7.910900 -19.673029 0
M  V30 33 H 14.525997 6.846503 -20.873070 0
M  V30 34 H 5.435557 3.557330 -13.891668 0
M  V30 35 H 6.235065 4.431973 -15.187545 0
M  V30 36 H 7.242543 7.691526 -12.098181 0
M  V30 37 H 8.234840 7.929163 -13.491691 0
M  V30 38 H 10.491926 6.798460 -12.693546 0
M  V30 39 H 9.627692 7.271267 -11.227791 0
M  V30 40 H 10.234842 5.634181 -11.389702 0
M  V30 41 H 18.350337 8.016999 -17.737201 0
M  V30 42 H 12.595181 7.019074 -17.786766 0
M  V30 43 H 11.439781 6.577056 -19.010413 0
M  V30 44 H 12.432765 3.938998 -15.911321 0
M  V30 45 H 13.225380 5.487683 -16.052335 0
M  V30 46 H 8.634880 0.790183 -14.130614 0
M  V30 47 H 8.826335 1.768625 -12.691684 0
M  V30 48 H 9.558401 4.301391 -13.266967 0
M  V30 49 H 13.440832 3.073855 -17.916833 0
M  V30 50 H 14.664279 3.597815 -16.796081 0
M  V30 51 H 12.984329 5.094682 -20.118528 0
M  V30 52 H 7.928111 5.544365 -11.703697 0
M  V30 53 H 9.402372 3.936358 -16.262137 0
M  V30 54 H 10.634202 4.367084 -15.091268 0
M  V30 55 H 7.337617 3.572337 -12.508151 0
M  V30 56 H 5.742116 7.738640 -13.893964 0
M  V30 57 H 6.742712 6.792545 -14.942790 0
M  V30 58 H 18.200387 5.830291 -16.500155 0
M  V30 59 H 10.985434 6.569179 -16.085936 0
M  V30 60 H 9.841026 6.169303 -17.344329 0
M  V30 61 H 7.091358 -0.028737 -12.358609 0
M  V30 62 H 6.291497 1.534756 -12.292402 0
M  V30 63 H 6.190909 0.555202 -13.751842 0
M  V30 END ATOM
M  V30 BEGIN BOND
M  V30 1 1 4 1
M  V30 2 1 7 3
M  V30 3 1 11 6
M  V30 4 1 12 6
M  V30 5 1 13 5
M  V30 6 1 14 2
M  V30 7 1 15 1
M  V30 8 1 16 12
M  V30 9 1 17 4
M  V30 10 1 17 11
M  V30 11 1 18 8
M  V30 12 1 18 9
M  V30 13 1 18 14
M  V30 14 2 19 1
M  V30 15 1 19 10
M  V30 16 1 20 2
M  V30 17 2 21 15
M  V30 18 1 22 5
M  V30 19 1 22 7
M  V30 20 1 22 14
M  V30 21 1 23 3
M  V30 22 1 23 8
M  V30 23 1 24 15
M  V30 24 1 24 16
M  V30 25 1 24 17
M  V30 26 2 25 10
M  V30 27 1 25 21
M  V30 28 1 27 6
M  V30 29 1 27 20
M  V30 30 1 28 19
M  V30 31 3 28 26
M  V30 32 1 29 13
M  V30 33 1 30 3
M  V30 34 1 31 3
M  V30 35 1 32 4
M  V30 36 1 33 4
M  V30 37 1 34 7
M  V30 38 1 35 7
M  V30 39 1 36 8
M  V30 40 1 37 8
M  V30 41 1 38 9
M  V30 42 1 39 9
M  V30 43 1 40 9
M  V30 44 1 41 10
M  V30 45 1 42 11
M  V30 46 1 43 11
M  V30 47 1 44 12
M  V30 48 1 45 12
M  V30 49 1 46 13
M  V30 50 1 47 13
M  V30 51 1 14 48 CFG=1
M  V30 52 1 49 16
M  V30 53 1 50 16
M  V30 54 1 17 51 CFG=3
M  V30 55 1 18 52 CFG=1
M  V30 56 1 53 20
M  V30 57 1 54 20
M  V30 58 1 22 55 CFG=1
M  V30 59 1 56 23
M  V30 60 1 57 23
M  V30 61 1 58 25
M  V30 62 1 59 27
M  V30 63 1 60 27
M  V30 64 1 61 29
M  V30 65 1 62 29
M  V30 66 1 63 29
M  V30 END BOND
M  V30 END CTAB
M  END
>  <i_epik_Tot_Q>  (1) 
0

>  <i_epik_Tot_abs_Q>  (1) 
0

>  <i_i_glide_confnum>  (1) 
169

>  <i_i_glide_lignum>  (1) 
71

>  <i_i_glide_posenum>  (1) 
187

>  <i_i_glide_rotatable_bonds>  (1) 
6

>  <i_lp_mmshare_version>  (1) 
72125

>  <i_m_source_file_index>  (1) 
30

>  <i_f3d_flags>  (1) 
0

>  <num_sample>  (1) 
50

>  <b_lp_Chiralities_Consistent>  (1) 
1

>  <r_epik_Charging_Adjusted_Penalty>  (1) 
0.33209033116494396

>  <r_epik_Ionization_Penalty>  (1) 
0.33211857123964

>  <r_epik_Ionization_Penalty_Charging>  (1) 
0

>  <r_epik_Ionization_Penalty_Neutral>  (1) 
0.33211857123964

>  <r_epik_State_Penalty>  (1) 
0.33209033116494396

>  <r_glide_ring_energy>  (1) 
0.17809710789905059

>  <r_i_docking_score>  (1) 
-3.3100997467088895

>  <r_i_glide_ecoul>  (1) 
-3.0938375883359996

>  <r_i_glide_eff_state_penalty>  (1) 
0.33209033116494396

>  <r_i_glide_einternal>  (1) 
3.3157018653573971

>  <r_i_glide_emodel>  (1) 
-33.24187048500427

>  <r_i_glide_emodel_strain>  (1) 
0.58527432961476222

>  <r_i_glide_energy>  (1) 
-29.445535263883336

>  <r_i_glide_erotb>  (1) 
0.61650785367983663

>  <r_i_glide_esite>  (1) 
0

>  <r_i_glide_evdw>  (1) 
-26.351697675547335

>  <r_i_glide_gscore>  (1) 
-3.6421900778738334

>  <r_i_glide_gscore_strain>  (1) 
0

>  <r_i_glide_hbond>  (1) 
0

>  <r_i_glide_ligand_efficiency>  (1) 
-0.1141413705761686

>  <r_i_glide_ligand_efficiency_ln>  (1) 
-0.75792890510903188

>  <r_i_glide_ligand_efficiency_sa>  (1) 
-0.35067845332800635

>  <r_i_glide_lipo>  (1) 
-1.551656707952876

>  <r_i_glide_metal>  (1) 
-0

>  <r_i_glide_rewards>  (1) 
-0.92538070157302688

>  <r_lp_Energy>  (1) 
50.742739

>  <s_epik_cmdline>  (1) 
J2VwaWtfcHl0aG9uJywgJy1waHQnLCAnMS4wJywgJy1waCcsICc3LjQnLCAnLXRuJywgJzgnLCAnLW1hJywgJzUwMCcsICctaW1hZScsICc8aW5maWxlLm1hZT4nLCAnLW9tYWUnLCAnPG91dGZpbGUubWFlPic=

>  <s_epik_input>  (1) 
TiNDYzFbY0hdW2NIXW5jKGMxMilOM1tDQEhdKFtDSDJdMilbQ0gyXU4oW0NIMl1bQ0gyXTMpW0NIMl1bQ0gyXU9bQ0BIXTRbQ0BASF0oW0NIM10pW0NIMl1bQ0gyXVtDSDJdW0NIMl1bQ0BIXTRPW0NIMl1bQ0gzXQ==

>  <s_glide_docking_method>  (1) 
confgen

>  <s_i_glide_gridfile>  (1) 
gpcr_drd2_6luq_protein_autoprepared_prepared

>  <s_lp_Force_Field>  (1) 
S-OPLS

>  <s_lp_Variant>  (1) 
DiffSBDD_29_num_sample_50-1

>  <s_m_source_file>  (1) 
generated__ligand_DiffSBDD_2026-05-06_prepared.sdf

>  <GenAI_Model>  (1) 
DiffSBDD

>  <Protein>  (1) 
generic_title2

$$$$
DiffSBDD_10_num_sample_50
     RDKit          3D

  0  0  0  0  0  0  0  0  0  0999 V3000
M  V30 BEGIN CTAB
M  V30 COUNTS 71 72 0 0 1
M  V30 BEGIN ATOM
M  V30 1 C 8.666309 4.877781 -17.225601 0 CFG=2
M  V30 2 C 11.132845 9.284806 -6.586544 0
M  V30 3 C 9.302189 6.873294 -9.823255 0
M  V30 4 C 7.649659 5.861215 -12.158647 0 CFG=1
M  V30 5 C 7.316676 5.069310 -16.498204 0 CFG=2
M  V30 6 N 13.034854 8.569300 -7.891682 0
M  V30 7 N 7.687351 3.846013 -13.453876 0
M  V30 8 C 6.859547 4.772198 -14.149252 0 CFG=1
M  V30 9 S 8.753569 5.461876 -19.010298 0
M  V30 10 C 11.911077 9.789246 -5.383964 0
M  V30 11 S 9.290938 3.629268 -19.932581 0 CHG=-1
M  V30 12 C 11.148145 4.149415 -17.076490 0
M  V30 13 O 11.622421 7.318762 -1.891672 0
M  V30 14 O 7.433212 5.831180 -19.540175 0
M  V30 15 C 7.715353 3.711491 -17.052936 0 CFG=2
M  V30 16 C 9.928532 6.483591 -7.377903 0
M  V30 17 C 8.508071 4.631280 -12.544831 0 CFG=2
M  V30 18 N 11.866265 9.369292 -2.938155 0
M  V30 19 N 10.916813 8.295703 -8.750187 0
M  V30 20 C 11.944890 8.745244 -4.249997 0
M  V30 21 C 5.884002 7.101771 -13.723542 0
M  V30 22 C 10.008080 4.994540 -16.489619 0
M  V30 23 C 6.093880 5.815355 -17.008883 0
M  V30 24 C 8.459833 7.182353 -12.200710 0
M  V30 25 C 10.118185 7.294007 -8.670097 0
M  V30 26 O 8.128296 2.738117 -16.113374 0
M  V30 27 C 11.689938 8.744033 -7.692080 0
M  V30 28 O 9.888778 6.385180 -19.162061 0
M  V30 29 F 8.865444 3.902147 -11.491768 0
M  V30 30 N 11.162652 6.147700 -6.691661 0
M  V30 31 C 12.377252 8.511906 -1.878772 0
M  V30 32 C 6.434150 5.802702 -13.111307 0 CFG=2
M  V30 33 O 7.599628 5.415243 -15.142199 0
M  V30 34 C 9.314437 7.541351 -10.994608 0
M  V30 35 H 10.057410 9.369328 -6.526996 0
M  V30 36 H 8.679658 6.007159 -9.669986 0
M  V30 37 H 7.226218 5.727353 -11.163480 0
M  V30 38 H 13.713298 8.965369 -7.259409 0
M  V30 39 H 8.242273 3.299906 -14.103494 0
M  V30 40 H 6.001468 4.261448 -14.588435 0
M  V30 41 H 11.411136 10.703093 -5.059494 0
M  V30 42 H 12.925819 10.074126 -5.662903 0
M  V30 43 H 12.032979 4.207426 -16.442524 0
M  V30 44 H 10.864626 3.099311 -17.148330 0
M  V30 45 H 11.436864 4.488915 -18.071101 0
M  V30 46 H 12.205857 6.585723 -2.014764 0
M  V30 47 H 7.184075 3.307279 -17.912151 0
M  V30 48 H 9.284568 7.047873 -6.702349 0
M  V30 49 H 9.401440 5.555628 -7.600401 0
M  V30 50 H 9.424720 4.927666 -13.056295 0
M  V30 51 H 12.417887 10.214369 -2.924063 0
M  V30 52 H 12.867015 8.169989 -4.291666 0
M  V30 53 H 11.121441 8.036987 -4.351263 0
M  V30 54 H 6.630893 7.630087 -14.317725 0
M  V30 55 H 5.034939 6.898118 -14.370813 0
M  V30 56 H 5.532406 7.769212 -12.936376 0
M  V30 57 H 10.302362 6.043566 -16.471822 0
M  V30 58 H 9.882112 4.699597 -15.448867 0
M  V30 59 H 5.709023 5.369342 -17.924477 0
M  V30 60 H 5.285387 5.769281 -16.283368 0
M  V30 61 H 6.337991 6.862760 -17.187032 0
M  V30 62 H 7.786818 8.033831 -12.285615 0
M  V30 63 H 9.077084 7.196775 -13.091649 0
M  V30 64 H 8.680633 2.122015 -16.572296 0
M  V30 65 H 11.656682 7.007472 -6.495605 0
M  V30 66 H 10.951894 5.712180 -5.804495 0
M  V30 67 H 12.262105 9.015311 -0.918436 0
M  V30 68 H 13.434847 8.300072 -2.029499 0
M  V30 69 H 5.616017 5.337622 -12.558130 0
M  V30 70 H 9.954047 8.403537 -11.109220 0
M  V30 71 H 13.390785 8.282736 -8.792205 0
M  V30 END ATOM
M  V30 BEGIN BOND
M  V30 1 1 5 1
M  V30 2 1 8 7
M  V30 3 1 9 1
M  V30 4 1 10 2
M  V30 5 1 11 9
M  V30 6 2 14 9
M  V30 7 1 15 1
M  V30 8 1 15 5
M  V30 9 1 17 4
M  V30 10 1 17 7
M  V30 11 1 20 10
M  V30 12 1 20 18
M  V30 13 1 1 22 CFG=1
M  V30 14 1 22 12
M  V30 15 1 23 5
M  V30 16 1 24 4
M  V30 17 1 25 3
M  V30 18 1 25 16
M  V30 19 2 25 19
M  V30 20 1 26 15
M  V30 21 2 27 2
M  V30 22 1 27 6
M  V30 23 1 27 19
M  V30 24 2 28 9
M  V30 25 1 29 17
M  V30 26 1 30 16
M  V30 27 1 31 13
M  V30 28 1 31 18
M  V30 29 1 32 4
M  V30 30 1 32 8
M  V30 31 1 32 21
M  V30 32 1 5 33 CFG=1
M  V30 33 1 33 8
M  V30 34 2 34 3
M  V30 35 1 34 24
M  V30 36 1 35 2
M  V30 37 1 36 3
M  V30 38 1 4 37 CFG=1
M  V30 39 1 38 6
M  V30 40 1 39 7
M  V30 41 1 8 40 CFG=3
M  V30 42 1 41 10
M  V30 43 1 42 10
M  V30 44 1 43 12
M  V30 45 1 44 12
M  V30 46 1 45 12
M  V30 47 1 46 13
M  V30 48 1 15 47 CFG=3
M  V30 49 1 48 16
M  V30 50 1 49 16
M  V30 51 1 17 50 CFG=3
M  V30 52 1 51 18
M  V30 53 1 52 20
M  V30 54 1 53 20
M  V30 55 1 54 21
M  V30 56 1 55 21
M  V30 57 1 56 21
M  V30 58 1 57 22
M  V30 59 1 58 22
M  V30 60 1 59 23
M  V30 61 1 60 23
M  V30 62 1 61 23
M  V30 63 1 62 24
M  V30 64 1 63 24
M  V30 65 1 64 26
M  V30 66 1 65 30
M  V30 67 1 66 30
M  V30 68 1 67 31
M  V30 69 1 68 31
M  V30 70 1 32 69 CFG=1
M  V30 71 1 70 34
M  V30 72 1 71 6
M  V30 END BOND
M  V30 END CTAB
M  END
>  <i_epik_Tot_Q>  (1) 
-1

>  <i_epik_Tot_abs_Q>  (1) 
1

>  <i_i_glide_confnum>  (1) 
2835

>  <i_i_glide_lignum>  (1) 
44

>  <i_i_glide_posenum>  (1) 
12

>  <i_i_glide_rotatable_bonds>  (1) 
15

>  <i_lp_mmshare_version>  (1) 
72125

>  <i_m_source_file_index>  (1) 
11

>  <i_f3d_flags>  (1) 
0

>  <num_sample>  (1) 
50

>  <b_lp_Chiralities_Consistent>  (1) 
1

>  <r_epik_Charging_Adjusted_Penalty>  (1) 
1.239197207418439

>  <r_epik_Ionization_Penalty>  (1) 
1.2496715491914541

>  <r_epik_Ionization_Penalty_Charging>  (1) 
1.1069707349969355e-11

>  <r_epik_Ionization_Penalty_Neutral>  (1) 
1.2496715491803843

>  <r_epik_State_Penalty>  (1) 
1.2391972074073692

>  <r_glide_ring_energy>  (1) 
0

>  <r_i_docking_score>  (1) 
-3.2920415812692072

>  <r_i_glide_ecoul>  (1) 
-0.103489810386796

>  <r_i_glide_eff_state_penalty>  (1) 
1.2391972074073692

>  <r_i_glide_einternal>  (1) 
20.706021240973811

>  <r_i_glide_emodel>  (1) 
-37.190197549151463

>  <r_i_glide_emodel_strain>  (1) 
2.9129432321661426

>  <r_i_glide_energy>  (1) 
-40.326301752935393

>  <r_i_glide_erotb>  (1) 
0.82803537691766171

>  <r_i_glide_esite>  (1) 
-0.066824361531966345

>  <r_i_glide_evdw>  (1) 
-40.222811942548596

>  <r_i_glide_gscore>  (1) 
-4.5312387886765766

>  <r_i_glide_gscore_strain>  (1) 
0

>  <r_i_glide_hbond>  (1) 
0

>  <r_i_glide_ligand_efficiency>  (1) 
-0.096824752390270802

>  <r_i_glide_ligand_efficiency_ln>  (1) 
-0.7273043239410043

>  <r_i_glide_ligand_efficiency_sa>  (1) 
-0.31367461049929152

>  <r_i_glide_lipo>  (1) 
-2.026985574690876

>  <r_i_glide_metal>  (1) 
-0

>  <r_i_glide_rewards>  (1) 
-1.2388001606859469

>  <r_lp_Energy>  (1) 
18.399373000000001

>  <s_epik_Chemistry_Notes>  (1) 
This compound has an imine and may undergo hydrolysis. This compound contains an acetal/aminal-like group ( X-CH(R)-Y where X, Y are N, S, or O) that may be acid/base labile, releasing an aldehyde.

>  <s_epik_cmdline>  (1) 
J2VwaWtfcHl0aG9uJywgJy1waHQnLCAnMS4wJywgJy1waCcsICc3LjQnLCAnLXRuJywgJzgnLCAnLW1hJywgJzUwMCcsICctaW1hZScsICc8aW5maWxlLm1hZT4nLCAnLW9tYWUnLCAnPG91dGZpbGUubWFlPic=

>  <s_epik_input>  (1) 
W1NIXVMoPU8pKD1PKVtDQEBdMShbQ0gyXVtDSDNdKVtDQEBdKFtDSDNdKShbQ0BASF0xW09IXSlPW0NASF0oW0NAQEhdMltDSDNdKVtOSF1bQ0BASF0oRilbQ0BIXTJbQ0gyXVxbQ0hdPVtDSF1cQyhbQ0gyXVtOSDJdKT1OXEMoPU5cW0hdKVxbQ0gyXVtDSDJdW0NIMl1bTkhdW0NIMl1bT0hd

>  <s_glide_docking_method>  (1) 
confgen

>  <s_i_glide_gridfile>  (1) 
gpcr_drd2_6luq_protein_autoprepared_prepared

>  <s_lp_Force_Field>  (1) 
S-OPLS

>  <s_lp_Variant>  (1) 
DiffSBDD_10_num_sample_50-24

>  <s_m_source_file>  (1) 
generated__ligand_DiffSBDD_2026-05-06_prepared.sdf

>  <GenAI_Model>  (1) 
DiffSBDD

>  <Protein>  (1) 
generic_title2

$$$$
DiffSBDD_10_num_sample_50
     RDKit          3D

  0  0  0  0  0  0  0  0  0  0999 V3000
M  V30 BEGIN CTAB
M  V30 COUNTS 72 73 0 0 1
M  V30 BEGIN ATOM
M  V30 1 C 5.647035 7.566187 -21.632313 0 CFG=2
M  V30 2 C 6.396326 1.443901 -13.743977 0
M  V30 3 C 7.696322 5.064360 -13.581014 0
M  V30 4 C 6.118035 5.770211 -16.420761 0 CFG=1
M  V30 5 C 6.771558 6.834155 -20.868385 0 CFG=2
M  V30 6 N 8.419481 2.241078 -12.691692 0
M  V30 7 N 6.637123 4.837343 -18.529633 0
M  V30 8 C 5.798228 5.950491 -18.835255 0 CFG=1
M  V30 9 S 5.057950 6.639816 -23.145244 0
M  V30 10 C 7.014009 0.255761 -14.447762 0
M  V30 11 S 4.234782 4.969187 -22.163952 0 CHG=-1
M  V30 12 C 4.001180 9.593390 -21.745859 0
M  V30 13 O 8.634746 -2.278657 -17.491517 0
M  V30 14 O 3.949126 7.351328 -23.797277 0
M  V30 15 C 7.065315 8.043041 -21.755123 0 CFG=2
M  V30 16 C 5.344170 5.542615 -12.616127 0
M  V30 17 C 7.252868 5.123919 -17.252666 0 CFG=2
M  V30 18 N 7.283819 -0.708701 -16.754946 0 CHG=1
M  V30 19 N 6.411758 3.388968 -12.379561 0
M  V30 20 C 6.944063 0.489473 -15.967502 0
M  V30 21 C 4.848568 7.845298 -17.362477 0
M  V30 22 C 4.597684 8.432784 -20.934440 0
M  V30 23 C 7.543979 5.572004 -21.248337 0
M  V30 24 C 6.521102 6.657091 -15.228331 0
M  V30 25 C 6.479309 4.576234 -12.844806 0
M  V30 26 O 7.346399 9.246892 -21.091703 0
M  V30 27 C 7.069438 2.313777 -12.972149 0
M  V30 28 O 6.205053 6.174281 -23.937111 0
M  V30 29 F 7.728007 3.996651 -16.720534 0
M  V30 30 N 5.785147 6.837060 -12.130457 0
M  V30 31 C 8.696211 -1.117575 -16.701362 0
M  V30 32 C 5.171364 6.364049 -17.479696 0 CFG=2
M  V30 33 O 6.540770 6.994559 -19.444078 0
M  V30 34 C 7.706305 5.977481 -14.586012 0
M  V30 35 H 5.337323 1.584638 -13.891414 0
M  V30 36 H 8.625288 4.622756 -13.263417 0
M  V30 37 H 5.611534 4.969297 -15.893884 0
M  V30 38 H 8.954469 1.420659 -12.932953 0
M  V30 39 H 7.330907 4.678476 -19.244613 0
M  V30 40 H 5.013987 5.648317 -19.530261 0
M  V30 41 H 6.442407 -0.629274 -14.163899 0
M  V30 42 H 8.040892 0.088708 -14.121467 0
M  V30 43 H 3.484871 10.288213 -21.082250 0
M  V30 44 H 4.781944 10.151410 -22.263013 0
M  V30 45 H 3.268407 9.262302 -22.479006 0
M  V30 46 H 8.818926 -3.023467 -16.931146 0
M  V30 47 H 7.588341 7.936698 -22.701821 0
M  V30 48 H 4.683408 5.590430 -13.484095 0
M  V30 49 H 4.724223 5.125147 -11.819034 0
M  V30 50 H 8.085341 5.811363 -17.406592 0
M  V30 51 H 7.051169 -0.539126 -17.723045 0
M  V30 52 H 7.592680 1.318190 -16.253500 0
M  V30 53 H 5.929737 0.781655 -16.243979 0
M  V30 54 H 5.752170 8.447751 -17.416490 0
M  V30 55 H 4.161453 8.160666 -18.145744 0
M  V30 56 H 4.364961 8.066779 -16.410957 0
M  V30 57 H 3.834531 7.769793 -20.553725 0
M  V30 58 H 5.054575 8.880380 -20.054943 0
M  V30 59 H 7.949884 5.641996 -22.256166 0
M  V30 60 H 8.393300 5.443674 -20.576769 0
M  V30 61 H 6.908525 4.687595 -21.204048 0
M  V30 62 H 5.670588 6.936706 -14.626830 0
M  V30 63 H 6.906894 7.611959 -15.581065 0
M  V30 64 H 7.121265 9.121951 -20.180733 0
M  V30 65 H 6.275072 7.350317 -12.847887 0
M  V30 66 H 4.993808 7.395404 -11.842896 0
M  V30 67 H 9.034526 -1.355066 -15.692196 0
M  V30 68 H 9.353553 -0.370257 -17.148605 0
M  V30 69 H 4.233398 5.817788 -17.399958 0
M  V30 70 H 8.633945 6.241410 -15.009230 0
M  V30 71 H 8.828792 2.830196 -11.980827 0
M  V30 72 H 6.726308 -1.483913 -16.423243 0
M  V30 END ATOM
M  V30 BEGIN BOND
M  V30 1 1 5 1
M  V30 2 1 8 7
M  V30 3 1 9 1
M  V30 4 1 10 2
M  V30 5 1 11 9
M  V30 6 2 14 9
M  V30 7 1 15 1
M  V30 8 1 15 5
M  V30 9 1 17 4
M  V30 10 1 17 7
M  V30 11 1 20 10
M  V30 12 1 20 18
M  V30 13 1 1 22 CFG=1
M  V30 14 1 22 12
M  V30 15 1 23 5
M  V30 16 1 24 4
M  V30 17 1 25 3
M  V30 18 1 25 16
M  V30 19 2 25 19
M  V30 20 1 26 15
M  V30 21 2 27 2
M  V30 22 1 27 6
M  V30 23 1 27 19
M  V30 24 2 28 9
M  V30 25 1 29 17
M  V30 26 1 30 16
M  V30 27 1 31 13
M  V30 28 1 31 18
M  V30 29 1 32 4
M  V30 30 1 32 8
M  V30 31 1 32 21
M  V30 32 1 5 33 CFG=1
M  V30 33 1 33 8
M  V30 34 2 34 3
M  V30 35 1 34 24
M  V30 36 1 35 2
M  V30 37 1 36 3
M  V30 38 1 4 37 CFG=1
M  V30 39 1 38 6
M  V30 40 1 39 7
M  V30 41 1 8 40 CFG=3
M  V30 42 1 41 10
M  V30 43 1 42 10
M  V30 44 1 43 12
M  V30 45 1 44 12
M  V30 46 1 45 12
M  V30 47 1 46 13
M  V30 48 1 15 47 CFG=3
M  V30 49 1 48 16
M  V30 50 1 49 16
M  V30 51 1 17 50 CFG=3
M  V30 52 1 51 18
M  V30 53 1 52 20
M  V30 54 1 53 20
M  V30 55 1 54 21
M  V30 56 1 55 21
M  V30 57 1 56 21
M  V30 58 1 57 22
M  V30 59 1 58 22
M  V30 60 1 59 23
M  V30 61 1 60 23
M  V30 62 1 61 23
M  V30 63 1 62 24
M  V30 64 1 63 24
M  V30 65 1 64 26
M  V30 66 1 65 30
M  V30 67 1 66 30
M  V30 68 1 67 31
M  V30 69 1 68 31
M  V30 70 1 32 69 CFG=1
M  V30 71 1 70 34
M  V30 72 1 71 6
M  V30 73 1 72 18
M  V30 END BOND
M  V30 END CTAB
M  END
>  <i_epik_Tot_Q>  (1) 
0

>  <i_epik_Tot_abs_Q>  (1) 
2

>  <i_i_glide_confnum>  (1) 
252

>  <i_i_glide_lignum>  (1) 
25

>  <i_i_glide_posenum>  (1) 
261

>  <i_i_glide_rotatable_bonds>  (1) 
15

>  <i_lp_mmshare_version>  (1) 
72125

>  <i_m_source_file_index>  (1) 
11

>  <i_f3d_flags>  (1) 
0

>  <num_sample>  (1) 
50

>  <b_lp_Chiralities_Consistent>  (1) 
1

>  <r_epik_Charging_Adjusted_Penalty>  (1) 
0.33639934582642134

>  <r_epik_Ionization_Penalty>  (1) 
0.23315943830934333

>  <r_epik_Ionization_Penalty_Charging>  (1) 
0.10316865490585193

>  <r_epik_Ionization_Penalty_Neutral>  (1) 
0.12999078340349141

>  <r_epik_State_Penalty>  (1) 
0.23323069092056939

>  <r_glide_ring_energy>  (1) 
0

>  <r_i_docking_score>  (1) 
-3.2810302296791551

>  <r_i_glide_ecoul>  (1) 
-6.2848830297572214

>  <r_i_glide_eff_state_penalty>  (1) 
0.23323069092056939

>  <r_i_glide_einternal>  (1) 
44.088837376589716

>  <r_i_glide_emodel>  (1) 
-9.4477477732382873

>  <r_i_glide_emodel_strain>  (1) 
7.279012742698157

>  <r_i_glide_energy>  (1) 
-29.093745125917046

>  <r_i_glide_erotb>  (1) 
0.82510599487301828

>  <r_i_glide_esite>  (1) 
-0.063436000612392171

>  <r_i_glide_evdw>  (1) 
-22.808862096159825

>  <r_i_glide_gscore>  (1) 
-3.5142609205997246

>  <r_i_glide_gscore_strain>  (1) 
0.81975318567453925

>  <r_i_glide_hbond>  (1) 
-0.074820402238836264

>  <r_i_glide_ligand_efficiency>  (1) 
-0.096500889108210447

>  <r_i_glide_ligand_efficiency_ln>  (1) 
-0.72487160751681146

>  <r_i_glide_ligand_efficiency_sa>  (1) 
-0.31262541918872838

>  <r_i_glide_lipo>  (1) 
-2.153915147436186

>  <r_i_glide_metal>  (1) 
-0

>  <r_i_glide_rewards>  (1) 
-0.78377299158829428

>  <r_lp_Energy>  (1) 
28.206426

>  <s_epik_Chemistry_Notes>  (1) 
This compound has an imine and may undergo hydrolysis. This compound contains an acetal/aminal-like group ( X-CH(R)-Y where X, Y are N, S, or O) that may be acid/base labile, releasing an aldehyde.

>  <s_epik_cmdline>  (1) 
J2VwaWtfcHl0aG9uJywgJy1waHQnLCAnMS4wJywgJy1waCcsICc3LjQnLCAnLXRuJywgJzgnLCAnLW1hJywgJzUwMCcsICctaW1hZScsICc8aW5maWxlLm1hZT4nLCAnLW9tYWUnLCAnPG91dGZpbGUubWFlPic=

>  <s_epik_input>  (1) 
W1NIXVMoPU8pKD1PKVtDQEBdMShbQ0gyXVtDSDNdKVtDQEBdKFtDSDNdKShbQ0BASF0xW09IXSlPW0NASF0oW0NAQEhdMltDSDNdKVtOSF1bQ0BASF0oRilbQ0BIXTJbQ0gyXS9bQ0hdPVtDSF1cQyhbQ0gyXVtOSDJdKT1OL0MoPU4vW0hdKS9bQ0gyXVtDSDJdW0NIMl1bTkhdW0NIMl1bT0hd

>  <s_glide_docking_method>  (1) 
confgen

>  <s_i_glide_gridfile>  (1) 
gpcr_drd2_6luq_protein_autoprepared_prepared

>  <s_lp_Force_Field>  (1) 
S-OPLS

>  <s_lp_Variant>  (1) 
DiffSBDD_10_num_sample_50-5

>  <s_m_source_file>  (1) 
generated__ligand_DiffSBDD_2026-05-06_prepared.sdf

>  <GenAI_Model>  (1) 
DiffSBDD

>  <Protein>  (1) 
generic_title2

$$$$
DiffSBDD_33_num_sample_50
     RDKit          3D

  0  0  0  0  0  0  0  0  0  0999 V3000
M  V30 BEGIN CTAB
M  V30 COUNTS 69 72 0 0 1
M  V30 BEGIN ATOM
M  V30 1 O 15.434744 3.459159 -18.570284 0
M  V30 2 C 12.290036 1.734543 -18.565884 0
M  V30 3 O 14.279013 5.220215 -16.769927 0
M  V30 4 C 12.019644 4.400211 -17.152774 0
M  V30 5 C 7.388065 3.735179 -13.825987 0
M  V30 6 C 8.996317 5.293155 -17.079179 0
M  V30 7 C 7.282429 0.339795 -17.817590 0
M  V30 8 C 16.583086 5.182427 -17.377879 0
M  V30 9 N 11.178935 2.619657 -18.598379 0
M  V30 10 C 7.012388 1.843457 -17.737711 0
M  V30 11 C 7.545637 0.234324 -15.321367 0
M  V30 12 C 9.567639 3.920447 -17.398845 0
M  V30 13 N 13.451496 2.415074 -19.015478 0
M  V30 14 C 6.830210 -0.371919 -16.539941 0 CFG=1
M  V30 15 N 6.721252 6.169301 -11.491667 0 CHG=1
M  V30 16 C 7.450515 1.755008 -15.186776 0
M  V30 17 C 15.565861 4.848537 -16.295077 0 CFG=2
M  V30 18 C 13.483837 4.299151 -17.430022 0
M  V30 19 C 6.111763 6.900253 -12.624187 0
M  V30 20 C 5.727502 5.424530 -10.691672 0
M  V30 21 N 7.262050 2.308773 -14.052466 0
M  V30 22 C 7.633086 2.551914 -16.500897 0 CFG=1
M  V30 23 F 15.686458 3.579940 -15.891667 0
M  V30 24 C 5.301457 -0.419779 -16.363435 0
M  V30 25 C 14.079293 3.409277 -18.311177 0
M  V30 26 O 9.029690 2.786802 -16.691671 0
M  V30 27 C 16.037704 4.735212 -18.726837 0
M  V30 28 C 7.942347 5.393780 -11.852205 0
M  V30 29 C 7.715354 3.938363 -12.336194 0
M  V30 30 C 8.666277 4.633349 -18.396528 0
M  V30 31 C 11.009200 3.660141 -17.714202 0
M  V30 32 F 11.653368 5.363220 -16.291586 0
M  V30 33 H 12.092459 0.879642 -19.212617 0
M  V30 34 H 12.441580 1.354702 -17.553945 0
M  V30 35 H 8.194968 4.168219 -14.418039 0
M  V30 36 H 6.459409 4.238441 -14.093282 0
M  V30 37 H 8.199927 5.384716 -16.347155 0
M  V30 38 H 9.632142 6.169291 -17.162086 0
M  V30 39 H 8.349891 0.173023 -17.969906 0
M  V30 40 H 6.778321 -0.086539 -18.685808 0
M  V30 41 H 16.768134 6.256370 -17.406461 0
M  V30 42 H 17.537898 4.706234 -17.156607 0
M  V30 43 H 10.333511 2.197963 -18.955350 0
M  V30 44 H 5.934217 2.001610 -17.734209 0
M  V30 45 H 7.363028 2.284912 -18.667230 0
M  V30 46 H 8.603448 -0.022012 -15.372398 0
M  V30 47 H 7.156400 -1.408947 -16.631508 0
M  V30 48 H 15.782061 5.447846 -15.411511 0
M  V30 49 H 14.029415 1.880887 -19.647729 0
M  V30 50 H 5.638715 6.221168 -13.332648 0
M  V30 51 H 5.348146 7.590047 -12.261050 0
M  V30 52 H 6.860442 7.486811 -13.157652 0
M  V30 53 H 5.163254 4.714192 -11.296610 0
M  V30 54 H 6.234834 4.882448 -9.891684 0
M  V30 55 H 5.016846 6.116592 -10.238452 0
M  V30 56 H 7.103834 3.496042 -16.393053 0
M  V30 57 H 4.878135 0.569298 -16.199281 0
M  V30 58 H 4.813545 -0.856072 -17.235665 0
M  V30 59 H 5.033432 -1.030663 -15.501152 0
M  V30 60 H 15.329340 5.459307 -19.134660 0
M  V30 61 H 16.849607 4.660450 -19.450580 0
M  V30 62 H 8.537273 5.343265 -10.939173 0
M  V30 63 H 8.557836 5.946059 -12.563873 0
M  V30 64 H 6.967634 3.426164 -11.735161 0
M  V30 65 H 8.642248 3.395844 -12.139618 0
M  V30 66 H 9.139726 5.048930 -19.284003 0
M  V30 67 H 7.616076 4.391080 -18.520705 0
M  V30 68 H 7.034846 6.895236 -10.841382 0
M  V30 69 H 7.175565 -0.232735 -14.407013 0
M  V30 END ATOM
M  V30 BEGIN BOND
M  V30 1 1 9 2
M  V30 2 1 10 7
M  V30 3 1 12 6
M  V30 4 1 13 2
M  V30 5 1 14 7
M  V30 6 1 14 11
M  V30 7 1 16 11
M  V30 8 1 17 3
M  V30 9 1 17 8
M  V30 10 1 18 3
M  V30 11 1 18 4
M  V30 12 1 19 15
M  V30 13 1 20 15
M  V30 14 1 21 5
M  V30 15 2 21 16
M  V30 16 1 22 10
M  V30 17 1 22 16
M  V30 18 1 23 17
M  V30 19 1 24 14
M  V30 20 1 25 1
M  V30 21 1 25 13
M  V30 22 2 25 18
M  V30 23 1 26 12
M  V30 24 1 26 22
M  V30 25 1 27 1
M  V30 26 1 27 8
M  V30 27 1 28 15
M  V30 28 1 29 5
M  V30 29 1 29 28
M  V30 30 1 30 6
M  V30 31 1 30 12
M  V30 32 2 31 4
M  V30 33 1 31 9
M  V30 34 1 31 12
M  V30 35 1 32 4
M  V30 36 1 33 2
M  V30 37 1 34 2
M  V30 38 1 35 5
M  V30 39 1 36 5
M  V30 40 1 37 6
M  V30 41 1 38 6
M  V30 42 1 39 7
M  V30 43 1 40 7
M  V30 44 1 41 8
M  V30 45 1 42 8
M  V30 46 1 43 9
M  V30 47 1 44 10
M  V30 48 1 45 10
M  V30 49 1 46 11
M  V30 50 1 14 47 CFG=3
M  V30 51 1 17 48 CFG=1
M  V30 52 1 49 13
M  V30 53 1 50 19
M  V30 54 1 51 19
M  V30 55 1 52 19
M  V30 56 1 53 20
M  V30 57 1 54 20
M  V30 58 1 55 20
M  V30 59 1 22 56 CFG=1
M  V30 60 1 57 24
M  V30 61 1 58 24
M  V30 62 1 59 24
M  V30 63 1 60 27
M  V30 64 1 61 27
M  V30 65 1 62 28
M  V30 66 1 63 28
M  V30 67 1 64 29
M  V30 68 1 65 29
M  V30 69 1 66 30
M  V30 70 1 67 30
M  V30 71 1 68 15
M  V30 72 1 69 11
M  V30 END BOND
M  V30 END CTAB
M  END
>  <i_epik_Tot_Q>  (1) 
1

>  <i_epik_Tot_abs_Q>  (1) 
1

>  <i_i_glide_confnum>  (1) 
332

>  <i_i_glide_lignum>  (1) 
86

>  <i_i_glide_posenum>  (1) 
226

>  <i_i_glide_rotatable_bonds>  (1) 
7

>  <i_lp_mmshare_version>  (1) 
72125

>  <i_m_source_file_index>  (1) 
34

>  <i_f3d_flags>  (1) 
0

>  <num_sample>  (1) 
50

>  <b_lp_Chiralities_Consistent>  (1) 
1

>  <r_epik_Charging_Adjusted_Penalty>  (1) 
0.41789118993368612

>  <r_epik_Ionization_Penalty>  (1) 
0.0076682513750627552

>  <r_epik_Ionization_Penalty_Charging>  (1) 
0.0072113509810821487

>  <r_epik_Ionization_Penalty_Neutral>  (1) 
0.0004569003939806066

>  <r_epik_State_Penalty>  (1) 
0.41067983895260396

>  <r_glide_ring_energy>  (1) 
1.3428436498976668

>  <r_i_docking_score>  (1) 
-3.2781220565704032

>  <r_i_glide_ecoul>  (1) 
-5.443006591984755

>  <r_i_glide_eff_state_penalty>  (1) 
0.41067983895260396

>  <r_i_glide_einternal>  (1) 
6.0625059857062009

>  <r_i_glide_emodel>  (1) 
-39.35102509158893

>  <r_i_glide_emodel_strain>  (1) 
1.6218449224345761

>  <r_i_glide_energy>  (1) 
-34.340314402999695

>  <r_i_glide_erotb>  (1) 
0.58078846603177925

>  <r_i_glide_esite>  (1) 
-0.10542095148043046

>  <r_i_glide_evdw>  (1) 
-28.897307811014937

>  <r_i_glide_gscore>  (1) 
-3.6888018955230071

>  <r_i_glide_gscore_strain>  (1) 
0

>  <r_i_glide_hbond>  (1) 
-0.20000000000000001

>  <r_i_glide_ligand_efficiency>  (1) 
-0.1024413142678251

>  <r_i_glide_ligand_efficiency_ln>  (1) 
-0.73406088669847969

>  <r_i_glide_ligand_efficiency_sa>  (1) 
-0.32523090006750105

>  <r_i_glide_lipo>  (1) 
-0.95163335143045991

>  <r_i_glide_metal>  (1) 
-0

>  <r_i_glide_rewards>  (1) 
-0.75121967929543532

>  <r_lp_Energy>  (1) 
52.233778000000001

>  <r_lp_tautomer_probability>  (1) 
0.49999519497573586

>  <s_epik_Chemistry_Notes>  (1) 
This compound has an imine and may undergo hydrolysis. This compound contains an acetal/aminal-like group ( X-CH(R)-Y where X, Y are N, S, or O) that may be acid/base labile, releasing an aldehyde.

>  <s_epik_cmdline>  (1) 
J2VwaWtfcHl0aG9uJywgJy1waHQnLCAnMS4wJywgJy1waCcsICc3LjQnLCAnLXRuJywgJzgnLCAnLW1hJywgJzUwMCcsICctaW1hZScsICc8aW5maWxlLm1hZT4nLCAnLW9tYWUnLCAnPG91dGZpbGUubWFlPic=

>  <s_epik_input>  (1) 
TzFbQ0BASF0oRilbQ0gyXVtDSDJdT0MoW0NAQEhdMTIpPU5bQ0gyXVtOSF1DKD1DMkYpQzMoW0NIMl1bQ0gyXTMpT1tDQEBIXShbQ0gyXVtDSDJdW0NAQEhdNFtDSDNdKUMoPVtDSF00KVtOSF1bQ0gyXVtDSDJdW0NIMl1OKFtDSDNdKVtDSDNd

>  <s_glide_docking_method>  (1) 
confgen

>  <s_i_glide_gridfile>  (1) 
gpcr_drd2_6luq_protein_autoprepared_prepared

>  <s_lp_Force_Field>  (1) 
S-OPLS

>  <s_lp_Variant>  (1) 
DiffSBDD_33_num_sample_50-4

>  <s_m_source_file>  (1) 
generated__ligand_DiffSBDD_2026-05-06_prepared.sdf

>  <GenAI_Model>  (1) 
DiffSBDD

>  <Protein>  (1) 
generic_title2

$$$$
DiffSBDD_10_num_sample_50
     RDKit          3D

  0  0  0  0  0  0  0  0  0  0999 V3000
M  V30 BEGIN CTAB
M  V30 COUNTS 73 74 0 0 1
M  V30 BEGIN ATOM
M  V30 1 C 5.805168 7.390043 -21.671203 0 CFG=2
M  V30 2 C 10.685999 6.973479 -11.305419 0
M  V30 3 C 7.409113 6.481066 -13.178402 0
M  V30 4 C 6.004100 5.734194 -16.488294 0 CFG=1
M  V30 5 C 4.819446 7.631114 -20.511870 0 CFG=2
M  V30 6 N 8.635242 6.168157 -10.290099 0
M  V30 7 N 5.619740 4.975468 -18.727637 0
M  V30 8 C 4.831648 6.159959 -18.575316 0 CFG=1
M  V30 9 S 5.773851 8.569284 -23.135699 0
M  V30 10 C 11.093010 7.998866 -10.229396 0
M  V30 11 S 6.454896 10.380928 -22.291609 0 CHG=-1
M  V30 12 C 8.263067 7.469113 -20.950598 0
M  V30 13 O 8.634864 6.217363 -6.845968 0
M  V30 14 O 6.808348 8.134534 -24.082738 0
M  V30 15 C 4.483095 6.645233 -21.628316 0 CFG=2
M  V30 16 C 8.279998 4.260362 -14.224320 0
M  V30 17 C 6.656569 5.056655 -17.718696 0 CFG=2
M  V30 18 N 10.155274 7.179360 -8.073582 0 CHG=1
M  V30 19 N 9.342082 5.266628 -12.291303 0
M  V30 20 C 10.206183 8.306961 -9.018575 0
M  V30 21 C 4.486957 7.902022 -16.734202 0
M  V30 22 C 7.130348 6.632768 -21.546311 0
M  V30 23 C 4.012650 8.897710 -20.308108 0
M  V30 24 C 7.035146 6.569902 -15.729864 0
M  V30 25 C 8.420186 5.351863 -13.177330 0
M  V30 26 O 4.550164 5.266622 -21.330393 0
M  V30 27 C 9.587562 6.180688 -11.277060 0
M  V30 28 O 4.396046 8.797564 -23.601398 0
M  V30 29 F 7.132076 3.842467 -17.443952 0
M  V30 30 N 8.234075 2.966454 -13.512877 0 CHG=1
M  V30 31 C 9.332183 7.431151 -6.885257 0
M  V30 32 C 4.756906 6.438707 -17.062737 0 CFG=2
M  V30 33 O 5.431699 7.211555 -19.274465 0
M  V30 34 C 6.787127 6.982776 -14.282958 0
M  V30 35 H 11.361549 6.889718 -12.147889 0
M  V30 36 H 7.189097 6.901849 -12.209390 0
M  V30 37 H 5.660556 4.975208 -15.790685 0
M  V30 38 H 8.468718 7.010242 -9.741459 0
M  V30 39 H 5.068566 4.152774 -18.521488 0
M  V30 40 H 3.836240 6.025533 -18.992474 0
M  V30 41 H 11.293699 8.956272 -10.691435 0
M  V30 42 H 12.067866 7.673177 -9.864089 0
M  V30 43 H 9.185101 6.890405 -20.899807 0
M  V30 44 H 8.460129 8.364194 -21.540267 0
M  V30 45 H 8.009197 7.769624 -19.936034 0
M  V30 46 H 7.706553 6.432757 -6.962313 0
M  V30 47 H 3.682267 6.878878 -22.325365 0
M  V30 48 H 7.340015 4.293366 -14.750322 0
M  V30 49 H 9.106220 4.293465 -14.935793 0
M  V30 50 H 7.480913 5.648770 -18.121750 0
M  V30 51 H 11.086688 6.925395 -7.780540 0
M  V30 52 H 9.206732 8.618301 -9.330899 0
M  V30 53 H 10.642893 9.154045 -8.492506 0
M  V30 54 H 5.246374 8.565936 -17.146737 0
M  V30 55 H 3.518973 8.169965 -17.153908 0
M  V30 56 H 4.433312 8.091364 -15.665285 0
M  V30 57 H 7.000154 5.756049 -20.915927 0
M  V30 58 H 7.415347 6.246383 -22.525091 0
M  V30 59 H 3.519065 9.208793 -21.228099 0
M  V30 60 H 3.246972 8.740415 -19.549616 0
M  V30 61 H 4.667825 9.702548 -19.978263 0
M  V30 62 H 7.033063 7.520217 -16.247213 0
M  V30 63 H 8.039260 6.170026 -15.867413 0
M  V30 64 H 5.124998 5.168589 -20.578157 0
M  V30 65 H 8.171605 2.201009 -14.167808 0
M  V30 66 H 9.077621 2.876708 -12.960790 0
M  V30 67 H 8.635990 8.263013 -7.008635 0
M  V30 68 H 9.943717 7.590236 -5.996277 0
M  V30 69 H 3.897133 5.876943 -16.695955 0
M  V30 70 H 6.060094 7.769491 -14.146078 0
M  V30 71 H 7.807758 5.604265 -10.418083 0
M  V30 72 H 9.744193 6.394107 -8.564863 0
M  V30 73 H 7.440149 2.951502 -12.890027 0
M  V30 END ATOM
M  V30 BEGIN BOND
M  V30 1 1 5 1
M  V30 2 1 8 7
M  V30 3 1 9 1
M  V30 4 1 10 2
M  V30 5 1 11 9
M  V30 6 2 14 9
M  V30 7 1 15 1
M  V30 8 1 15 5
M  V30 9 1 17 4
M  V30 10 1 17 7
M  V30 11 1 20 10
M  V30 12 1 20 18
M  V30 13 1 1 22 CFG=1
M  V30 14 1 22 12
M  V30 15 1 23 5
M  V30 16 1 24 4
M  V30 17 1 25 3
M  V30 18 1 25 16
M  V30 19 2 25 19
M  V30 20 1 26 15
M  V30 21 2 27 2
M  V30 22 1 27 6
M  V30 23 1 27 19
M  V30 24 2 28 9
M  V30 25 1 29 17
M  V30 26 1 30 16
M  V30 27 1 31 13
M  V30 28 1 31 18
M  V30 29 1 32 4
M  V30 30 1 32 8
M  V30 31 1 32 21
M  V30 32 1 5 33 CFG=1
M  V30 33 1 33 8
M  V30 34 2 34 3
M  V30 35 1 34 24
M  V30 36 1 35 2
M  V30 37 1 36 3
M  V30 38 1 4 37 CFG=1
M  V30 39 1 38 6
M  V30 40 1 39 7
M  V30 41 1 8 40 CFG=3
M  V30 42 1 41 10
M  V30 43 1 42 10
M  V30 44 1 43 12
M  V30 45 1 44 12
M  V30 46 1 45 12
M  V30 47 1 46 13
M  V30 48 1 15 47 CFG=3
M  V30 49 1 48 16
M  V30 50 1 49 16
M  V30 51 1 17 50 CFG=3
M  V30 52 1 51 18
M  V30 53 1 52 20
M  V30 54 1 53 20
M  V30 55 1 54 21
M  V30 56 1 55 21
M  V30 57 1 56 21
M  V30 58 1 57 22
M  V30 59 1 58 22
M  V30 60 1 59 23
M  V30 61 1 60 23
M  V30 62 1 61 23
M  V30 63 1 62 24
M  V30 64 1 63 24
M  V30 65 1 64 26
M  V30 66 1 65 30
M  V30 67 1 66 30
M  V30 68 1 67 31
M  V30 69 1 68 31
M  V30 70 1 32 69 CFG=1
M  V30 71 1 70 34
M  V30 72 1 71 6
M  V30 73 1 72 18
M  V30 74 1 73 30
M  V30 END BOND
M  V30 END CTAB
M  END
>  <i_epik_Tot_Q>  (1) 
1

>  <i_epik_Tot_abs_Q>  (1) 
3

>  <i_i_glide_confnum>  (1) 
4108

>  <i_i_glide_lignum>  (1) 
33

>  <i_i_glide_posenum>  (1) 
20

>  <i_i_glide_rotatable_bonds>  (1) 
15

>  <i_lp_mmshare_version>  (1) 
72125

>  <i_m_source_file_index>  (1) 
11

>  <i_f3d_flags>  (1) 
0

>  <num_sample>  (1) 
50

>  <b_lp_Chiralities_Consistent>  (1) 
1

>  <r_epik_Charging_Adjusted_Penalty>  (1) 
2.168687317063887

>  <r_epik_Ionization_Penalty>  (1) 
1.1047352072338965

>  <r_epik_Ionization_Penalty_Charging>  (1) 
1.0999234457570315

>  <r_epik_Ionization_Penalty_Neutral>  (1) 
0.0048117614768649203

>  <r_epik_State_Penalty>  (1) 
1.0687638713068555

>  <r_glide_ring_energy>  (1) 
0

>  <r_i_docking_score>  (1) 
-3.2658050058915711

>  <r_i_glide_ecoul>  (1) 
-9.6706657817815653

>  <r_i_glide_eff_state_penalty>  (1) 
1.0687638713068555

>  <r_i_glide_einternal>  (1) 
9.2309527613253231

>  <r_i_glide_emodel>  (1) 
-38.584728212237536

>  <r_i_glide_emodel_strain>  (1) 
5.364647317879232

>  <r_i_glide_energy>  (1) 
-33.372664459000752

>  <r_i_glide_erotb>  (1) 
0.82219216958862984

>  <r_i_glide_esite>  (1) 
-0.20311874799763455

>  <r_i_glide_evdw>  (1) 
-23.701998677219187

>  <r_i_glide_gscore>  (1) 
-4.3345688771984268

>  <r_i_glide_gscore_strain>  (1) 
0.341161829469808

>  <r_i_glide_hbond>  (1) 
-0.15247352835799041

>  <r_i_glide_ligand_efficiency>  (1) 
-0.096053088408575626

>  <r_i_glide_ligand_efficiency_ln>  (1) 
-0.7215079285290722

>  <r_i_glide_ligand_efficiency_sa>  (1) 
-0.31117471875757108

>  <r_i_glide_lipo>  (1) 
-1.5707342234726973

>  <r_i_glide_metal>  (1) 
-0

>  <r_i_glide_rewards>  (1) 
-0.93589657530034764

>  <r_lp_Energy>  (1) 
18.368548999999998

>  <s_epik_Chemistry_Notes>  (1) 
This compound has an imine and may undergo hydrolysis. This compound contains an acetal/aminal-like group ( X-CH(R)-Y where X, Y are N, S, or O) that may be acid/base labile, releasing an aldehyde.

>  <s_epik_cmdline>  (1) 
J2VwaWtfcHl0aG9uJywgJy1waHQnLCAnMS4wJywgJy1waCcsICc3LjQnLCAnLXRuJywgJzgnLCAnLW1hJywgJzUwMCcsICctaW1hZScsICc8aW5maWxlLm1hZT4nLCAnLW9tYWUnLCAnPG91dGZpbGUubWFlPic=

>  <s_epik_input>  (1) 
W1NIXVMoPU8pKD1PKVtDQEBdMShbQ0gyXVtDSDNdKVtDQEBdKFtDSDNdKShbQ0BASF0xW09IXSlPW0NASF0oW0NAQEhdMltDSDNdKVtOSF1bQ0BASF0oRilbQ0BIXTJbQ0gyXS9bQ0hdPVtDSF1cQyhbQ0gyXVtOSDJdKT1OL0MoPU4vW0hdKS9bQ0gyXVtDSDJdW0NIMl1bTkhdW0NIMl1bT0hd

>  <s_glide_docking_method>  (1) 
confgen

>  <s_i_glide_gridfile>  (1) 
gpcr_drd2_6luq_protein_autoprepared_prepared

>  <s_lp_Force_Field>  (1) 
S-OPLS

>  <s_lp_Variant>  (1) 
DiffSBDD_10_num_sample_50-13

>  <s_m_source_file>  (1) 
generated__ligand_DiffSBDD_2026-05-06_prepared.sdf

>  <GenAI_Model>  (1) 
DiffSBDD

>  <Protein>  (1) 
generic_title2

$$$$
DiffSBDD_45_num_sample_50
     RDKit          3D

  0  0  0  0  0  0  0  0  0  0999 V3000
M  V30 BEGIN CTAB
M  V30 COUNTS 63 66 0 0 1
M  V30 BEGIN ATOM
M  V30 1 C 14.699980 2.035504 -17.358176 0
M  V30 2 C 15.873685 4.293073 -16.841705 0 CFG=2
M  V30 3 O 17.018686 4.631413 -16.064995 0
M  V30 4 C 8.667837 1.117142 -18.893693 0
M  V30 5 O 8.156818 4.890721 -16.495076 0
M  V30 6 O 6.580681 0.691080 -16.953425 0
M  V30 7 C 8.928703 4.528318 -17.618762 0 CFG=2
M  V30 8 O 8.518698 3.445352 -18.444287 0
M  V30 9 C 5.708349 -0.268415 -19.123924 0 CFG=2
M  V30 10 C 7.016526 2.036251 -17.184188 0
M  V30 11 C 10.425020 4.732536 -17.474414 0 CFG=2
M  V30 12 C 12.827540 3.837553 -17.576336 0 CFG=2
M  V30 13 C 9.167270 -0.727117 -17.232200 0
M  V30 14 C 13.560132 5.203242 -17.605259 0
M  V30 15 C 13.675578 2.741031 -18.262090 0
M  V30 16 C 8.277156 -0.299415 -18.425541 0 CFG=1
M  V30 17 C 7.406599 -1.460585 -20.565855 0
M  V30 18 C 17.853654 5.636328 -16.622037 0
M  V30 19 O 9.601490 5.585654 -18.290907 0
M  V30 20 C 8.422052 2.176093 -17.804264 0 CFG=1
M  V30 21 C 14.764405 5.352594 -16.658976 0
M  V30 22 C 6.164819 -0.992223 -20.377216 0
M  V30 23 C 11.457175 3.953632 -18.273306 0
M  V30 24 C 5.117602 1.089788 -19.533344 0
M  V30 25 C 15.402059 2.923975 -16.321251 0
M  V30 26 C 6.787298 -0.277855 -17.987906 0 CFG=1
M  V30 27 C 8.521395 -1.337510 -19.550652 0
M  V30 28 H 14.201928 1.225629 -16.822922 0
M  V30 29 H 15.443243 1.553611 -17.993327 0
M  V30 30 H 16.169487 4.209198 -17.889196 0
M  V30 31 H 8.098867 1.374298 -19.786437 0
M  V30 32 H 9.714463 1.140937 -19.197738 0
M  V30 33 H 8.589595 4.573099 -15.718092 0
M  V30 34 H 4.863699 -0.845471 -18.743843 0
M  V30 35 H 6.985678 2.548723 -16.223659 0
M  V30 36 H 6.305371 2.569300 -17.807234 0
M  V30 37 H 10.780674 5.211701 -16.563820 0
M  V30 38 H 12.635849 3.541928 -16.543921 0
M  V30 39 H 10.226384 -0.679016 -17.487109 0
M  V30 40 H 9.006951 -0.103434 -16.354293 0
M  V30 41 H 8.954201 -1.750241 -16.918071 0
M  V30 42 H 13.877356 5.424313 -18.625139 0
M  V30 43 H 12.858722 5.998050 -17.351266 0
M  V30 44 H 13.030699 1.962033 -18.670245 0
M  V30 45 H 14.183507 3.163680 -19.129785 0
M  V30 46 H 7.648663 -1.968275 -21.487978 0
M  V30 47 H 18.725052 5.769070 -15.981566 0
M  V30 48 H 18.209697 5.355418 -17.613791 0
M  V30 49 H 17.352310 6.600378 -16.692380 0
M  V30 50 H 9.186429 2.076557 -17.032246 0
M  V30 51 H 14.420276 5.352463 -15.623613 0
M  V30 52 H 15.171406 6.348621 -16.823496 0
M  V30 53 H 5.424704 -1.124927 -21.153134 0
M  V30 54 H 11.052595 2.959597 -18.452388 0
M  V30 55 H 11.572276 4.413112 -19.255975 0
M  V30 56 H 4.344906 0.965417 -20.291716 0
M  V30 57 H 4.634859 1.577360 -18.691745 0
M  V30 58 H 5.868970 1.761896 -19.945365 0
M  V30 59 H 14.721009 3.083288 -15.491716 0
M  V30 60 H 16.234087 2.365405 -15.891799 0
M  V30 61 H 6.625242 -1.232641 -17.484058 0
M  V30 62 H 9.454364 -1.120570 -20.071817 0
M  V30 63 H 8.634265 -2.335304 -19.127357 0
M  V30 END ATOM
M  V30 BEGIN BOND
M  V30 1 1 3 2
M  V30 2 1 7 5 CFG=1
M  V30 3 1 8 7
M  V30 4 1 10 6
M  V30 5 1 11 7
M  V30 6 1 14 12
M  V30 7 1 15 1
M  V30 8 1 15 12
M  V30 9 1 16 4
M  V30 10 1 16 13 CFG=1
M  V30 11 1 18 3
M  V30 12 1 19 7
M  V30 13 1 19 11
M  V30 14 1 20 4
M  V30 15 1 20 8
M  V30 16 1 20 10
M  V30 17 1 21 2
M  V30 18 1 21 14
M  V30 19 1 22 9
M  V30 20 2 22 17
M  V30 21 1 23 11
M  V30 22 1 23 12
M  V30 23 1 24 9
M  V30 24 1 25 1
M  V30 25 1 25 2
M  V30 26 1 26 6
M  V30 27 1 26 9
M  V30 28 1 26 16
M  V30 29 1 27 16
M  V30 30 1 27 17
M  V30 31 1 28 1
M  V30 32 1 29 1
M  V30 33 1 2 30 CFG=3
M  V30 34 1 31 4
M  V30 35 1 32 4
M  V30 36 1 33 5
M  V30 37 1 9 34 CFG=1
M  V30 38 1 35 10
M  V30 39 1 36 10
M  V30 40 1 11 37 CFG=1
M  V30 41 1 12 38 CFG=1
M  V30 42 1 39 13
M  V30 43 1 40 13
M  V30 44 1 41 13
M  V30 45 1 42 14
M  V30 46 1 43 14
M  V30 47 1 44 15
M  V30 48 1 45 15
M  V30 49 1 46 17
M  V30 50 1 47 18
M  V30 51 1 48 18
M  V30 52 1 49 18
M  V30 53 1 20 50 CFG=1
M  V30 54 1 51 21
M  V30 55 1 52 21
M  V30 56 1 53 22
M  V30 57 1 54 23
M  V30 58 1 55 23
M  V30 59 1 56 24
M  V30 60 1 57 24
M  V30 61 1 58 24
M  V30 62 1 59 25
M  V30 63 1 60 25
M  V30 64 1 26 61 CFG=1
M  V30 65 1 62 27
M  V30 66 1 63 27
M  V30 END BOND
M  V30 END CTAB
M  END
>  <i_epik_Tot_Q>  (1) 
0

>  <i_epik_Tot_abs_Q>  (1) 
0

>  <i_i_glide_confnum>  (1) 
233

>  <i_i_glide_lignum>  (1) 
112

>  <i_i_glide_posenum>  (1) 
216

>  <i_i_glide_rotatable_bonds>  (1) 
6

>  <i_lp_mmshare_version>  (1) 
72125

>  <i_m_source_file_index>  (1) 
46

>  <i_f3d_flags>  (1) 
0

>  <num_sample>  (1) 
50

>  <b_lp_Chiralities_Consistent>  (1) 
1

>  <r_epik_Charging_Adjusted_Penalty>  (1) 
0

>  <r_epik_Ionization_Penalty>  (1) 
0.00010055018107768494

>  <r_epik_Ionization_Penalty_Charging>  (1) 
0

>  <r_epik_Ionization_Penalty_Neutral>  (1) 
0.00010055018107768494

>  <r_epik_State_Penalty>  (1) 
-0

>  <r_glide_ring_energy>  (1) 
0.60680059682799004

>  <r_i_docking_score>  (1) 
-3.2654929329402624

>  <r_i_glide_ecoul>  (1) 
-2.5442851381415568

>  <r_i_glide_eff_state_penalty>  (1) 
-0

>  <r_i_glide_einternal>  (1) 
6.6411914527217419

>  <r_i_glide_emodel>  (1) 
-24.551154645645511

>  <r_i_glide_emodel_strain>  (1) 
0

>  <r_i_glide_energy>  (1) 
-24.899763537399441

>  <r_i_glide_erotb>  (1) 
0.53594258102178693

>  <r_i_glide_esite>  (1) 
0

>  <r_i_glide_evdw>  (1) 
-22.355478399257883

>  <r_i_glide_gscore>  (1) 
-3.2654929329402624

>  <r_i_glide_gscore_strain>  (1) 
0

>  <r_i_glide_hbond>  (1) 
-0.32000000000000001

>  <r_i_glide_ligand_efficiency>  (1) 
-0.1209441827014912

>  <r_i_glide_ligand_efficiency_ln>  (1) 
-0.76015291892999259

>  <r_i_glide_ligand_efficiency_sa>  (1) 
-0.36283254810447368

>  <r_i_glide_lipo>  (1) 
-1.0895695371325917

>  <r_i_glide_metal>  (1) 
-0

>  <r_i_glide_rewards>  (1) 
-0.89244928614532992

>  <r_lp_Energy>  (1) 
38.981271

>  <r_lp_tautomer_probability>  (1) 
1

>  <s_epik_cmdline>  (1) 
J2VwaWtfcHl0aG9uJywgJy1waHQnLCAnMS4wJywgJy1waCcsICc3LjQnLCAnLXRuJywgJzgnLCAnLW1hJywgJzUwMCcsICctaW1hZScsICc8aW5maWxlLm1hZT4nLCAnLW9tYWUnLCAnPG91dGZpbGUubWFlPic=

>  <s_epik_input>  (1) 
W0NIM11PW0NAQEhdMVtDSDJdW0NIMl1bQ0BIXShbQ0gyXVtDSDJdW0NIMl0xKVtDSDJdW0NIXShPMilbQ0BdMihbT0hdKU9bQ0BIXShbQ0gyXTMpW0NIMl1PW0NASF0oW0NAXTM0W0NIM10pW0NAQEhdKFtDSDNdKVtDSF09W0NIXVtDSDJdNA==

>  <s_glide_docking_method>  (1) 
confgen

>  <s_i_glide_gridfile>  (1) 
gpcr_drd2_6luq_protein_autoprepared_prepared

>  <s_lp_Force_Field>  (1) 
S-OPLS

>  <s_lp_Variant>  (1) 
DiffSBDD_45_num_sample_50-1

>  <s_m_source_file>  (1) 
generated__ligand_DiffSBDD_2026-05-06_prepared.sdf

>  <GenAI_Model>  (1) 
DiffSBDD

>  <Protein>  (1) 
generic_title2

$$$$
DiffSBDD_20_num_sample_50
     RDKit          3D

  0  0  0  0  0  0  0  0  0  0999 V3000
M  V30 BEGIN CTAB
M  V30 COUNTS 65 70 0 0 1
M  V30 BEGIN ATOM
M  V30 1 F 13.464331 9.173180 -7.092818 0
M  V30 2 F 13.781100 7.769072 -8.725369 0
M  V30 3 F 10.812983 8.865220 -7.189743 0
M  V30 4 C 6.833175 4.496279 -14.073625 0 CFG=1
M  V30 5 C 7.948782 4.719359 -20.030430 0
M  V30 6 C 7.673842 4.810094 -11.175758 0
M  V30 7 C 6.933917 7.703687 -21.189364 0
M  V30 8 C 7.092926 4.323693 -15.526827 0 CFG=1
M  V30 9 N 9.914647 6.500288 -8.834060 0
M  V30 10 C 8.371180 4.969959 -8.542179 0
M  V30 11 C 9.446053 7.253225 -21.112001 0
M  V30 12 C 7.367799 5.484314 -16.470348 0
M  V30 13 C 6.580723 8.956762 -21.519251 0
M  V30 14 N 7.103562 5.886258 -11.974599 0
M  V30 15 C 8.448236 5.320235 -10.000856 0
M  V30 16 C 5.732229 4.008712 -13.206860 0
M  V30 17 F 11.833934 6.978723 -6.879996 0
M  V30 18 C 10.946156 7.769384 -10.217293 0
M  V30 19 C 6.279064 6.718029 -20.270963 0 CFG=2
M  V30 20 C 8.154241 3.955220 -14.432078 0
M  V30 21 C 8.078845 6.844258 -21.666450 0 CFG=1
M  V30 22 C 9.435164 6.244590 -9.902573 0
M  V30 23 C 6.516734 6.969188 -18.792734 0
M  V30 24 C 11.576925 7.938655 -7.769320 0
M  V30 25 C 9.950126 6.963374 -11.039537 0
M  V30 26 C 6.272517 5.479982 -13.107348 0 CFG=2
M  V30 27 N 10.826175 7.384421 -8.892678 0
M  V30 28 C 7.255061 5.726746 -20.956324 0 CFG=1
M  V30 29 C 9.346690 5.774940 -7.846933 0
M  V30 30 S 6.234854 5.422862 -17.891650 0 CHG=1
M  V30 31 C 6.980951 4.149174 -18.977907 0
M  V30 32 C 12.908625 8.598664 -8.160384 0
M  V30 33 C 10.008214 8.521626 -21.753393 0
M  V30 34 H 8.365992 3.902802 -20.621040 0
M  V30 35 H 8.796324 5.172046 -19.516067 0
M  V30 36 H 6.876749 4.192308 -10.764112 0
M  V30 37 H 8.326818 4.171812 -11.769247 0
M  V30 38 H 6.637504 3.455662 -15.996148 0
M  V30 39 H 7.709512 4.253788 -8.078609 0
M  V30 40 H 9.408457 7.385296 -20.031263 0
M  V30 41 H 10.158610 6.447438 -21.284821 0
M  V30 42 H 8.401304 5.449050 -16.815496 0
M  V30 43 H 7.225827 6.419125 -15.928668 0
M  V30 44 H 5.704772 9.418875 -21.088584 0
M  V30 45 H 7.161643 9.532871 -22.225997 0
M  V30 46 H 6.629619 6.533850 -11.350828 0
M  V30 47 H 4.744069 3.887859 -13.640369 0
M  V30 48 H 5.995763 3.253515 -12.471161 0
M  V30 49 H 11.660859 8.527900 -10.501456 0
M  V30 50 H 5.241626 6.468682 -20.496645 0
M  V30 51 H 8.318842 2.905221 -14.201818 0
M  V30 52 H 9.015258 4.609900 -14.313596 0
M  V30 53 H 8.113689 6.662852 -22.742079 0
M  V30 54 H 5.832476 7.728276 -18.409032 0
M  V30 55 H 7.533271 7.327466 -18.617215 0
M  V30 56 H 9.710941 6.943256 -12.095069 0
M  V30 57 H 5.638203 6.240375 -13.559494 0
M  V30 58 H 6.686813 5.184833 -21.717383 0
M  V30 59 H 9.646521 5.873996 -6.815041 0
M  V30 60 H 6.159229 3.656369 -19.498789 0
M  V30 61 H 7.464976 3.383065 -18.371027 0
M  V30 62 H 12.745303 9.369248 -8.898638 0
M  V30 63 H 11.007818 8.740482 -21.380079 0
M  V30 64 H 10.066077 8.432900 -22.839693 0
M  V30 65 H 9.373512 9.369258 -21.514805 0
M  V30 END ATOM
M  V30 BEGIN BOND
M  V30 1 1 8 4
M  V30 2 1 12 8
M  V30 3 2 13 7
M  V30 4 1 14 6
M  V30 5 1 15 6
M  V30 6 1 15 10
M  V30 7 1 4 16 CFG=1
M  V30 8 1 19 7
M  V30 9 1 20 4
M  V30 10 1 20 8
M  V30 11 1 21 7
M  V30 12 1 21 11
M  V30 13 1 22 9
M  V30 14 2 22 15
M  V30 15 1 23 19
M  V30 16 1 24 3
M  V30 17 1 24 17
M  V30 18 2 25 18
M  V30 19 1 25 22
M  V30 20 1 26 4
M  V30 21 1 26 14
M  V30 22 1 26 16
M  V30 23 1 27 9
M  V30 24 1 27 18
M  V30 25 1 27 24
M  V30 26 1 28 5
M  V30 27 1 28 19
M  V30 28 1 28 21
M  V30 29 1 29 9
M  V30 30 2 29 10
M  V30 31 1 30 12 CFG=1
M  V30 32 1 30 23
M  V30 33 1 31 5
M  V30 34 1 31 30
M  V30 35 1 32 1
M  V30 36 1 32 2
M  V30 37 1 32 24
M  V30 38 1 33 11
M  V30 39 1 34 5
M  V30 40 1 35 5
M  V30 41 1 36 6
M  V30 42 1 37 6
M  V30 43 1 8 38 CFG=3
M  V30 44 1 39 10
M  V30 45 1 40 11
M  V30 46 1 41 11
M  V30 47 1 42 12
M  V30 48 1 43 12
M  V30 49 1 44 13
M  V30 50 1 45 13
M  V30 51 1 46 14
M  V30 52 1 47 16
M  V30 53 1 48 16
M  V30 54 1 49 18
M  V30 55 1 19 50 CFG=1
M  V30 56 1 51 20
M  V30 57 1 52 20
M  V30 58 1 21 53 CFG=3
M  V30 59 1 54 23
M  V30 60 1 55 23
M  V30 61 1 56 25
M  V30 62 1 26 57 CFG=3
M  V30 63 1 28 58 CFG=3
M  V30 64 1 59 29
M  V30 65 1 60 31
M  V30 66 1 61 31
M  V30 67 1 62 32
M  V30 68 1 63 33
M  V30 69 1 64 33
M  V30 70 1 65 33
M  V30 END BOND
M  V30 END CTAB
M  END
>  <i_epik_Tot_Q>  (1) 
1

>  <i_epik_Tot_abs_Q>  (1) 
1

>  <i_i_glide_confnum>  (1) 
83

>  <i_i_glide_lignum>  (1) 
58

>  <i_i_glide_posenum>  (1) 
382

>  <i_i_glide_rotatable_bonds>  (1) 
8

>  <i_lp_mmshare_version>  (1) 
72125

>  <i_m_source_file_index>  (1) 
21

>  <i_f3d_flags>  (1) 
0

>  <num_sample>  (1) 
50

>  <b_lp_Chiralities_Consistent>  (1) 
1

>  <r_epik_Charging_Adjusted_Penalty>  (1) 
0.77841525475286655

>  <r_epik_Ionization_Penalty>  (1) 
0.77841525475286644

>  <r_epik_Ionization_Penalty_Charging>  (1) 
0

>  <r_epik_Ionization_Penalty_Neutral>  (1) 
0.77841525475286644

>  <r_epik_State_Penalty>  (1) 
0.77841525475286655

>  <r_glide_ring_energy>  (1) 
0

>  <r_i_docking_score>  (1) 
-3.2647786713151286

>  <r_i_glide_ecoul>  (1) 
-1.8375079217628683

>  <r_i_glide_eff_state_penalty>  (1) 
0.77841525475286655

>  <r_i_glide_einternal>  (1) 
5.0224300697764308

>  <r_i_glide_emodel>  (1) 
-39.560842932236547

>  <r_i_glide_emodel_strain>  (1) 
0.11224844056931715

>  <r_i_glide_energy>  (1) 
-33.068585962494609

>  <r_i_glide_erotb>  (1) 
0.52280608296046926

>  <r_i_glide_esite>  (1) 
-0.070793609157762186

>  <r_i_glide_evdw>  (1) 
-31.231078040731742

>  <r_i_glide_gscore>  (1) 
-4.0431939260679952

>  <r_i_glide_gscore_strain>  (1) 
0

>  <r_i_glide_hbond>  (1) 
-0.034737202056075549

>  <r_i_glide_ligand_efficiency>  (1) 
-0.098932687009549353

>  <r_i_glide_ligand_efficiency_ln>  (1) 
-0.72606987238121357

>  <r_i_glide_ligand_efficiency_sa>  (1) 
-0.31732998994186168

>  <r_i_glide_lipo>  (1) 
-1.7398421107265694

>  <r_i_glide_metal>  (1) 
-0

>  <r_i_glide_rewards>  (1) 
-0.88344699678703964

>  <r_lp_Energy>  (1) 
9.9394679999999997

>  <s_epik_cmdline>  (1) 
J2VwaWtfcHl0aG9uJywgJy1waHQnLCAnMS4wJywgJy1waCcsICc3LjQnLCAnLXRuJywgJzgnLCAnLW1hJywgJzUwMCcsICctaW1hZScsICc8aW5maWxlLm1hZT4nLCAnLW9tYWUnLCAnPG91dGZpbGUubWFlPic=

>  <s_epik_input>  (1) 
RltDSF0oRilDKEYpKEYpbjFbY0hdW2NIXWMobjEyKWMoW2NIXVtjSF0yKVtDSDJdW05IXVtDQEBIXTNbQ0gyXVtDQF0zNFtDQEhdKFtDSDJdNClbQ0gyXVtTK10oW0NIMl01KVtDSDJdW0NIMl1bQ0BASF0oW0NAQEhdNTYpW0NAQEhdKEM2PVtDSDJdKVtDSDJdW0NIM10=

>  <s_glide_docking_method>  (1) 
confgen

>  <s_i_glide_gridfile>  (1) 
gpcr_drd2_6luq_protein_autoprepared_prepared

>  <s_lp_Force_Field>  (1) 
S-OPLS

>  <s_lp_Variant>  (1) 
DiffSBDD_20_num_sample_50-2

>  <s_m_source_file>  (1) 
generated__ligand_DiffSBDD_2026-05-06_prepared.sdf

>  <GenAI_Model>  (1) 
DiffSBDD

>  <Protein>  (1) 
generic_title2

$$$$
DiffSBDD_41_num_sample_50
     RDKit          3D

  0  0  0  0  0  0  0  0  0  0999 V3000
M  V30 BEGIN CTAB
M  V30 COUNTS 105 110 0 0 1
M  V30 BEGIN ATOM
M  V30 1 C 5.820456 5.056851 -12.127643 0
M  V30 2 C 7.329564 4.181718 -16.829544 0
M  V30 3 C 8.358634 4.402125 -15.698558 0
M  V30 4 C 8.923324 4.512889 -10.960640 0
M  V30 5 C 6.190404 6.075499 -12.898717 0
M  V30 6 O 6.938924 3.336863 -19.039870 0
M  V30 7 C 9.062704 -1.052798 -20.971019 0
M  V30 8 N 7.290689 -1.062200 -17.646849 0
M  V30 9 O 6.561681 -5.399298 -17.460750 0
M  V30 10 C 7.096085 0.739713 -15.575602 0 CFG=2
M  V30 11 C 8.535970 5.252117 -9.652385 0
M  V30 12 O 8.115690 1.401762 -14.828169 0
M  V30 13 C 9.010844 -1.030699 -16.076430 0
M  V30 14 C 5.525147 -4.355333 -19.473562 0 CFG=1
M  V30 15 C 4.231318 -0.630866 -17.239023 0
M  V30 16 C 7.232577 -5.023339 -19.894074 0 CFG=2
M  V30 17 C 7.701375 2.011349 -13.602481 0
M  V30 18 C 6.971496 3.382303 -13.739123 0 CFG=1
M  V30 19 C 6.006530 -4.930660 -20.821638 0
M  V30 20 C 6.020617 3.616123 -12.522006 0
M  V30 21 C 7.001973 -6.587573 -16.838272 0
M  V30 22 C 9.428219 1.038232 -19.464779 0
M  V30 23 O 8.456802 -1.876178 -19.978870 0
M  V30 24 C 8.607802 -5.612546 -20.192115 0
M  V30 25 C 7.768380 3.540174 -18.151671 0
M  V30 26 C 5.202504 0.206356 -18.066251 0
M  V30 27 N 6.181659 -1.308367 -19.699051 0 CHG=1
M  V30 28 N 9.063572 3.209617 -18.277634 0
M  V30 29 C 8.851662 0.463065 -20.775224 0
M  V30 30 C 6.853309 5.882133 -14.234469 0 CFG=2
M  V30 31 S 3.860706 -3.724014 -19.060459 0
M  V30 32 C 7.817328 4.639180 -14.233542 0 CFG=2
M  V30 33 O 7.434897 7.087948 -14.638765 0
M  V30 34 C 9.470489 6.439575 -9.328122 0
M  V30 35 F 8.239930 -5.923960 -22.511257 0
M  V30 36 C 6.685829 -0.613128 -15.061554 0
M  V30 37 C 6.258745 -0.743146 -18.473451 0
M  V30 38 C 7.143709 -2.302921 -20.202688 0 CFG=2
M  V30 39 C 9.709910 7.250466 -10.582985 0
M  V30 40 C 9.539144 6.750649 -11.811939 0
M  V30 41 C 9.079499 -5.372412 -21.636317 0
M  V30 42 C 7.601758 -0.529695 -16.283128 0 CFG=2
M  V30 43 F 9.199876 -4.071594 -21.892370 0
M  V30 44 N 9.136248 5.448566 -12.066286 0
M  V30 45 C 9.149866 4.879069 -13.419463 0
M  V30 46 C 6.236379 -5.565255 -18.838677 0 CFG=1
M  V30 47 C 9.592175 2.575077 -19.487122 0
M  V30 48 C 6.883804 -3.597947 -19.395550 0 CFG=1
M  V30 49 H 5.343347 5.243523 -11.175852 0
M  V30 50 H 6.773386 5.095098 -17.042399 0
M  V30 51 H 6.634841 3.445927 -16.481540 0
M  V30 52 H 9.034662 3.553578 -15.679438 0
M  V30 53 H 8.971277 5.252990 -15.999623 0
M  V30 54 H 8.178879 3.771528 -11.210658 0
M  V30 55 H 9.834262 3.950397 -10.797918 0
M  V30 56 H 6.018705 7.092633 -12.573138 0
M  V30 57 H 10.133195 -1.258236 -20.930917 0
M  V30 58 H 8.747442 -1.354410 -21.971066 0
M  V30 59 H 7.957302 -1.735409 -18.002015 0
M  V30 60 H 6.270376 1.381217 -15.833369 0
M  V30 61 H 8.503199 4.569471 -8.804711 0
M  V30 62 H 7.521958 5.637103 -9.764986 0
M  V30 63 H 9.242081 -1.030716 -15.010893 0
M  V30 64 H 9.102392 -2.072090 -16.392192 0
M  V30 65 H 9.705847 -0.450620 -16.691665 0
M  V30 66 H 3.434802 -0.963356 -17.891389 0
M  V30 67 H 4.692898 -1.557122 -16.899629 0
M  V30 68 H 3.820540 -0.116723 -16.371279 0
M  V30 69 H 8.577004 2.117205 -12.963967 0
M  V30 70 H 7.059645 1.303588 -13.076019 0
M  V30 71 H 6.234907 3.218655 -14.513355 0
M  V30 72 H 5.563739 -5.881915 -21.130280 0
M  V30 73 H 6.066075 -4.244586 -21.665379 0
M  V30 74 H 6.266684 3.023675 -11.644253 0
M  V30 75 H 5.034926 3.286979 -12.824632 0
M  V30 76 H 7.329610 -6.367644 -15.822091 0
M  V30 77 H 6.195407 -7.318718 -16.785774 0
M  V30 78 H 7.834907 -7.025735 -17.381288 0
M  V30 79 H 8.780805 0.750257 -18.642835 0
M  V30 80 H 10.396147 0.583954 -19.249766 0
M  V30 81 H 9.334261 -5.196587 -19.494082 0
M  V30 82 H 8.593949 -6.684882 -19.995494 0
M  V30 83 H 6.963134 -2.421814 -21.270341 0
M  V30 84 H 5.583929 1.117169 -17.637184 0
M  V30 85 H 9.700261 3.397758 -17.518537 0
M  V30 86 H 9.335003 0.962601 -21.615748 0
M  V30 87 H 7.793195 0.712871 -20.849668 0
M  V30 88 H 6.033631 5.700503 -14.929754 0
M  V30 89 H 3.210098 -4.881760 -19.210132 0
M  V30 90 H 8.073597 7.333158 -13.986206 0
M  V30 91 H 10.429996 6.085590 -8.952569 0
M  V30 92 H 9.034909 7.069005 -8.552230 0
M  V30 93 H 7.106696 -0.901144 -14.101293 0
M  V30 94 H 5.651964 -0.904146 -15.162741 0
M  V30 95 H 4.676799 0.561956 -18.953193 0
M  V30 96 H 10.033920 8.272594 -10.453539 0
M  V30 97 H 9.717670 7.337488 -12.693478 0
M  V30 98 H 10.054255 -5.824366 -21.821984 0
M  V30 99 H 9.708363 3.948632 -13.361951 0
M  V30 100 H 9.798307 5.531853 -14.003801 0
M  V30 101 H 5.766821 -6.531188 -19.052936 0
M  V30 102 H 10.649028 2.829013 -19.576559 0
M  V30 103 H 9.112753 3.003810 -20.369000 0
M  V30 104 H 7.242773 -3.453559 -18.376837 0
M  V30 105 H 5.431282 -0.999713 -20.303687 0
M  V30 END ATOM
M  V30 BEGIN BOND
M  V30 1 1 3 2
M  V30 2 2 5 1
M  V30 3 1 11 4
M  V30 4 1 12 10
M  V30 5 1 17 12
M  V30 6 1 18 17
M  V30 7 1 19 14
M  V30 8 1 19 16
M  V30 9 1 20 1
M  V30 10 1 20 18
M  V30 11 1 21 9
M  V30 12 1 23 7
M  V30 13 1 16 24 CFG=3
M  V30 14 1 25 2
M  V30 15 2 25 6
M  V30 16 1 26 15
M  V30 17 1 28 25
M  V30 18 1 29 7
M  V30 19 1 29 22
M  V30 20 1 30 5
M  V30 21 1 14 31 CFG=3
M  V30 22 1 32 3
M  V30 23 1 32 18
M  V30 24 1 32 30
M  V30 25 1 33 30
M  V30 26 1 34 11
M  V30 27 1 36 10
M  V30 28 1 37 8
M  V30 29 1 37 26
M  V30 30 2 37 27
M  V30 31 1 38 23
M  V30 32 1 38 27
M  V30 33 1 39 34
M  V30 34 2 40 39
M  V30 35 1 41 24
M  V30 36 1 41 35
M  V30 37 1 42 8
M  V30 38 1 42 10
M  V30 39 1 42 13 CFG=1
M  V30 40 1 42 36
M  V30 41 1 43 41
M  V30 42 1 44 4
M  V30 43 1 44 40
M  V30 44 1 32 45 CFG=1
M  V30 45 1 45 44
M  V30 46 1 46 9
M  V30 47 1 46 14
M  V30 48 1 46 16
M  V30 49 1 47 22
M  V30 50 1 47 28
M  V30 51 1 48 14
M  V30 52 1 48 16
M  V30 53 1 48 38
M  V30 54 1 49 1
M  V30 55 1 50 2
M  V30 56 1 51 2
M  V30 57 1 52 3
M  V30 58 1 53 3
M  V30 59 1 54 4
M  V30 60 1 55 4
M  V30 61 1 56 5
M  V30 62 1 57 7
M  V30 63 1 58 7
M  V30 64 1 59 8
M  V30 65 1 10 60 CFG=3
M  V30 66 1 61 11
M  V30 67 1 62 11
M  V30 68 1 63 13
M  V30 69 1 64 13
M  V30 70 1 65 13
M  V30 71 1 66 15
M  V30 72 1 67 15
M  V30 73 1 68 15
M  V30 74 1 69 17
M  V30 75 1 70 17
M  V30 76 1 18 71 CFG=3
M  V30 77 1 72 19
M  V30 78 1 73 19
M  V30 79 1 74 20
M  V30 80 1 75 20
M  V30 81 1 76 21
M  V30 82 1 77 21
M  V30 83 1 78 21
M  V30 84 1 79 22
M  V30 85 1 80 22
M  V30 86 1 81 24
M  V30 87 1 82 24
M  V30 88 1 38 83 CFG=3
M  V30 89 1 84 26
M  V30 90 1 85 28
M  V30 91 1 86 29
M  V30 92 1 87 29
M  V30 93 1 30 88 CFG=3
M  V30 94 1 89 31
M  V30 95 1 90 33
M  V30 96 1 91 34
M  V30 97 1 92 34
M  V30 98 1 93 36
M  V30 99 1 94 36
M  V30 100 1 95 26
M  V30 101 1 96 39
M  V30 102 1 97 40
M  V30 103 1 98 41
M  V30 104 1 99 45
M  V30 105 1 100 45
M  V30 106 1 46 101 CFG=3
M  V30 107 1 102 47
M  V30 108 1 103 47
M  V30 109 1 48 104 CFG=1
M  V30 110 1 105 27
M  V30 END BOND
M  V30 END CTAB
M  END
>  <i_epik_Tot_Q>  (1) 
1

>  <i_epik_Tot_abs_Q>  (1) 
1

>  <i_i_glide_confnum>  (1) 
36

>  <i_i_glide_lignum>  (1) 
102

>  <i_i_glide_posenum>  (1) 
331

>  <i_i_glide_rotatable_bonds>  (1) 
9

>  <i_lp_mmshare_version>  (1) 
72125

>  <i_m_source_file_index>  (1) 
42

>  <i_f3d_flags>  (1) 
0

>  <num_sample>  (1) 
50

>  <b_lp_Chiralities_Consistent>  (1) 
1

>  <r_epik_Charging_Adjusted_Penalty>  (1) 
0.076842420233623365

>  <r_epik_Ionization_Penalty>  (1) 
0.078794888684849976

>  <r_epik_Ionization_Penalty_Charging>  (1) 
0.00072930087509115145

>  <r_epik_Ionization_Penalty_Neutral>  (1) 
0.078065587809758821

>  <r_epik_State_Penalty>  (1) 
0.076113119358532211

>  <r_glide_ring_energy>  (1) 
0.0044804914047799791

>  <r_i_docking_score>  (1) 
-3.2536502164095475

>  <r_i_glide_ecoul>  (1) 
-1.4448320143729307

>  <r_i_glide_eff_state_penalty>  (1) 
0.076113119358532211

>  <r_i_glide_einternal>  (1) 
13.730389374501337

>  <r_i_glide_emodel>  (1) 
-26.27986006121332

>  <r_i_glide_emodel_strain>  (1) 
7.459942062381927

>  <r_i_glide_energy>  (1) 
-35.851803864610282

>  <r_i_glide_erotb>  (1) 
0.0035911919815773572

>  <r_i_glide_esite>  (1) 
-0.024665775794192903

>  <r_i_glide_evdw>  (1) 
-34.406971850237355

>  <r_i_glide_gscore>  (1) 
-3.3297633357680798

>  <r_i_glide_gscore_strain>  (1) 
0.86498551559548176

>  <r_i_glide_hbond>  (1) 
0

>  <r_i_glide_ligand_efficiency>  (1) 
-0.067784379508532236

>  <r_i_glide_ligand_efficiency_ln>  (1) 
-0.66793593800045925

>  <r_i_glide_ligand_efficiency_sa>  (1) 
-0.24634478375460572

>  <r_i_glide_lipo>  (1) 
-1.6184983192599476

>  <r_i_glide_metal>  (1) 
-0

>  <r_i_glide_rewards>  (1) 
-0.61810255362319144

>  <r_lp_Energy>  (1) 
121.88109999999999

>  <s_epik_Chemistry_Notes>  (1) 
This compound has an imine and may undergo hydrolysis. This compound contains an acetal/aminal-like group ( X-CH(R)-Y where X, Y are N, S, or O) that may be acid/base labile, releasing an aldehyde.

>  <s_epik_cmdline>  (1) 
J2VwaWtfcHl0aG9uJywgJy1waHQnLCAnMS4wJywgJy1waCcsICc3LjQnLCAnLXRuJywgJzgnLCAnLW1hJywgJzUwMCcsICctaW1hZScsICc8aW5maWxlLm1hZT4nLCAnLW9tYWUnLCAnPG91dGZpbGUubWFlPic=

>  <s_epik_input>  (1) 
W0NIXTE9W0NIXVtDSDJdW0NIMl1bQ0gyXU4xW0NIMl1bQ0BdMjNbQ0BIXShbQ0gyXVtDSF09W0NIXVtDQEhdM1tPSF0pW0NIMl1PW0NASF00W0NAQF0oW0NIM10pKFtDSDJdNClbTkhdW0NASF0oW0NIMl1bQ0gzXSkvTj1DKFtDQEBIXTVbQ0BdKFtDSDJdW0NIXShGKUYpKFtDSDJdW0NAXTU2W1NIXSlbQ0BIXTZPW0NIM10pL09bQ0gyXVtDSDJdW0NIMl1bQ0gyXVtOSF1DKD1PKVtDSDJdW0NIMl0y

>  <s_glide_docking_method>  (1) 
confgen

>  <s_i_glide_gridfile>  (1) 
gpcr_drd2_6luq_protein_autoprepared_prepared

>  <s_lp_Force_Field>  (1) 
S-OPLS

>  <s_lp_Variant>  (1) 
DiffSBDD_41_num_sample_50-2

>  <s_m_source_file>  (1) 
generated__ligand_DiffSBDD_2026-05-06_prepared.sdf

>  <GenAI_Model>  (1) 
DiffSBDD

>  <Protein>  (1) 
generic_title2

$$$$
DiffSBDD_31_num_sample_50
     RDKit          3D

  0  0  0  0  0  0  0  0  0  0999 V3000
M  V30 BEGIN CTAB
M  V30 COUNTS 71 76 0 0 1
M  V30 BEGIN ATOM
M  V30 1 C 6.626416 0.175767 -13.644666 0
M  V30 2 C 6.607168 0.142914 -16.473354 0
M  V30 3 C 14.782502 3.637217 -19.364360 0
M  V30 4 C 11.456039 3.789856 -18.611514 0
M  V30 5 C 12.377043 1.921137 -20.145409 0
M  V30 6 C 8.971062 1.614733 -20.461837 0
M  V30 7 C 14.056273 0.087433 -20.269732 0 CFG=2
M  V30 8 C 5.397617 -0.400536 -18.774982 0
M  V30 9 F 6.634497 0.186855 -12.291117 0
M  V30 10 C 7.837549 0.169174 -14.355093 0
M  V30 11 C 6.598504 0.120176 -17.990251 0
M  V30 12 C 10.632055 3.534052 -21.029243 0
M  V30 13 C 7.631018 3.764744 -18.700802 0
M  V30 14 C 7.144025 2.490969 -17.977378 0
M  V30 15 C 7.538593 1.233202 -20.050354 0
M  V30 16 C 7.830938 0.150115 -15.763818 0
M  V30 17 F 13.373842 -0.452450 -21.282023 0
M  V30 18 C 5.406562 0.169299 -14.338667 0
M  V30 19 C 5.394154 0.153670 -15.745771 0
M  V30 20 C 14.831588 2.361490 -19.803238 0
M  V30 21 N 7.452559 1.185120 -18.583331 0
M  V30 22 C 10.061658 3.349637 -18.136085 0
M  V30 23 C 13.834960 -0.759336 -18.996189 0
M  V30 24 C 11.816650 3.342620 -20.055303 0 CFG=1
M  V30 25 O 14.673463 -0.413906 -17.913352 0
M  V30 26 C 6.613455 -1.278543 -18.584119 0
M  V30 27 C 10.883814 3.359035 -22.515877 0
M  V30 28 C 13.688272 1.519503 -20.053846 0
M  V30 29 C 15.577641 0.339934 -20.681376 0 CFG=2
M  V30 30 O 16.446265 -0.761424 -20.504964 0
M  V30 31 C 10.659632 4.739615 -21.958246 0
M  V30 32 C 9.259141 3.133402 -20.461773 0 CFG=2
M  V30 33 N 9.051364 3.762614 -19.136881 0 CFG=1 CHG=1
M  V30 34 C 16.136944 1.681307 -20.040726 0
M  V30 35 H 15.697703 4.184994 -19.195522 0
M  V30 36 H 13.877366 4.140389 -19.146665 0
M  V30 37 H 12.200548 3.433171 -17.898932 0
M  V30 38 H 11.501661 4.879208 -18.568972 0
M  V30 39 H 11.645878 1.161252 -20.353629 0
M  V30 40 H 9.659125 1.062060 -19.827106 0
M  V30 41 H 9.139985 1.240125 -21.471749 0
M  V30 42 H 4.497231 -0.706403 -18.248084 0
M  V30 43 H 5.214221 -0.032025 -19.781742 0
M  V30 44 H 8.776377 0.173597 -13.819718 0
M  V30 45 H 7.502005 4.604028 -18.016965 0
M  V30 46 H 6.980212 3.992766 -19.546253 0
M  V30 47 H 7.532528 2.508424 -16.958790 0
M  V30 48 H 6.060386 2.568185 -17.891488 0
M  V30 49 H 7.362319 0.259242 -20.495568 0
M  V30 50 H 6.781310 1.885533 -20.485749 0
M  V30 51 H 8.765026 0.139529 -16.304801 0
M  V30 52 H 4.475371 0.172886 -13.791344 0
M  V30 53 H 4.451068 0.148929 -16.267619 0
M  V30 54 H 10.033970 2.273346 -17.963353 0
M  V30 55 H 9.842521 3.821667 -17.177478 0
M  V30 56 H 13.988678 -1.816799 -19.215379 0
M  V30 57 H 12.806056 -0.631006 -18.659253 0
M  V30 58 H 12.547050 4.004117 -20.505582 0
M  V30 59 H 15.171215 -1.182763 -17.667925 0
M  V30 60 H 7.223802 -1.501282 -19.453741 0
M  V30 61 H 6.500999 -2.115125 -17.895457 0
M  V30 62 H 11.892955 3.108745 -22.838456 0
M  V30 63 H 10.088781 2.929561 -23.122406 0
M  V30 64 H 15.570293 0.521268 -21.757378 0
M  V30 65 H 16.301529 -1.145011 -19.650512 0
M  V30 66 H 9.718624 5.226178 -22.205086 0
M  V30 67 H 11.518379 5.407093 -21.927340 0
M  V30 68 H 8.519431 3.569846 -21.134818 0
M  V30 69 H 16.795801 2.234244 -20.710981 0
M  V30 70 H 16.633985 1.494183 -19.092293 0
M  V30 71 H 9.250536 4.738768 -19.303381 0
M  V30 END ATOM
M  V30 BEGIN BOND
M  V30 1 1 9 1
M  V30 2 1 10 1
M  V30 3 1 11 2
M  V30 4 1 11 8
M  V30 5 1 14 13
M  V30 6 1 15 6
M  V30 7 1 16 2
M  V30 8 2 16 10
M  V30 9 1 7 17 CFG=3
M  V30 10 2 18 1
M  V30 11 2 19 2
M  V30 12 1 19 18
M  V30 13 2 20 3
M  V30 14 1 21 11
M  V30 15 1 21 14
M  V30 16 1 21 15
M  V30 17 1 22 4
M  V30 18 1 23 7
M  V30 19 1 24 4
M  V30 20 1 24 5
M  V30 21 1 24 12
M  V30 22 1 25 23
M  V30 23 1 26 8
M  V30 24 1 26 11
M  V30 25 1 27 12
M  V30 26 2 28 5
M  V30 27 1 28 7
M  V30 28 1 28 20
M  V30 29 1 29 7
M  V30 30 1 30 29
M  V30 31 1 31 12
M  V30 32 1 31 27
M  V30 33 1 32 6
M  V30 34 1 32 12
M  V30 35 1 33 13
M  V30 36 1 33 22
M  V30 37 1 33 32
M  V30 38 1 34 20
M  V30 39 1 34 29
M  V30 40 1 35 3
M  V30 41 1 36 3
M  V30 42 1 37 4
M  V30 43 1 38 4
M  V30 44 1 39 5
M  V30 45 1 40 6
M  V30 46 1 41 6
M  V30 47 1 42 8
M  V30 48 1 43 8
M  V30 49 1 44 10
M  V30 50 1 45 13
M  V30 51 1 46 13
M  V30 52 1 47 14
M  V30 53 1 48 14
M  V30 54 1 49 15
M  V30 55 1 50 15
M  V30 56 1 51 16
M  V30 57 1 52 18
M  V30 58 1 53 19
M  V30 59 1 54 22
M  V30 60 1 55 22
M  V30 61 1 56 23
M  V30 62 1 57 23
M  V30 63 1 24 58 CFG=3
M  V30 64 1 59 25
M  V30 65 1 60 26
M  V30 66 1 61 26
M  V30 67 1 62 27
M  V30 68 1 63 27
M  V30 69 1 29 64 CFG=3
M  V30 70 1 65 30
M  V30 71 1 66 31
M  V30 72 1 67 31
M  V30 73 1 32 68 CFG=3
M  V30 74 1 69 34
M  V30 75 1 70 34
M  V30 76 1 33 71 CFG=3
M  V30 END BOND
M  V30 END CTAB
M  END
>  <i_epik_Tot_Q>  (1) 
1

>  <i_epik_Tot_abs_Q>  (1) 
1

>  <i_i_glide_confnum>  (1) 
188

>  <i_i_glide_lignum>  (1) 
80

>  <i_i_glide_posenum>  (1) 
13

>  <i_i_glide_rotatable_bonds>  (1) 
6

>  <i_lp_mmshare_version>  (1) 
72125

>  <i_m_source_file_index>  (1) 
32

>  <i_f3d_flags>  (1) 
0

>  <num_sample>  (1) 
50

>  <b_lp_Chiralities_Consistent>  (1) 
1

>  <r_epik_Charging_Adjusted_Penalty>  (1) 
0.0036996964664751512

>  <r_epik_Ionization_Penalty>  (1) 
0.0040620325304727405

>  <r_epik_Ionization_Penalty_Charging>  (1) 
0.0036996964664751512

>  <r_epik_Ionization_Penalty_Neutral>  (1) 
0.00036233606399758918

>  <r_epik_State_Penalty>  (1) 
-0

>  <r_glide_ring_energy>  (1) 
0

>  <r_i_docking_score>  (1) 
-3.2510294299358145

>  <r_i_glide_ecoul>  (1) 
-3.8557760205724465

>  <r_i_glide_eff_state_penalty>  (1) 
-0

>  <r_i_glide_einternal>  (1) 
11.804384276767824

>  <r_i_glide_emodel>  (1) 
-46.609055534339255

>  <r_i_glide_emodel_strain>  (1) 
1.9268373982546052

>  <r_i_glide_energy>  (1) 
-28.261778795953379

>  <r_i_glide_erotb>  (1) 
0.36352394052346937

>  <r_i_glide_esite>  (1) 
0

>  <r_i_glide_evdw>  (1) 
-24.406002775380934

>  <r_i_glide_gscore>  (1) 
-3.2510294299358145

>  <r_i_glide_gscore_strain>  (1) 
0

>  <r_i_glide_hbond>  (1) 
-0.28624344087873221

>  <r_i_glide_ligand_efficiency>  (1) 
-0.095618512645171017

>  <r_i_glide_ligand_efficiency_ln>  (1) 
-0.71824358935957799

>  <r_i_glide_ligand_efficiency_sa>  (1) 
-0.30976686198589631

>  <r_i_glide_lipo>  (1) 
-0.89059289291753752

>  <r_i_glide_metal>  (1) 
-0

>  <r_i_glide_rewards>  (1) 
-0.63905049480810105

>  <r_lp_Energy>  (1) 
33.989857000000001

>  <r_lp_tautomer_probability>  (1) 
1

>  <s_epik_cmdline>  (1) 
J2VwaWtfcHl0aG9uJywgJy1waHQnLCAnMS4wJywgJy1waCcsICc3LjQnLCAnLXRuJywgJzgnLCAnLW1hJywgJzUwMCcsICctaW1hZScsICc8aW5maWxlLm1hZT4nLCAnLW9tYWUnLCAnPG91dGZpbGUubWFlPic=

>  <s_epik_input>  (1) 
RmMxW2NIXVtjSF1jKFtjSF1bY0hdMSlDMihbQ0gyXVtDSDJdMilOKFtDSDJdW0NIMl0zKVtDSDJdW0NIMl1OKFtDQEhdM0M0NVtDSDJdW0NIMl01KVtDSDJdW0NIMl1bQ0BIXTQvW0NIXT1DKC9bQ0BdNihGKVtDSDJdW09IXSlDKD1bQ0gyXSlbQ0gyXVtDQEhdNltPSF0=

>  <s_glide_docking_method>  (1) 
confgen

>  <s_i_glide_gridfile>  (1) 
gpcr_drd2_6luq_protein_autoprepared_prepared

>  <s_lp_Force_Field>  (1) 
S-OPLS

>  <s_lp_Variant>  (1) 
DiffSBDD_31_num_sample_50-3

>  <s_m_source_file>  (1) 
generated__ligand_DiffSBDD_2026-05-06_prepared.sdf

>  <GenAI_Model>  (1) 
DiffSBDD

>  <Protein>  (1) 
generic_title2

$$$$
DiffSBDD_29_num_sample_50
     RDKit          3D

  0  0  0  0  0  0  0  0  0  0999 V3000
M  V30 BEGIN CTAB
M  V30 COUNTS 63 66 0 0 1
M  V30 BEGIN ATOM
M  V30 1 C 9.254439 6.581306 -10.902304 0
M  V30 2 O 7.798570 5.769299 -17.827743 0
M  V30 3 C 7.748653 6.369402 -21.269441 0
M  V30 4 C 9.595896 7.242169 -12.205899 0
M  V30 5 O 7.370087 3.083346 -19.432899 0
M  V30 6 N 8.634838 4.213174 -14.514463 0
M  V30 7 C 8.131135 5.059111 -20.562601 0
M  V30 8 C 5.762034 7.218970 -19.870631 0
M  V30 9 C 5.345149 7.091721 -17.346604 0
M  V30 10 C 9.461611 6.092812 -8.565864 0
M  V30 11 C 9.434854 5.289686 -13.921239 0
M  V30 12 C 7.927820 3.508290 -13.439509 0
M  V30 13 C 6.292404 2.162444 -19.287054 0
M  V30 14 C 6.651999 5.191231 -18.446156 0 CFG=1
M  V30 15 C 8.234285 5.711667 -10.968301 0
M  V30 16 C 6.993975 4.412047 -12.616541 0
M  V30 17 C 8.607768 6.342647 -13.140600 0 CFG=1
M  V30 18 C 5.578815 6.292620 -18.642186 0 CFG=2
M  V30 19 C 9.907098 6.815056 -9.686063 0
M  V30 20 C 8.535665 4.935976 -16.939146 0
M  V30 21 N 7.764902 4.969301 -9.937252 0
M  V30 22 C 6.991618 4.420561 -19.748050 0 CFG=2
M  V30 23 C 7.204484 7.471899 -20.344675 0
M  V30 24 N 7.673796 5.644825 -12.214431 0
M  V30 25 C 8.387201 5.182452 -8.739908 0
M  V30 26 N 11.872825 8.526071 -9.491664 0
M  V30 27 C 7.778080 4.648603 -15.620266 0
M  V30 28 C 11.001625 7.769295 -9.578393 0
M  V30 29 C 5.822756 1.633650 -20.649851 0
M  V30 30 H 7.026353 6.162995 -22.059971 0
M  V30 31 H 8.635898 6.749871 -21.776563 0
M  V30 32 H 9.299608 8.291543 -12.187700 0
M  V30 33 H 10.649434 7.149500 -12.472221 0
M  V30 34 H 8.448354 4.349713 -21.327669 0
M  V30 35 H 9.007456 5.215638 -19.933522 0
M  V30 36 H 5.189145 6.817040 -20.707405 0
M  V30 37 H 5.293395 8.180957 -19.658190 0
M  V30 38 H 6.213954 7.697272 -17.087446 0
M  V30 39 H 4.491391 7.763357 -17.443067 0
M  V30 40 H 5.141472 6.426503 -16.507093 0
M  V30 41 H 9.920930 6.227647 -7.598019 0
M  V30 42 H 10.054026 5.769303 -14.676161 0
M  V30 43 H 10.144415 4.839120 -13.226140 0
M  V30 44 H 8.662366 3.063024 -12.766090 0
M  V30 45 H 7.362719 2.671371 -13.850902 0
M  V30 46 H 6.654561 1.324423 -18.691406 0
M  V30 47 H 5.459108 2.595565 -18.732413 0
M  V30 48 H 6.234839 4.484673 -17.742434 0
M  V30 49 H 6.581621 3.860215 -11.772109 0
M  V30 50 H 6.136630 4.698409 -13.225587 0
M  V30 51 H 8.044104 6.975466 -13.825912 0
M  V30 52 H 4.639398 5.769298 -18.824017 0
M  V30 53 H 9.461677 5.471294 -16.736565 0
M  V30 54 H 8.826915 4.006273 -17.428705 0
M  V30 55 H 6.107541 4.384970 -20.385558 0
M  V30 56 H 7.209325 8.405143 -20.909046 0
M  V30 57 H 7.873352 7.635547 -19.502111 0
M  V30 58 H 8.017294 4.610942 -7.901454 0
M  V30 59 H 7.037653 3.873385 -15.817176 0
M  V30 60 H 7.209924 5.530453 -15.325313 0
M  V30 61 H 5.042860 0.881802 -20.525746 0
M  V30 62 H 5.414396 2.424234 -21.278348 0
M  V30 63 H 6.646902 1.169739 -21.191842 0
M  V30 END ATOM
M  V30 BEGIN BOND
M  V30 1 1 4 1
M  V30 2 1 7 3
M  V30 3 1 11 6
M  V30 4 1 12 6
M  V30 5 1 13 5
M  V30 6 1 14 2
M  V30 7 1 15 1
M  V30 8 1 16 12
M  V30 9 1 17 4
M  V30 10 1 17 11
M  V30 11 1 18 8
M  V30 12 1 18 9
M  V30 13 1 18 14
M  V30 14 2 19 1
M  V30 15 1 19 10
M  V30 16 1 20 2
M  V30 17 2 21 15
M  V30 18 1 22 5
M  V30 19 1 22 7
M  V30 20 1 22 14
M  V30 21 1 23 3
M  V30 22 1 23 8
M  V30 23 1 24 15
M  V30 24 1 24 16
M  V30 25 1 24 17
M  V30 26 2 25 10
M  V30 27 1 25 21
M  V30 28 1 27 6
M  V30 29 1 27 20
M  V30 30 1 28 19
M  V30 31 3 28 26
M  V30 32 1 29 13
M  V30 33 1 30 3
M  V30 34 1 31 3
M  V30 35 1 32 4
M  V30 36 1 33 4
M  V30 37 1 34 7
M  V30 38 1 35 7
M  V30 39 1 36 8
M  V30 40 1 37 8
M  V30 41 1 38 9
M  V30 42 1 39 9
M  V30 43 1 40 9
M  V30 44 1 41 10
M  V30 45 1 42 11
M  V30 46 1 43 11
M  V30 47 1 44 12
M  V30 48 1 45 12
M  V30 49 1 46 13
M  V30 50 1 47 13
M  V30 51 1 14 48 CFG=1
M  V30 52 1 49 16
M  V30 53 1 50 16
M  V30 54 1 17 51 CFG=3
M  V30 55 1 18 52 CFG=3
M  V30 56 1 53 20
M  V30 57 1 54 20
M  V30 58 1 22 55 CFG=3
M  V30 59 1 56 23
M  V30 60 1 57 23
M  V30 61 1 58 25
M  V30 62 1 59 27
M  V30 63 1 60 27
M  V30 64 1 61 29
M  V30 65 1 62 29
M  V30 66 1 63 29
M  V30 END BOND
M  V30 END CTAB
M  END
>  <i_epik_Tot_Q>  (1) 
0

>  <i_epik_Tot_abs_Q>  (1) 
0

>  <i_i_glide_confnum>  (1) 
480

>  <i_i_glide_lignum>  (1) 
72

>  <i_i_glide_posenum>  (1) 
271

>  <i_i_glide_rotatable_bonds>  (1) 
6

>  <i_lp_mmshare_version>  (1) 
72125

>  <i_m_source_file_index>  (1) 
30

>  <i_f3d_flags>  (1) 
0

>  <num_sample>  (1) 
50

>  <b_lp_Chiralities_Consistent>  (1) 
1

>  <r_epik_Charging_Adjusted_Penalty>  (1) 
0.33209033116494396

>  <r_epik_Ionization_Penalty>  (1) 
0.33211857123964

>  <r_epik_Ionization_Penalty_Charging>  (1) 
0

>  <r_epik_Ionization_Penalty_Neutral>  (1) 
0.33211857123964

>  <r_epik_State_Penalty>  (1) 
0.33209033116494396

>  <r_glide_ring_energy>  (1) 
2.3203734281001247

>  <r_i_docking_score>  (1) 
-3.2205892937809515

>  <r_i_glide_ecoul>  (1) 
0.61039457335547831

>  <r_i_glide_eff_state_penalty>  (1) 
0.33209033116494396

>  <r_i_glide_einternal>  (1) 
3.837138132473795

>  <r_i_glide_emodel>  (1) 
-33.942582343622355

>  <r_i_glide_emodel_strain>  (1) 
0

>  <r_i_glide_energy>  (1) 
-29.633146375209236

>  <r_i_glide_erotb>  (1) 
0.61650785367983663

>  <r_i_glide_esite>  (1) 
-0.024853822393185801

>  <r_i_glide_evdw>  (1) 
-30.243540948564714

>  <r_i_glide_gscore>  (1) 
-3.5526796249458954

>  <r_i_glide_gscore_strain>  (1) 
0

>  <r_i_glide_hbond>  (1) 
0

>  <r_i_glide_ligand_efficiency>  (1) 
-0.11105480323382591

>  <r_i_glide_ligand_efficiency_ln>  (1) 
-0.73743328117777762

>  <r_i_glide_ligand_efficiency_sa>  (1) 
-0.34119554054851448

>  <r_i_glide_lipo>  (1) 
-1.4118321854274374

>  <r_i_glide_metal>  (1) 
-0

>  <r_i_glide_rewards>  (1) 
-1.3118836093801947

>  <r_lp_Energy>  (1) 
52.960926000000001

>  <s_epik_cmdline>  (1) 
J2VwaWtfcHl0aG9uJywgJy1waHQnLCAnMS4wJywgJy1waCcsICc3LjQnLCAnLXRuJywgJzgnLCAnLW1hJywgJzUwMCcsICctaW1hZScsICc8aW5maWxlLm1hZT4nLCAnLW9tYWUnLCAnPG91dGZpbGUubWFlPic=

>  <s_epik_input>  (1) 
TiNDYzFbY0hdW2NIXW5jKGMxMilOM1tDQEhdKFtDSDJdMilbQ0gyXU4oW0NIMl1bQ0gyXTMpW0NIMl1bQ0gyXU9bQ0BIXTRbQ0BASF0oW0NIM10pW0NIMl1bQ0gyXVtDSDJdW0NIMl1bQ0BIXTRPW0NIMl1bQ0gzXQ==

>  <s_glide_docking_method>  (1) 
confgen

>  <s_i_glide_gridfile>  (1) 
gpcr_drd2_6luq_protein_autoprepared_prepared

>  <s_lp_Force_Field>  (1) 
S-OPLS

>  <s_lp_Variant>  (1) 
DiffSBDD_29_num_sample_50-2

>  <s_m_source_file>  (1) 
generated__ligand_DiffSBDD_2026-05-06_prepared.sdf

>  <GenAI_Model>  (1) 
DiffSBDD

>  <Protein>  (1) 
generic_title2

$$$$
DiffSBDD_33_num_sample_50
     RDKit          3D

  0  0  0  0  0  0  0  0  0  0999 V3000
M  V30 BEGIN CTAB
M  V30 COUNTS 69 72 0 0 1
M  V30 BEGIN ATOM
M  V30 1 O 14.977946 1.185317 -18.815851 0
M  V30 2 C 13.269908 4.060241 -17.556266 0
M  V30 3 O 12.580746 0.492098 -20.023393 0
M  V30 4 C 11.275896 2.108695 -18.752906 0
M  V30 5 C 7.302102 3.824048 -14.041633 0
M  V30 6 C 9.317003 4.979485 -17.193703 0
M  V30 7 C 7.144267 0.234385 -17.792071 0
M  V30 8 C 14.696793 -0.512017 -20.473911 0
M  V30 9 N 11.953949 3.778671 -17.104282 0
M  V30 10 C 6.935980 1.747323 -17.794115 0
M  V30 11 C 7.230600 0.234349 -15.261186 0
M  V30 12 C 9.613245 3.527913 -17.558066 0
M  V30 13 N 14.021328 2.858865 -17.594711 0
M  V30 14 C 6.589519 -0.394623 -16.510290 0 CFG=1
M  V30 15 N 8.261160 6.169302 -11.091701 0 CHG=1
M  V30 16 C 7.250819 1.761987 -15.219067 0
M  V30 17 C 13.610804 0.414678 -21.001805 0 CFG=2
M  V30 18 C 12.603438 1.510046 -19.087265 0
M  V30 19 C 8.757407 5.212682 -10.076246 0
M  V30 20 C 9.039348 7.428996 -11.085897 0
M  V30 21 N 7.053757 2.400710 -14.129071 0
M  V30 22 C 7.558053 2.462494 -16.568582 0 CFG=1
M  V30 23 F 14.119356 1.588901 -21.386939 0
M  V30 24 C 5.052788 -0.421952 -16.436750 0
M  V30 25 C 13.813871 1.858904 -18.506494 0
M  V30 26 O 8.974174 2.579815 -16.692211 0
M  V30 27 C 14.926725 -0.218787 -18.999918 0
M  V30 28 C 8.154280 5.618004 -12.466810 0
M  V30 29 C 7.448069 4.253327 -12.574197 0
M  V30 30 C 8.809754 4.419052 -18.495128 0
M  V30 31 C 11.012640 3.093311 -17.842692 0
M  V30 32 F 10.211702 1.577484 -19.381102 0
M  V30 33 H 13.745920 4.766499 -16.875712 0
M  V30 34 H 13.240765 4.520580 -18.545102 0
M  V30 35 H 8.234917 4.071099 -14.549299 0
M  V30 36 H 6.500451 4.392541 -14.516413 0
M  V30 37 H 8.568070 5.203175 -16.440241 0
M  V30 38 H 10.111764 5.718853 -17.272079 0
M  V30 39 H 8.211384 0.019956 -17.871064 0
M  V30 40 H 6.675751 -0.214966 -18.668361 0
M  V30 41 H 14.401211 -1.554957 -20.588105 0
M  V30 42 H 15.613897 -0.376685 -21.047848 0
M  V30 43 H 11.601349 4.437104 -16.424305 0
M  V30 44 H 5.866067 1.953778 -17.828022 0
M  V30 45 H 7.335213 2.146233 -18.724664 0
M  V30 46 H 8.263334 -0.105794 -15.190361 0
M  V30 47 H 6.903101 -1.433908 -16.534917 0
M  V30 48 H 13.184580 -0.014927 -21.908624 0
M  V30 49 H 14.959159 2.945335 -17.235011 0
M  V30 50 H 9.700298 4.759302 -10.383426 0
M  V30 51 H 8.911760 5.711392 -9.118502 0
M  V30 52 H 8.028378 4.421393 -9.903892 0
M  V30 53 H 10.077060 7.255531 -11.374339 0
M  V30 54 H 8.606190 8.155880 -11.773894 0
M  V30 55 H 9.034839 7.882351 -10.094276 0
M  V30 56 H 7.112893 3.454916 -16.548573 0
M  V30 57 H 4.634844 0.569366 -16.290959 0
M  V30 58 H 4.614759 -0.845637 -17.340945 0
M  V30 59 H 4.718989 -1.030396 -15.596422 0
M  V30 60 H 14.167750 -0.681056 -18.365403 0
M  V30 61 H 15.884055 -0.630802 -18.691565 0
M  V30 62 H 9.158497 5.526801 -12.885022 0
M  V30 63 H 7.627173 6.346534 -13.084484 0
M  V30 64 H 6.469566 4.281902 -12.093388 0
M  V30 65 H 8.038685 3.500895 -12.049780 0
M  V30 66 H 9.304954 4.751369 -19.405387 0
M  V30 67 H 7.731513 4.318888 -18.579818 0
M  V30 68 H 7.338598 6.450365 -10.772521 0
M  V30 69 H 6.737009 -0.146383 -14.365468 0
M  V30 END ATOM
M  V30 BEGIN BOND
M  V30 1 1 9 2
M  V30 2 1 10 7
M  V30 3 1 12 6
M  V30 4 1 13 2
M  V30 5 1 14 7
M  V30 6 1 14 11
M  V30 7 1 16 11
M  V30 8 1 17 3
M  V30 9 1 17 8
M  V30 10 1 18 3
M  V30 11 1 18 4
M  V30 12 1 19 15
M  V30 13 1 20 15
M  V30 14 1 21 5
M  V30 15 2 21 16
M  V30 16 1 22 10
M  V30 17 1 22 16
M  V30 18 1 23 17
M  V30 19 1 24 14
M  V30 20 1 25 1
M  V30 21 1 25 13
M  V30 22 2 25 18
M  V30 23 1 26 12
M  V30 24 1 26 22
M  V30 25 1 27 1
M  V30 26 1 27 8
M  V30 27 1 28 15
M  V30 28 1 29 5
M  V30 29 1 29 28
M  V30 30 1 30 6
M  V30 31 1 30 12
M  V30 32 2 31 4
M  V30 33 1 31 9
M  V30 34 1 31 12
M  V30 35 1 32 4
M  V30 36 1 33 2
M  V30 37 1 34 2
M  V30 38 1 35 5
M  V30 39 1 36 5
M  V30 40 1 37 6
M  V30 41 1 38 6
M  V30 42 1 39 7
M  V30 43 1 40 7
M  V30 44 1 41 8
M  V30 45 1 42 8
M  V30 46 1 43 9
M  V30 47 1 44 10
M  V30 48 1 45 10
M  V30 49 1 46 11
M  V30 50 1 14 47 CFG=3
M  V30 51 1 17 48 CFG=3
M  V30 52 1 49 13
M  V30 53 1 50 19
M  V30 54 1 51 19
M  V30 55 1 52 19
M  V30 56 1 53 20
M  V30 57 1 54 20
M  V30 58 1 55 20
M  V30 59 1 22 56 CFG=1
M  V30 60 1 57 24
M  V30 61 1 58 24
M  V30 62 1 59 24
M  V30 63 1 60 27
M  V30 64 1 61 27
M  V30 65 1 62 28
M  V30 66 1 63 28
M  V30 67 1 64 29
M  V30 68 1 65 29
M  V30 69 1 66 30
M  V30 70 1 67 30
M  V30 71 1 68 15
M  V30 72 1 69 11
M  V30 END BOND
M  V30 END CTAB
M  END
>  <i_epik_Tot_Q>  (1) 
1

>  <i_epik_Tot_abs_Q>  (1) 
1

>  <i_i_glide_confnum>  (1) 
332

>  <i_i_glide_lignum>  (1) 
86

>  <i_i_glide_posenum>  (1) 
226

>  <i_i_glide_rotatable_bonds>  (1) 
7

>  <i_lp_mmshare_version>  (1) 
72125

>  <i_m_source_file_index>  (1) 
34

>  <i_f3d_flags>  (1) 
0

>  <num_sample>  (1) 
50

>  <b_lp_Chiralities_Consistent>  (1) 
1

>  <r_epik_Charging_Adjusted_Penalty>  (1) 
0.41789118993368612

>  <r_epik_Ionization_Penalty>  (1) 
0.0076682513750627552

>  <r_epik_Ionization_Penalty_Charging>  (1) 
0.0072113509810821487

>  <r_epik_Ionization_Penalty_Neutral>  (1) 
0.0004569003939806066

>  <r_epik_State_Penalty>  (1) 
0.41067983895260396

>  <r_glide_ring_energy>  (1) 
1.3428436498976668

>  <r_i_docking_score>  (1) 
-3.2183222625023076

>  <r_i_glide_ecoul>  (1) 
-5.0350352341244378

>  <r_i_glide_eff_state_penalty>  (1) 
0.41067983895260396

>  <r_i_glide_einternal>  (1) 
4.2158511687329838

>  <r_i_glide_emodel>  (1) 
-39.78505480130449

>  <r_i_glide_emodel_strain>  (1) 
0.42129738027644237

>  <r_i_glide_energy>  (1) 
-32.80713080473739

>  <r_i_glide_erotb>  (1) 
0.58078846603177925

>  <r_i_glide_esite>  (1) 
-0.087704137961700582

>  <r_i_glide_evdw>  (1) 
-27.772095570612951

>  <r_i_glide_gscore>  (1) 
-3.6290021014549114

>  <r_i_glide_gscore_strain>  (1) 
0

>  <r_i_glide_hbond>  (1) 
-0.11025597489287885

>  <r_i_glide_ligand_efficiency>  (1) 
-0.10057257070319711

>  <r_i_glide_ligand_efficiency_ln>  (1) 
-0.7206700827258119

>  <r_i_glide_ligand_efficiency_sa>  (1) 
-0.3192980090668025

>  <r_i_glide_lipo>  (1) 
-1.1552709091948226

>  <r_i_glide_metal>  (1) 
-0

>  <r_i_glide_rewards>  (1) 
-0.71269948178797571

>  <r_lp_Energy>  (1) 
52.233778000000001

>  <r_lp_tautomer_probability>  (1) 
0.49999519497573586

>  <s_epik_Chemistry_Notes>  (1) 
This compound has an imine and may undergo hydrolysis. This compound contains an acetal/aminal-like group ( X-CH(R)-Y where X, Y are N, S, or O) that may be acid/base labile, releasing an aldehyde.

>  <s_epik_cmdline>  (1) 
J2VwaWtfcHl0aG9uJywgJy1waHQnLCAnMS4wJywgJy1waCcsICc3LjQnLCAnLXRuJywgJzgnLCAnLW1hJywgJzUwMCcsICctaW1hZScsICc8aW5maWxlLm1hZT4nLCAnLW9tYWUnLCAnPG91dGZpbGUubWFlPic=

>  <s_epik_input>  (1) 
TzFbQ0BASF0oRilbQ0gyXVtDSDJdT0MoW0NAQEhdMTIpPU5bQ0gyXVtOSF1DKD1DMkYpQzMoW0NIMl1bQ0gyXTMpT1tDQEBIXShbQ0gyXVtDSDJdW0NAQEhdNFtDSDNdKUMoPVtDSF00KVtOSF1bQ0gyXVtDSDJdW0NIMl1OKFtDSDNdKVtDSDNd

>  <s_glide_docking_method>  (1) 
confgen

>  <s_i_glide_gridfile>  (1) 
gpcr_drd2_6luq_protein_autoprepared_prepared

>  <s_lp_Force_Field>  (1) 
S-OPLS

>  <s_lp_Variant>  (1) 
DiffSBDD_33_num_sample_50-4

>  <s_m_source_file>  (1) 
generated__ligand_DiffSBDD_2026-05-06_prepared.sdf

>  <GenAI_Model>  (1) 
DiffSBDD

>  <Protein>  (1) 
generic_title2

$$$$
DiffSBDD_10_num_sample_50
     RDKit          3D

  0  0  0  0  0  0  0  0  0  0999 V3000
M  V30 BEGIN CTAB
M  V30 COUNTS 73 74 0 0 1
M  V30 BEGIN ATOM
M  V30 1 C 7.451056 -0.128846 -18.345146 0 CFG=2
M  V30 2 C 9.630169 6.425890 -10.361883 0
M  V30 3 C 8.263855 4.501983 -14.060620 0
M  V30 4 C 8.581148 4.888763 -17.605198 0 CFG=1
M  V30 5 C 6.914484 1.161461 -18.989493 0 CFG=2
M  V30 6 N 8.634904 8.313320 -11.491679 0
M  V30 7 N 6.572342 4.101703 -18.691633 0
M  V30 8 C 7.695640 3.463189 -19.305522 0 CFG=1
M  V30 9 S 6.859479 -1.757111 -19.073653 0
M  V30 10 C 9.845645 7.109118 -9.026332 0
M  V30 11 S 7.691880 -1.634189 -21.021627 0 CHG=-1
M  V30 12 C 9.974526 -0.457351 -18.616998 0
M  V30 13 O 11.034846 6.969312 -4.822321 0
M  V30 14 O 7.541912 -2.865478 -18.387763 0
M  V30 15 C 6.297768 0.630609 -17.710002 0 CFG=2
M  V30 16 C 7.278024 4.743659 -11.696059 0
M  V30 17 C 7.038434 4.927816 -17.584669 0 CFG=2
M  V30 18 N 9.658823 6.794519 -6.549700 0 CHG=1
M  V30 19 N 8.927987 6.326937 -12.638796 0
M  V30 20 C 9.317657 6.241745 -7.874454 0
M  V30 21 C 10.258245 3.562555 -19.174052 0
M  V30 22 C 8.808966 -0.246699 -17.647803 0
M  V30 23 C 6.121833 1.235891 -20.293122 0
M  V30 24 C 9.151542 4.111518 -16.400809 0
M  V30 25 C 8.213803 5.276666 -12.795347 0
M  V30 26 O 6.633293 1.370166 -16.548463 0
M  V30 27 C 9.082297 7.013417 -11.443633 0
M  V30 28 O 5.394046 -1.765910 -19.207103 0
M  V30 29 F 6.595262 6.171461 -17.765380 0
M  V30 30 N 6.345186 5.768921 -11.177087 0 CHG=1
M  V30 31 C 11.085935 6.676313 -6.196595 0
M  V30 32 C 8.923852 4.311336 -18.987912 0 CFG=2
M  V30 33 O 7.906665 2.180741 -18.795559 0
M  V30 34 C 9.045865 4.875392 -15.095138 0
M  V30 35 H 9.948823 5.397420 -10.426796 0
M  V30 36 H 7.644992 3.617568 -14.109712 0
M  V30 37 H 8.982559 5.901704 -17.557051 0
M  V30 38 H 8.510865 8.848813 -10.641911 0
M  V30 39 H 5.908816 3.419989 -18.353180 0
M  V30 40 H 7.551312 3.391337 -20.384046 0
M  V30 41 H 9.386357 8.097455 -8.998377 0
M  V30 42 H 10.920006 7.262694 -8.928429 0
M  V30 43 H 10.919496 -0.541979 -18.080197 0
M  V30 44 H 9.834935 -1.364609 -19.200442 0
M  V30 45 H 10.056605 0.372851 -19.318670 0
M  V30 46 H 11.480677 6.283675 -4.343866 0
M  V30 47 H 5.286728 0.228956 -17.712834 0
M  V30 48 H 6.682607 3.916313 -12.083063 0
M  V30 49 H 7.866903 4.334967 -10.875285 0
M  V30 50 H 6.634846 4.571475 -16.637095 0
M  V30 51 H 9.130239 6.286686 -5.853811 0
M  V30 52 H 9.699902 5.222269 -7.947059 0
M  V30 53 H 8.234868 6.169317 -7.944993 0
M  V30 54 H 10.344625 2.695975 -18.518259 0
M  V30 55 H 10.361568 3.206696 -20.199126 0
M  V30 56 H 11.103016 4.219049 -18.965827 0
M  V30 57 H 9.010251 0.653496 -17.068221 0
M  V30 58 H 8.766047 -1.066206 -16.929941 0
M  V30 59 H 5.427510 0.404491 -20.391240 0
M  V30 60 H 5.526356 2.146935 -20.337654 0
M  V30 61 H 6.797832 1.216802 -21.147304 0
M  V30 62 H 10.213588 3.917250 -16.543407 0
M  V30 63 H 8.670665 3.137329 -16.312091 0
M  V30 64 H 6.790128 0.753127 -15.849373 0
M  V30 65 H 5.738741 5.365470 -10.476782 0
M  V30 66 H 6.862327 6.531151 -10.739344 0
M  V30 67 H 11.704281 7.397828 -6.731293 0
M  V30 68 H 11.471841 5.670340 -6.360600 0
M  V30 69 H 8.906551 5.141503 -19.696267 0
M  V30 70 H 9.650283 5.768521 -15.016180 0
M  V30 71 H 8.156784 8.668115 -12.307184 0
M  V30 72 H 9.373261 7.762097 -6.505610 0
M  V30 73 H 5.793538 6.150535 -11.930476 0
M  V30 END ATOM
M  V30 BEGIN BOND
M  V30 1 1 5 1
M  V30 2 1 8 7
M  V30 3 1 9 1
M  V30 4 1 10 2
M  V30 5 1 11 9
M  V30 6 2 14 9
M  V30 7 1 15 1
M  V30 8 1 15 5
M  V30 9 1 17 4
M  V30 10 1 17 7
M  V30 11 1 20 10
M  V30 12 1 20 18
M  V30 13 1 1 22 CFG=1
M  V30 14 1 22 12
M  V30 15 1 23 5
M  V30 16 1 24 4
M  V30 17 1 25 3
M  V30 18 1 25 16
M  V30 19 2 25 19
M  V30 20 1 26 15
M  V30 21 2 27 2
M  V30 22 1 27 6
M  V30 23 1 27 19
M  V30 24 2 28 9
M  V30 25 1 29 17
M  V30 26 1 30 16
M  V30 27 1 31 13
M  V30 28 1 31 18
M  V30 29 1 32 4
M  V30 30 1 32 8
M  V30 31 1 32 21
M  V30 32 1 5 33 CFG=1
M  V30 33 1 33 8
M  V30 34 2 34 3
M  V30 35 1 34 24
M  V30 36 1 35 2
M  V30 37 1 36 3
M  V30 38 1 4 37 CFG=3
M  V30 39 1 38 6
M  V30 40 1 39 7
M  V30 41 1 8 40 CFG=3
M  V30 42 1 41 10
M  V30 43 1 42 10
M  V30 44 1 43 12
M  V30 45 1 44 12
M  V30 46 1 45 12
M  V30 47 1 46 13
M  V30 48 1 15 47 CFG=3
M  V30 49 1 48 16
M  V30 50 1 49 16
M  V30 51 1 17 50 CFG=1
M  V30 52 1 51 18
M  V30 53 1 52 20
M  V30 54 1 53 20
M  V30 55 1 54 21
M  V30 56 1 55 21
M  V30 57 1 56 21
M  V30 58 1 57 22
M  V30 59 1 58 22
M  V30 60 1 59 23
M  V30 61 1 60 23
M  V30 62 1 61 23
M  V30 63 1 62 24
M  V30 64 1 63 24
M  V30 65 1 64 26
M  V30 66 1 65 30
M  V30 67 1 66 30
M  V30 68 1 67 31
M  V30 69 1 68 31
M  V30 70 1 32 69 CFG=3
M  V30 71 1 70 34
M  V30 72 1 71 6
M  V30 73 1 72 18
M  V30 74 1 73 30
M  V30 END BOND
M  V30 END CTAB
M  END
>  <i_epik_Tot_Q>  (1) 
1

>  <i_epik_Tot_abs_Q>  (1) 
3

>  <i_i_glide_confnum>  (1) 
3022

>  <i_i_glide_lignum>  (1) 
36

>  <i_i_glide_posenum>  (1) 
398

>  <i_i_glide_rotatable_bonds>  (1) 
15

>  <i_lp_mmshare_version>  (1) 
72125

>  <i_m_source_file_index>  (1) 
11

>  <i_f3d_flags>  (1) 
0

>  <num_sample>  (1) 
50

>  <b_lp_Chiralities_Consistent>  (1) 
1

>  <r_epik_Charging_Adjusted_Penalty>  (1) 
2.168687317063887

>  <r_epik_Ionization_Penalty>  (1) 
1.1047352072338965

>  <r_epik_Ionization_Penalty_Charging>  (1) 
1.0999234457570315

>  <r_epik_Ionization_Penalty_Neutral>  (1) 
0.0048117614768649203

>  <r_epik_State_Penalty>  (1) 
1.0687638713068555

>  <r_glide_ring_energy>  (1) 
0

>  <r_i_docking_score>  (1) 
-3.212262016096691

>  <r_i_glide_ecoul>  (1) 
-7.4287991123569661

>  <r_i_glide_eff_state_penalty>  (1) 
1.0687638713068555

>  <r_i_glide_einternal>  (1) 
9.3350983245112555

>  <r_i_glide_emodel>  (1) 
-48.516844083957174

>  <r_i_glide_emodel_strain>  (1) 
0.57558545479875534

>  <r_i_glide_energy>  (1) 
-37.592311610974164

>  <r_i_glide_erotb>  (1) 
0.82219216958862984

>  <r_i_glide_esite>  (1) 
-0.22126050047610679

>  <r_i_glide_evdw>  (1) 
-30.163512498617202

>  <r_i_glide_gscore>  (1) 
-4.2810258874035467

>  <r_i_glide_gscore_strain>  (1) 
0

>  <r_i_glide_hbond>  (1) 
-0.20381481279462504

>  <r_i_glide_ligand_efficiency>  (1) 
-0.094478294591079148

>  <r_i_glide_ligand_efficiency_ln>  (1) 
-0.70967878025338982

>  <r_i_glide_ligand_efficiency_sa>  (1) 
-0.3060729981218307

>  <r_i_glide_lipo>  (1) 
-0.6969045226481273

>  <r_i_glide_metal>  (1) 
-0

>  <r_i_glide_rewards>  (1) 
-1.3587427292889127

>  <r_lp_Energy>  (1) 
20.091348

>  <s_epik_Chemistry_Notes>  (1) 
This compound has an imine and may undergo hydrolysis. This compound contains an acetal/aminal-like group ( X-CH(R)-Y where X, Y are N, S, or O) that may be acid/base labile, releasing an aldehyde.

>  <s_epik_cmdline>  (1) 
J2VwaWtfcHl0aG9uJywgJy1waHQnLCAnMS4wJywgJy1waCcsICc3LjQnLCAnLXRuJywgJzgnLCAnLW1hJywgJzUwMCcsICctaW1hZScsICc8aW5maWxlLm1hZT4nLCAnLW9tYWUnLCAnPG91dGZpbGUubWFlPic=

>  <s_epik_input>  (1) 
W1NIXVMoPU8pKD1PKVtDQEBdMShbQ0gyXVtDSDNdKVtDQEBdKFtDSDNdKShbQ0BASF0xW09IXSlPW0NASF0oW0NAQEhdMltDSDNdKVtOSF1bQ0BASF0oRilbQ0BIXTJbQ0gyXVxbQ0hdPVtDSF1cQyhbQ0gyXVtOSDJdKT1OXEMoPU5cW0hdKVxbQ0gyXVtDSDJdW0NIMl1bTkhdW0NIMl1bT0hd

>  <s_glide_docking_method>  (1) 
confgen

>  <s_i_glide_gridfile>  (1) 
gpcr_drd2_6luq_protein_autoprepared_prepared

>  <s_lp_Force_Field>  (1) 
S-OPLS

>  <s_lp_Variant>  (1) 
DiffSBDD_10_num_sample_50-16

>  <s_m_source_file>  (1) 
generated__ligand_DiffSBDD_2026-05-06_prepared.sdf

>  <GenAI_Model>  (1) 
DiffSBDD

>  <Protein>  (1) 
generic_title2

$$$$
DiffSBDD_45_num_sample_50
     RDKit          3D

  0  0  0  0  0  0  0  0  0  0999 V3000
M  V30 BEGIN CTAB
M  V30 COUNTS 63 66 0 0 1
M  V30 BEGIN ATOM
M  V30 1 C 15.993732 3.844063 -19.582627 0
M  V30 2 C 16.661067 5.708276 -17.909398 0 CFG=2
M  V30 3 O 17.375096 4.969301 -16.925132 0
M  V30 4 C 7.209187 5.066115 -21.420025 0
M  V30 5 O 9.900112 3.650331 -22.450557 0
M  V30 6 O 6.536096 6.595197 -19.083909 0
M  V30 7 C 10.232535 4.324425 -21.258335 0 CFG=2
M  V30 8 O 9.549247 5.515915 -20.900190 0
M  V30 9 C 5.144288 7.616488 -20.934711 0 CFG=2
M  V30 10 C 7.910648 6.545034 -19.493990 0
M  V30 11 C 11.722194 4.374192 -21.039093 0 CFG=2
M  V30 12 C 13.649307 5.016514 -19.452829 0 CFG=2
M  V30 13 C 5.657724 3.838575 -19.847386 0
M  V30 14 C 14.218943 6.214607 -18.655802 0
M  V30 15 C 14.712342 4.287236 -20.311123 0
M  V30 16 C 5.784965 5.028652 -20.831255 0 CFG=1
M  V30 17 C 4.283091 6.015925 -22.691675 0
M  V30 18 C 17.670047 5.700903 -15.746481 0
M  V30 19 O 10.856968 3.581366 -20.205436 0
M  V30 20 C 8.266476 5.299723 -20.323658 0 CFG=1
M  V30 21 C 15.171291 5.814714 -17.513828 0
M  V30 22 C 4.458839 7.266973 -22.244073 0
M  V30 23 C 12.459636 5.493454 -20.321527 0
M  V30 24 C 6.253552 8.640580 -21.217354 0
M  V30 25 C 16.928828 5.018639 -19.257897 0
M  V30 26 C 5.523818 6.362061 -20.075044 0 CFG=1
M  V30 27 C 4.739031 4.780177 -21.949442 0
M  V30 28 H 15.762153 3.260533 -18.690999 0
M  V30 29 H 16.530643 3.165424 -20.246549 0
M  V30 30 H 17.086825 6.710991 -17.980377 0
M  V30 31 H 7.280358 5.856498 -22.167700 0
M  V30 32 H 7.406662 4.133716 -21.946046 0
M  V30 33 H 9.122522 3.139394 -22.290822 0
M  V30 34 H 4.397292 8.162381 -20.356209 0
M  V30 35 H 8.529843 6.569302 -18.597369 0
M  V30 36 H 8.188198 7.436607 -20.046653 0
M  V30 37 H 12.321959 3.795759 -21.738392 0
M  V30 38 H 13.252858 4.299416 -18.732247 0
M  V30 39 H 5.938519 2.897250 -20.320904 0
M  V30 40 H 6.273080 3.958656 -18.956457 0
M  V30 41 H 4.634839 3.727487 -19.491677 0
M  V30 42 H 14.693522 6.937210 -19.320989 0
M  V30 43 H 13.381751 6.745479 -18.200227 0
M  V30 44 H 14.265693 3.385541 -20.728648 0
M  V30 45 H 14.980239 4.905257 -21.169057 0
M  V30 46 H 3.780017 5.853952 -23.634490 0
M  V30 47 H 18.282300 5.085036 -15.091667 0
M  V30 48 H 18.234791 6.606893 -15.968568 0
M  V30 49 H 16.766633 5.969988 -15.199465 0
M  V30 50 H 8.320755 4.441756 -19.652631 0
M  V30 51 H 14.832784 4.877837 -17.069400 0
M  V30 52 H 15.081533 6.555878 -16.719304 0
M  V30 53 H 4.097953 8.096587 -22.834866 0
M  V30 54 H 12.805379 6.208199 -21.068938 0
M  V30 55 H 11.743483 6.028614 -19.696841 0
M  V30 56 H 5.863968 9.491270 -21.777211 0
M  V30 57 H 6.660273 9.043983 -20.291668 0
M  V30 58 H 7.062348 8.213210 -21.809594 0
M  V30 59 H 17.963205 4.672033 -19.271223 0
M  V30 60 H 16.869490 5.755680 -20.059735 0
M  V30 61 H 4.625298 6.177941 -19.483813 0
M  V30 62 H 5.119517 4.056129 -22.670946 0
M  V30 63 H 3.834840 4.338883 -21.533044 0
M  V30 END ATOM
M  V30 BEGIN BOND
M  V30 1 1 3 2
M  V30 2 1 7 5 CFG=3
M  V30 3 1 8 7
M  V30 4 1 10 6
M  V30 5 1 11 7
M  V30 6 1 14 12
M  V30 7 1 15 1
M  V30 8 1 15 12
M  V30 9 1 16 4
M  V30 10 1 16 13 CFG=1
M  V30 11 1 18 3
M  V30 12 1 19 7
M  V30 13 1 19 11
M  V30 14 1 20 4
M  V30 15 1 20 8
M  V30 16 1 20 10
M  V30 17 1 21 2
M  V30 18 1 21 14
M  V30 19 1 22 9
M  V30 20 2 22 17
M  V30 21 1 23 11
M  V30 22 1 23 12
M  V30 23 1 24 9
M  V30 24 1 25 1
M  V30 25 1 25 2
M  V30 26 1 26 6
M  V30 27 1 26 9
M  V30 28 1 26 16
M  V30 29 1 27 16
M  V30 30 1 27 17
M  V30 31 1 28 1
M  V30 32 1 29 1
M  V30 33 1 2 30 CFG=3
M  V30 34 1 31 4
M  V30 35 1 32 4
M  V30 36 1 33 5
M  V30 37 1 9 34 CFG=1
M  V30 38 1 35 10
M  V30 39 1 36 10
M  V30 40 1 11 37 CFG=3
M  V30 41 1 12 38 CFG=1
M  V30 42 1 39 13
M  V30 43 1 40 13
M  V30 44 1 41 13
M  V30 45 1 42 14
M  V30 46 1 43 14
M  V30 47 1 44 15
M  V30 48 1 45 15
M  V30 49 1 46 17
M  V30 50 1 47 18
M  V30 51 1 48 18
M  V30 52 1 49 18
M  V30 53 1 20 50 CFG=1
M  V30 54 1 51 21
M  V30 55 1 52 21
M  V30 56 1 53 22
M  V30 57 1 54 23
M  V30 58 1 55 23
M  V30 59 1 56 24
M  V30 60 1 57 24
M  V30 61 1 58 24
M  V30 62 1 59 25
M  V30 63 1 60 25
M  V30 64 1 26 61 CFG=1
M  V30 65 1 62 27
M  V30 66 1 63 27
M  V30 END BOND
M  V30 END CTAB
M  END
>  <i_epik_Tot_Q>  (1) 
0

>  <i_epik_Tot_abs_Q>  (1) 
0

>  <i_i_glide_confnum>  (1) 
325

>  <i_i_glide_lignum>  (1) 
112

>  <i_i_glide_posenum>  (1) 
310

>  <i_i_glide_rotatable_bonds>  (1) 
6

>  <i_lp_mmshare_version>  (1) 
72125

>  <i_m_source_file_index>  (1) 
46

>  <i_f3d_flags>  (1) 
0

>  <num_sample>  (1) 
50

>  <b_lp_Chiralities_Consistent>  (1) 
1

>  <r_epik_Charging_Adjusted_Penalty>  (1) 
0

>  <r_epik_Ionization_Penalty>  (1) 
0.00010055018107768494

>  <r_epik_Ionization_Penalty_Charging>  (1) 
0

>  <r_epik_Ionization_Penalty_Neutral>  (1) 
0.00010055018107768494

>  <r_epik_State_Penalty>  (1) 
-0

>  <r_glide_ring_energy>  (1) 
0.68864525180136349

>  <r_i_docking_score>  (1) 
-3.2077717877255667

>  <r_i_glide_ecoul>  (1) 
-2.3945782309024368

>  <r_i_glide_eff_state_penalty>  (1) 
-0

>  <r_i_glide_einternal>  (1) 
1.0252390266825611

>  <r_i_glide_emodel>  (1) 
-22.865935581121931

>  <r_i_glide_emodel_strain>  (1) 
0

>  <r_i_glide_energy>  (1) 
-20.459101365019677

>  <r_i_glide_erotb>  (1) 
0.53594258102178693

>  <r_i_glide_esite>  (1) 
0

>  <r_i_glide_evdw>  (1) 
-18.064523134117241

>  <r_i_glide_gscore>  (1) 
-3.2077717877255667

>  <r_i_glide_gscore_strain>  (1) 
0

>  <r_i_glide_hbond>  (1) 
-0.32000000000000001

>  <r_i_glide_ligand_efficiency>  (1) 
-0.11880636250835432

>  <r_i_glide_ligand_efficiency_ln>  (1) 
-0.74671638793146244

>  <r_i_glide_ligand_efficiency_sa>  (1) 
-0.35641908752506302

>  <r_i_glide_lipo>  (1) 
-1.3467279774061252

>  <r_i_glide_metal>  (1) 
-0

>  <r_i_glide_rewards>  (1) 
-0.81457350000000117

>  <r_lp_Energy>  (1) 
38.981271

>  <r_lp_tautomer_probability>  (1) 
1

>  <s_epik_cmdline>  (1) 
J2VwaWtfcHl0aG9uJywgJy1waHQnLCAnMS4wJywgJy1waCcsICc3LjQnLCAnLXRuJywgJzgnLCAnLW1hJywgJzUwMCcsICctaW1hZScsICc8aW5maWxlLm1hZT4nLCAnLW9tYWUnLCAnPG91dGZpbGUubWFlPic=

>  <s_epik_input>  (1) 
W0NIM11PW0NAQEhdMVtDSDJdW0NIMl1bQ0BIXShbQ0gyXVtDSDJdW0NIMl0xKVtDSDJdW0NIXShPMilbQ0BdMihbT0hdKU9bQ0BIXShbQ0gyXTMpW0NIMl1PW0NASF0oW0NAXTM0W0NIM10pW0NAQEhdKFtDSDNdKVtDSF09W0NIXVtDSDJdNA==

>  <s_glide_docking_method>  (1) 
confgen

>  <s_i_glide_gridfile>  (1) 
gpcr_drd2_6luq_protein_autoprepared_prepared

>  <s_lp_Force_Field>  (1) 
S-OPLS

>  <s_lp_Variant>  (1) 
DiffSBDD_45_num_sample_50-1

>  <s_m_source_file>  (1) 
generated__ligand_DiffSBDD_2026-05-06_prepared.sdf

>  <GenAI_Model>  (1) 
DiffSBDD

>  <Protein>  (1) 
generic_title2

$$$$
DiffSBDD_45_num_sample_50
     RDKit          3D

  0  0  0  0  0  0  0  0  0  0999 V3000
M  V30 BEGIN CTAB
M  V30 COUNTS 63 66 0 0 1
M  V30 BEGIN ATOM
M  V30 1 C 12.735713 2.790686 -19.485002 0
M  V30 2 C 14.201751 0.975496 -18.366634 0 CFG=2
M  V30 3 O 14.224650 -0.442522 -18.314693 0
M  V30 4 C 15.875711 8.140020 -20.484022 0
M  V30 5 O 11.953816 7.769019 -18.982236 0
M  V30 6 O 16.895824 9.769301 -18.330550 0
M  V30 7 C 13.107078 7.397447 -18.266817 0 CFG=2
M  V30 8 O 14.323017 7.218504 -18.967065 0
M  V30 9 C 18.860519 8.447222 -19.200628 0 CFG=2
M  V30 10 C 15.812283 8.879341 -18.039329 0
M  V30 11 C 12.864904 6.346169 -17.209406 0 CFG=2
M  V30 12 C 13.675888 3.911038 -17.325374 0 CFG=2
M  V30 13 C 16.076034 10.580998 -21.075325 0
M  V30 14 C 14.790429 2.974245 -16.803500 0
M  V30 15 C 13.627666 3.883189 -18.873028 0
M  V30 16 C 16.864391 9.288878 -20.744976 0 CFG=1
M  V30 17 C 18.960065 8.116775 -21.704969 0
M  V30 18 C 14.565823 -1.041781 -19.554873 0
M  V30 19 O 13.182646 7.706925 -16.871175 0
M  V30 20 C 14.990369 8.431617 -19.265796 0 CFG=1
M  V30 21 C 14.514413 1.468361 -16.944353 0
M  V30 22 C 19.453212 7.883367 -20.479917 0
M  V30 23 C 13.913796 5.334339 -16.777665 0
M  V30 24 C 18.547400 7.288994 -18.238818 0
M  V30 25 C 12.793114 1.413048 -18.812650 0
M  V30 26 C 17.723772 9.490351 -19.465756 0 CFG=1
M  V30 27 C 17.747853 8.979743 -21.980284 0
M  V30 28 H 11.699062 3.128742 -19.477055 0
M  V30 29 H 13.003060 2.684993 -20.537007 0
M  V30 30 H 14.971231 1.331315 -19.055738 0
M  V30 31 H 16.420174 7.208568 -20.335296 0
M  V30 32 H 15.242082 7.975189 -21.356226 0
M  V30 33 H 11.859625 8.708072 -18.881581 0
M  V30 34 H 19.674255 8.999452 -18.726945 0
M  V30 35 H 15.152646 9.395770 -17.344085 0
M  V30 36 H 16.168884 8.008594 -17.495326 0
M  V30 37 H 11.835701 6.076872 -16.979487 0
M  V30 38 H 12.714987 3.580009 -16.927328 0
M  V30 39 H 15.362226 10.414705 -21.882235 0
M  V30 40 H 15.518003 10.968957 -20.223146 0
M  V30 41 H 16.733923 11.384713 -21.400571 0
M  V30 42 H 15.732021 3.221844 -17.294719 0
M  V30 43 H 14.957061 3.174337 -15.744236 0
M  V30 44 H 13.264234 4.826743 -19.274329 0
M  V30 45 H 14.640283 3.794170 -19.267644 0
M  V30 46 H 19.445274 7.679014 -22.565896 0
M  V30 47 H 14.394141 -2.113355 -19.490210 0
M  V30 48 H 13.964757 -0.665004 -20.382447 0
M  V30 49 H 15.617971 -0.880212 -19.790535 0
M  V30 50 H 14.266214 9.202094 -19.534614 0
M  V30 51 H 13.686863 1.198783 -16.292292 0
M  V30 52 H 15.379624 0.925919 -16.561849 0
M  V30 53 H 20.327345 7.257647 -20.370968 0
M  V30 54 H 14.901626 5.689572 -17.072638 0
M  V30 55 H 13.914275 5.310266 -15.686804 0
M  V30 56 H 19.403836 6.620571 -18.146161 0
M  V30 57 H 18.334432 7.658948 -17.236308 0
M  V30 58 H 17.708660 6.682301 -18.576713 0
M  V30 59 H 12.118435 1.394230 -17.955532 0
M  V30 60 H 12.369142 0.688841 -19.508128 0
M  V30 61 H 18.264097 10.423922 -19.627370 0
M  V30 62 H 17.150557 8.512301 -22.763605 0
M  V30 63 H 18.137740 9.903152 -22.410035 0
M  V30 END ATOM
M  V30 BEGIN BOND
M  V30 1 1 3 2
M  V30 2 1 7 5 CFG=3
M  V30 3 1 8 7
M  V30 4 1 10 6
M  V30 5 1 11 7
M  V30 6 1 14 12
M  V30 7 1 15 1
M  V30 8 1 15 12
M  V30 9 1 16 4
M  V30 10 1 16 13 CFG=3
M  V30 11 1 18 3
M  V30 12 1 19 7
M  V30 13 1 19 11
M  V30 14 1 20 4
M  V30 15 1 20 8
M  V30 16 1 20 10
M  V30 17 1 21 2
M  V30 18 1 21 14
M  V30 19 1 22 9
M  V30 20 2 22 17
M  V30 21 1 23 11
M  V30 22 1 23 12
M  V30 23 1 24 9
M  V30 24 1 25 1
M  V30 25 1 25 2
M  V30 26 1 26 6
M  V30 27 1 26 9
M  V30 28 1 26 16
M  V30 29 1 27 16
M  V30 30 1 27 17
M  V30 31 1 28 1
M  V30 32 1 29 1
M  V30 33 1 2 30 CFG=3
M  V30 34 1 31 4
M  V30 35 1 32 4
M  V30 36 1 33 5
M  V30 37 1 9 34 CFG=1
M  V30 38 1 35 10
M  V30 39 1 36 10
M  V30 40 1 11 37 CFG=1
M  V30 41 1 12 38 CFG=1
M  V30 42 1 39 13
M  V30 43 1 40 13
M  V30 44 1 41 13
M  V30 45 1 42 14
M  V30 46 1 43 14
M  V30 47 1 44 15
M  V30 48 1 45 15
M  V30 49 1 46 17
M  V30 50 1 47 18
M  V30 51 1 48 18
M  V30 52 1 49 18
M  V30 53 1 20 50 CFG=3
M  V30 54 1 51 21
M  V30 55 1 52 21
M  V30 56 1 53 22
M  V30 57 1 54 23
M  V30 58 1 55 23
M  V30 59 1 56 24
M  V30 60 1 57 24
M  V30 61 1 58 24
M  V30 62 1 59 25
M  V30 63 1 60 25
M  V30 64 1 26 61 CFG=3
M  V30 65 1 62 27
M  V30 66 1 63 27
M  V30 END BOND
M  V30 END CTAB
M  END
>  <i_epik_Tot_Q>  (1) 
0

>  <i_epik_Tot_abs_Q>  (1) 
0

>  <i_i_glide_confnum>  (1) 
233

>  <i_i_glide_lignum>  (1) 
112

>  <i_i_glide_posenum>  (1) 
216

>  <i_i_glide_rotatable_bonds>  (1) 
6

>  <i_lp_mmshare_version>  (1) 
72125

>  <i_m_source_file_index>  (1) 
46

>  <i_f3d_flags>  (1) 
0

>  <num_sample>  (1) 
50

>  <b_lp_Chiralities_Consistent>  (1) 
1

>  <r_epik_Charging_Adjusted_Penalty>  (1) 
0

>  <r_epik_Ionization_Penalty>  (1) 
0.00010055018107768494

>  <r_epik_Ionization_Penalty_Charging>  (1) 
0

>  <r_epik_Ionization_Penalty_Neutral>  (1) 
0.00010055018107768494

>  <r_epik_State_Penalty>  (1) 
-0

>  <r_glide_ring_energy>  (1) 
0.60680059682799004

>  <r_i_docking_score>  (1) 
-3.1981669746475552

>  <r_i_glide_ecoul>  (1) 
-3.301064806764594

>  <r_i_glide_eff_state_penalty>  (1) 
-0

>  <r_i_glide_einternal>  (1) 
1.999539831621044

>  <r_i_glide_emodel>  (1) 
-26.442425232516435

>  <r_i_glide_emodel_strain>  (1) 
0.16824745782309947

>  <r_i_glide_energy>  (1) 
-24.699730398615436

>  <r_i_glide_erotb>  (1) 
0.53594258102178693

>  <r_i_glide_esite>  (1) 
-0.016897327877289963

>  <r_i_glide_evdw>  (1) 
-21.398665591850843

>  <r_i_glide_gscore>  (1) 
-3.1981669746475552

>  <r_i_glide_gscore_strain>  (1) 
0

>  <r_i_glide_hbond>  (1) 
-0.32000000000000001

>  <r_i_glide_ligand_efficiency>  (1) 
-0.11845062869065019

>  <r_i_glide_ligand_efficiency_ln>  (1) 
-0.74448054579462053

>  <r_i_glide_ligand_efficiency_sa>  (1) 
-0.35535188607195062

>  <r_i_glide_lipo>  (1) 
-1.0175457271848198

>  <r_i_glide_metal>  (1) 
-0

>  <r_i_glide_rewards>  (1) 
-0.81457350000000117

>  <r_lp_Energy>  (1) 
38.981271

>  <r_lp_tautomer_probability>  (1) 
1

>  <s_epik_cmdline>  (1) 
J2VwaWtfcHl0aG9uJywgJy1waHQnLCAnMS4wJywgJy1waCcsICc3LjQnLCAnLXRuJywgJzgnLCAnLW1hJywgJzUwMCcsICctaW1hZScsICc8aW5maWxlLm1hZT4nLCAnLW9tYWUnLCAnPG91dGZpbGUubWFlPic=

>  <s_epik_input>  (1) 
W0NIM11PW0NAQEhdMVtDSDJdW0NIMl1bQ0BIXShbQ0gyXVtDSDJdW0NIMl0xKVtDSDJdW0NIXShPMilbQ0BdMihbT0hdKU9bQ0BIXShbQ0gyXTMpW0NIMl1PW0NASF0oW0NAXTM0W0NIM10pW0NAQEhdKFtDSDNdKVtDSF09W0NIXVtDSDJdNA==

>  <s_glide_docking_method>  (1) 
confgen

>  <s_i_glide_gridfile>  (1) 
gpcr_drd2_6luq_protein_autoprepared_prepared

>  <s_lp_Force_Field>  (1) 
S-OPLS

>  <s_lp_Variant>  (1) 
DiffSBDD_45_num_sample_50-1

>  <s_m_source_file>  (1) 
generated__ligand_DiffSBDD_2026-05-06_prepared.sdf

>  <GenAI_Model>  (1) 
DiffSBDD

>  <Protein>  (1) 
generic_title2

$$$$
DiffSBDD_10_num_sample_50
     RDKit          3D

  0  0  0  0  0  0  0  0  0  0999 V3000
M  V30 BEGIN CTAB
M  V30 COUNTS 71 72 0 0 1
M  V30 BEGIN ATOM
M  V30 1 C 7.648801 3.756485 -18.374516 0 CFG=2
M  V30 2 C 11.089460 8.750606 -6.481705 0
M  V30 3 C 9.434830 7.605499 -10.423174 0
M  V30 4 C 7.594346 5.348008 -12.747267 0 CFG=1
M  V30 5 C 7.527851 3.177649 -16.946692 0 CFG=2
M  V30 6 N 13.034854 8.569300 -7.891679 0
M  V30 7 N 8.634830 4.041497 -14.406247 0
M  V30 8 C 7.254164 4.135439 -14.719689 0 CFG=1
M  V30 9 S 7.370013 2.568783 -19.810808 0
M  V30 10 C 11.834773 8.850298 -5.162990 0
M  V30 11 S 9.212426 2.834382 -20.828565 0 CHG=-1
M  V30 12 C 7.940767 5.853135 -19.872181 0
M  V30 13 O 13.034806 8.569313 -1.147702 0
M  V30 14 O 7.332162 1.163948 -19.382453 0
M  V30 15 C 8.891654 3.404484 -17.581603 0 CFG=2
M  V30 16 C 10.160802 6.274638 -8.340223 0
M  V30 17 C 8.940399 4.773689 -13.198417 0 CFG=1
M  V30 18 N 12.619425 7.621437 -3.152832 0
M  V30 19 N 10.953215 8.554356 -8.855302 0
M  V30 20 C 11.815160 7.526593 -4.369326 0
M  V30 21 C 6.774931 6.630504 -14.851522 0
M  V30 22 C 7.211171 5.192437 -18.695376 0
M  V30 23 C 7.035112 1.780464 -16.577533 0
M  V30 24 C 7.731217 6.686768 -12.026842 0
M  V30 25 C 10.238779 7.555825 -9.190072 0
M  V30 26 O 9.611194 4.517512 -17.080432 0
M  V30 27 C 11.684639 8.626911 -7.686893 0
M  V30 28 O 6.303178 3.099677 -20.673453 0
M  V30 29 F 9.824741 5.722962 -13.491694 0
M  V30 30 N 9.056230 6.336102 -7.395327 0
M  V30 31 C 12.032338 8.457216 -2.124961 0
M  V30 32 C 6.688113 5.353117 -13.991321 0 CFG=2
M  V30 33 O 7.034856 4.226569 -16.093695 0
M  V30 34 C 8.600297 6.618089 -10.793829 0
M  V30 35 H 10.010670 8.784849 -6.425033 0
M  V30 36 H 9.537511 8.501863 -11.017240 0
M  V30 37 H 7.162077 4.629022 -12.047991 0
M  V30 38 H 13.685165 8.735140 -7.138872 0
M  V30 39 H 9.191050 4.407014 -15.176693 0
M  V30 40 H 6.749658 3.254119 -14.324612 0
M  V30 41 H 11.355956 9.650319 -4.598810 0
M  V30 42 H 12.858324 9.185204 -5.327630 0
M  V30 43 H 7.643618 6.898052 -19.970492 0
M  V30 44 H 9.020659 5.826897 -19.729810 0
M  V30 45 H 7.713564 5.361895 -20.818788 0
M  V30 46 H 13.352518 9.467973 -1.144540 0
M  V30 47 H 9.506394 2.553968 -17.872006 0
M  V30 48 H 10.083702 5.390300 -8.967882 0
M  V30 49 H 11.086981 6.131970 -7.783124 0
M  V30 50 H 9.396780 4.130828 -12.445348 0
M  V30 51 H 12.763091 6.700189 -2.763764 0
M  V30 52 H 12.234332 6.727480 -4.980066 0
M  V30 53 H 10.801267 7.187422 -4.175207 0
M  V30 54 H 7.810162 6.864725 -15.091829 0
M  V30 55 H 6.214970 6.534817 -15.781971 0
M  V30 56 H 6.352310 7.484822 -14.324334 0
M  V30 57 H 6.137050 5.186388 -18.880171 0
M  V30 58 H 7.367029 5.824996 -17.823098 0
M  V30 59 H 7.643482 1.012140 -17.047577 0
M  V30 60 H 7.117062 1.585832 -15.510163 0
M  V30 61 H 5.996754 1.648171 -16.879437 0
M  V30 62 H 6.740105 7.021765 -11.716534 0
M  V30 63 H 8.126441 7.458738 -12.687899 0
M  V30 64 H 10.052853 4.926516 -17.810056 0
M  V30 65 H 8.181115 6.569328 -7.863483 0
M  V30 66 H 8.915214 5.442115 -6.950832 0
M  V30 67 H 11.146682 7.978485 -1.705242 0
M  V30 68 H 11.765943 9.450590 -2.482554 0
M  V30 69 H 5.647107 5.163878 -13.728877 0
M  V30 70 H 8.504486 5.728667 -10.194769 0
M  V30 71 H 13.419859 8.625800 -8.823922 0
M  V30 END ATOM
M  V30 BEGIN BOND
M  V30 1 1 5 1
M  V30 2 1 8 7
M  V30 3 1 9 1
M  V30 4 1 10 2
M  V30 5 1 11 9
M  V30 6 2 14 9
M  V30 7 1 15 1
M  V30 8 1 15 5
M  V30 9 1 17 4
M  V30 10 1 17 7
M  V30 11 1 20 10
M  V30 12 1 20 18
M  V30 13 1 1 22 CFG=1
M  V30 14 1 22 12
M  V30 15 1 23 5
M  V30 16 1 24 4
M  V30 17 1 25 3
M  V30 18 1 25 16
M  V30 19 2 25 19
M  V30 20 1 26 15
M  V30 21 2 27 2
M  V30 22 1 27 6
M  V30 23 1 27 19
M  V30 24 2 28 9
M  V30 25 1 29 17
M  V30 26 1 30 16
M  V30 27 1 31 13
M  V30 28 1 31 18
M  V30 29 1 32 4
M  V30 30 1 32 8
M  V30 31 1 32 21
M  V30 32 1 5 33 CFG=1
M  V30 33 1 33 8
M  V30 34 2 34 3
M  V30 35 1 34 24
M  V30 36 1 35 2
M  V30 37 1 36 3
M  V30 38 1 4 37 CFG=1
M  V30 39 1 38 6
M  V30 40 1 39 7
M  V30 41 1 8 40 CFG=1
M  V30 42 1 41 10
M  V30 43 1 42 10
M  V30 44 1 43 12
M  V30 45 1 44 12
M  V30 46 1 45 12
M  V30 47 1 46 13
M  V30 48 1 15 47 CFG=3
M  V30 49 1 48 16
M  V30 50 1 49 16
M  V30 51 1 17 50 CFG=1
M  V30 52 1 51 18
M  V30 53 1 52 20
M  V30 54 1 53 20
M  V30 55 1 54 21
M  V30 56 1 55 21
M  V30 57 1 56 21
M  V30 58 1 57 22
M  V30 59 1 58 22
M  V30 60 1 59 23
M  V30 61 1 60 23
M  V30 62 1 61 23
M  V30 63 1 62 24
M  V30 64 1 63 24
M  V30 65 1 64 26
M  V30 66 1 65 30
M  V30 67 1 66 30
M  V30 68 1 67 31
M  V30 69 1 68 31
M  V30 70 1 32 69 CFG=1
M  V30 71 1 70 34
M  V30 72 1 71 6
M  V30 END BOND
M  V30 END CTAB
M  END
>  <i_epik_Tot_Q>  (1) 
-1

>  <i_epik_Tot_abs_Q>  (1) 
1

>  <i_i_glide_confnum>  (1) 
3675

>  <i_i_glide_lignum>  (1) 
40

>  <i_i_glide_posenum>  (1) 
374

>  <i_i_glide_rotatable_bonds>  (1) 
15

>  <i_lp_mmshare_version>  (1) 
72125

>  <i_m_source_file_index>  (1) 
11

>  <i_f3d_flags>  (1) 
0

>  <num_sample>  (1) 
50

>  <b_lp_Chiralities_Consistent>  (1) 
1

>  <r_epik_Charging_Adjusted_Penalty>  (1) 
1.239197207418439

>  <r_epik_Ionization_Penalty>  (1) 
1.2496715491914541

>  <r_epik_Ionization_Penalty_Charging>  (1) 
1.1069707349969355e-11

>  <r_epik_Ionization_Penalty_Neutral>  (1) 
1.2496715491803843

>  <r_epik_State_Penalty>  (1) 
1.2391972074073692

>  <r_glide_ring_energy>  (1) 
0

>  <r_i_docking_score>  (1) 
-3.1943325584396964

>  <r_i_glide_ecoul>  (1) 
-4.6367554834728999

>  <r_i_glide_eff_state_penalty>  (1) 
1.2391972074073692

>  <r_i_glide_einternal>  (1) 
4.2610273734866624

>  <r_i_glide_emodel>  (1) 
-42.674964316553286

>  <r_i_glide_emodel_strain>  (1) 
0.71590294674622612

>  <r_i_glide_energy>  (1) 
-35.628254955771979

>  <r_i_glide_erotb>  (1) 
0.82803537691766171

>  <r_i_glide_esite>  (1) 
-0.071664529171570374

>  <r_i_glide_evdw>  (1) 
-30.991499472299076

>  <r_i_glide_gscore>  (1) 
-4.4335297658470658

>  <r_i_glide_gscore_strain>  (1) 
0

>  <r_i_glide_hbond>  (1) 
-0.43955732578606976

>  <r_i_glide_ligand_efficiency>  (1) 
-0.093950957601167548

>  <r_i_glide_ligand_efficiency_ln>  (1) 
-0.70571766015270687

>  <r_i_glide_ligand_efficiency_sa>  (1) 
-0.30436463098606287

>  <r_i_glide_lipo>  (1) 
-1.5760472492832716

>  <r_i_glide_metal>  (1) 
-0

>  <r_i_glide_rewards>  (1) 
-0.9292077423879268

>  <r_lp_Energy>  (1) 
23.962672999999999

>  <s_epik_Chemistry_Notes>  (1) 
This compound has an imine and may undergo hydrolysis. This compound contains an acetal/aminal-like group ( X-CH(R)-Y where X, Y are N, S, or O) that may be acid/base labile, releasing an aldehyde.

>  <s_epik_cmdline>  (1) 
J2VwaWtfcHl0aG9uJywgJy1waHQnLCAnMS4wJywgJy1waCcsICc3LjQnLCAnLXRuJywgJzgnLCAnLW1hJywgJzUwMCcsICctaW1hZScsICc8aW5maWxlLm1hZT4nLCAnLW9tYWUnLCAnPG91dGZpbGUubWFlPic=

>  <s_epik_input>  (1) 
W1NIXVMoPU8pKD1PKVtDQEBdMShbQ0gyXVtDSDNdKVtDQEBdKFtDSDNdKShbQ0BASF0xW09IXSlPW0NASF0oW0NAQEhdMltDSDNdKVtOSF1bQ0BASF0oRilbQ0BIXTJbQ0gyXVxbQ0hdPVtDSF1cQyhbQ0gyXVtOSDJdKT1OXEMoPU5cW0hdKVxbQ0gyXVtDSDJdW0NIMl1bTkhdW0NIMl1bT0hd

>  <s_glide_docking_method>  (1) 
confgen

>  <s_i_glide_gridfile>  (1) 
gpcr_drd2_6luq_protein_autoprepared_prepared

>  <s_lp_Force_Field>  (1) 
S-OPLS

>  <s_lp_Variant>  (1) 
DiffSBDD_10_num_sample_50-20

>  <s_m_source_file>  (1) 
generated__ligand_DiffSBDD_2026-05-06_prepared.sdf

>  <GenAI_Model>  (1) 
DiffSBDD

>  <Protein>  (1) 
generic_title2

$$$$
DiffSBDD_28_num_sample_50
     RDKit          3D

  0  0  0  0  0  0  0  0  0  0999 V3000
M  V30 BEGIN CTAB
M  V30 COUNTS 71 73 0 0 1
M  V30 BEGIN ATOM
M  V30 1 N 9.146206 4.257338 -13.089653 0 CFG=1 CHG=1
M  V30 2 C 6.252107 -0.626432 -11.700056 0
M  V30 3 C 10.474594 6.538214 -8.066119 0 CFG=2
M  V30 4 C 9.450949 3.708834 -11.761408 0
M  V30 5 N 5.925065 -0.110236 -17.368667 0
M  V30 6 O 5.949336 6.701857 -12.406439 0 CHG=-1
M  V30 7 C 8.155216 3.527971 -13.929602 0 CFG=1
M  V30 8 N 8.412064 5.684687 -14.659801 0
M  V30 9 F 4.943921 -2.159715 -17.054794 0
M  V30 10 C 10.804627 8.301281 -9.723960 0
M  V30 11 O 7.421631 4.293630 -16.162706 0
M  V30 12 C 11.355144 7.745665 -8.411819 0
M  V30 13 C 10.170046 7.121604 -10.476626 0 CFG=1
M  V30 14 C 9.630194 6.263767 -9.320766 0
M  V30 15 O 8.006688 0.302667 -13.062651 0
M  V30 16 N 5.733265 0.150419 -15.112676 0
M  V30 17 N 5.941210 -0.327360 -19.794217 0
M  V30 18 C 6.470134 0.419097 -16.206513 0
M  V30 19 C 6.797419 0.169658 -12.882993 0
M  V30 20 C 6.871039 3.172815 -13.134322 0
M  V30 21 C 7.950386 0.796944 -18.702841 0 CFG=2
M  V30 22 C 5.836125 2.352649 -13.855215 0
M  V30 23 F 8.892608 1.189549 -20.931082 0
M  V30 24 C 8.331446 6.711495 -12.446151 0 CFG=1
M  V30 25 F 8.950387 0.065220 -18.202536 0
M  V30 26 O 7.502749 1.081875 -16.154477 0
M  V30 27 O 7.015661 5.369030 -10.977495 0
M  V30 28 C 5.787078 0.806519 -13.801466 0 CFG=1
M  V30 29 C 9.596765 6.746550 -6.821126 0
M  V30 30 C 9.086962 5.722750 -13.387855 0 CFG=1
M  V30 31 C 6.867164 0.119698 -20.689777 0
M  V30 32 C 6.983566 6.222478 -11.888941 0
M  V30 33 C 7.909545 4.534685 -15.062991 0
M  V30 34 C 4.658784 -0.887739 -17.327812 0
M  V30 35 C 6.518350 0.070208 -18.675148 0
M  V30 36 C 7.904866 0.697106 -20.165778 0
M  V30 37 C 9.155438 7.652185 -11.523366 0
M  V30 38 H 5.254352 -1.020926 -11.889687 0
M  V30 39 H 6.905461 -1.468376 -11.493485 0
M  V30 40 H 6.223370 0.003117 -10.812816 0
M  V30 41 H 11.116049 5.682746 -7.870019 0
M  V30 42 H 8.630220 3.669530 -11.065388 0
M  V30 43 H 9.831890 2.692742 -11.888953 0
M  V30 44 H 10.234369 4.286971 -11.312986 0
M  V30 45 H 8.608575 2.624345 -14.328878 0
M  V30 46 H 8.351214 6.516348 -15.228195 0
M  V30 47 H 11.576107 8.808735 -10.298146 0
M  V30 48 H 10.032116 9.035978 -9.489623 0
M  V30 49 H 12.382802 7.418484 -8.562572 0
M  V30 50 H 11.372504 8.501699 -7.626079 0
M  V30 51 H 10.947701 6.574696 -11.005810 0
M  V30 52 H 8.623144 6.567648 -9.113708 0
M  V30 53 H 9.561451 5.202627 -9.529133 0
M  V30 54 H 5.014184 -0.549069 -15.214860 0
M  V30 55 H 6.327210 4.085363 -12.954449 0
M  V30 56 H 7.050262 2.744557 -12.166833 0
M  V30 57 H 7.956794 1.838842 -18.380216 0
M  V30 58 H 6.049075 2.693136 -14.850910 0
M  V30 59 H 4.871720 2.722974 -13.491704 0
M  V30 60 H 7.985607 7.475018 -13.148425 0
M  V30 61 H 4.806182 0.565848 -13.388434 0
M  V30 62 H 8.879863 7.553639 -6.978396 0
M  V30 63 H 9.033824 5.837305 -6.595190 0
M  V30 64 H 10.188603 7.003005 -5.943402 0
M  V30 65 H 10.113120 6.071746 -13.513448 0
M  V30 66 H 6.692843 -0.022382 -21.747021 0
M  V30 67 H 3.923172 -0.540791 -16.598950 0
M  V30 68 H 4.102401 -0.892437 -18.265704 0
M  V30 69 H 9.719032 8.318797 -12.179329 0
M  V30 70 H 8.445920 8.320581 -11.038205 0
M  V30 71 H 10.012753 4.042426 -13.563713 0
M  V30 END ATOM
M  V30 BEGIN BOND
M  V30 1 1 4 1
M  V30 2 1 7 1
M  V30 3 1 12 3
M  V30 4 1 12 10
M  V30 5 1 13 10
M  V30 6 1 14 3
M  V30 7 1 14 13
M  V30 8 1 18 5
M  V30 9 1 18 16
M  V30 10 1 19 2
M  V30 11 2 19 15
M  V30 12 1 20 7
M  V30 13 1 22 20
M  V30 14 1 25 21
M  V30 15 2 26 18
M  V30 16 1 28 16
M  V30 17 1 28 19
M  V30 18 1 28 22
M  V30 19 1 29 3
M  V30 20 1 30 1
M  V30 21 1 30 8
M  V30 22 1 30 24
M  V30 23 1 31 17
M  V30 24 1 32 6
M  V30 25 1 32 24
M  V30 26 2 32 27
M  V30 27 1 33 7
M  V30 28 1 33 8
M  V30 29 2 33 11
M  V30 30 1 34 5
M  V30 31 1 34 9
M  V30 32 1 35 5
M  V30 33 2 35 17
M  V30 34 1 35 21
M  V30 35 1 36 21
M  V30 36 1 36 23
M  V30 37 2 36 31
M  V30 38 1 37 13
M  V30 39 1 37 24
M  V30 40 1 38 2
M  V30 41 1 39 2
M  V30 42 1 40 2
M  V30 43 1 3 41 CFG=1
M  V30 44 1 42 4
M  V30 45 1 43 4
M  V30 46 1 44 4
M  V30 47 1 7 45 CFG=3
M  V30 48 1 46 8
M  V30 49 1 47 10
M  V30 50 1 48 10
M  V30 51 1 49 12
M  V30 52 1 50 12
M  V30 53 1 13 51 CFG=3
M  V30 54 1 52 14
M  V30 55 1 53 14
M  V30 56 1 54 16
M  V30 57 1 55 20
M  V30 58 1 56 20
M  V30 59 1 21 57 CFG=3
M  V30 60 1 58 22
M  V30 61 1 59 22
M  V30 62 1 24 60 CFG=3
M  V30 63 1 28 61 CFG=1
M  V30 64 1 62 29
M  V30 65 1 63 29
M  V30 66 1 64 29
M  V30 67 1 30 65 CFG=3
M  V30 68 1 66 31
M  V30 69 1 67 34
M  V30 70 1 68 34
M  V30 71 1 69 37
M  V30 72 1 70 37
M  V30 73 1 1 71 CFG=3
M  V30 END BOND
M  V30 END CTAB
M  END
>  <i_epik_Tot_Q>  (1) 
0

>  <i_epik_Tot_abs_Q>  (1) 
2

>  <i_i_glide_confnum>  (1) 
2002

>  <i_i_glide_lignum>  (1) 
70

>  <i_i_glide_posenum>  (1) 
35

>  <i_i_glide_rotatable_bonds>  (1) 
13

>  <i_lp_mmshare_version>  (1) 
72125

>  <i_m_source_file_index>  (1) 
29

>  <i_f3d_flags>  (1) 
0

>  <num_sample>  (1) 
50

>  <b_lp_Chiralities_Consistent>  (1) 
1

>  <r_epik_Charging_Adjusted_Penalty>  (1) 
0.054083419880676768

>  <r_epik_Ionization_Penalty>  (1) 
0.12983459298085004

>  <r_epik_Ionization_Penalty_Charging>  (1) 
0.054083419880676768

>  <r_epik_Ionization_Penalty_Neutral>  (1) 
0.075751173100173264

>  <r_epik_State_Penalty>  (1) 
-0

>  <r_glide_ring_energy>  (1) 
0

>  <r_i_docking_score>  (1) 
-3.1894306443004155

>  <r_i_glide_ecoul>  (1) 
-1.2814971010142517

>  <r_i_glide_eff_state_penalty>  (1) 
-0

>  <r_i_glide_einternal>  (1) 
51.847588527579838

>  <r_i_glide_emodel>  (1) 
-8.4813691880476547

>  <r_i_glide_emodel_strain>  (1) 
3.5701074174822622

>  <r_i_glide_energy>  (1) 
-30.021914750432821

>  <r_i_glide_erotb>  (1) 
0.66137813184917615

>  <r_i_glide_esite>  (1) 
-0.11901111071562581

>  <r_i_glide_evdw>  (1) 
-28.740417649418568

>  <r_i_glide_gscore>  (1) 
-3.1894306443004155

>  <r_i_glide_gscore_strain>  (1) 
0

>  <r_i_glide_hbond>  (1) 
0

>  <r_i_glide_ligand_efficiency>  (1) 
-0.086200828224335557

>  <r_i_glide_ligand_efficiency_ln>  (1) 
-0.69171273588589477

>  <r_i_glide_ligand_efficiency_sa>  (1) 
-0.28724028343911018

>  <r_i_glide_lipo>  (1) 
-1.0912458224168702

>  <r_i_glide_metal>  (1) 
-0

>  <r_i_glide_rewards>  (1) 
-1.0113063953940296

>  <r_lp_Energy>  (1) 
39.617291999999999

>  <r_lp_tautomer_probability>  (1) 
1

>  <s_epik_Chemistry_Notes>  (1) 
This compound has an imine and may undergo hydrolysis. This compound contains an acetal/aminal-like group ( X-CH(R)-Y where X, Y are N, S, or O) that may be acid/base labile, releasing an aldehyde.

>  <s_epik_cmdline>  (1) 
J2VwaWtfcHl0aG9uJywgJy1waHQnLCAnMS4wJywgJy1waCcsICc3LjQnLCAnLXRuJywgJzgnLCAnLW1hJywgJzUwMCcsICctaW1hZScsICc8aW5maWxlLm1hZT4nLCAnLW9tYWUnLCAnPG91dGZpbGUubWFlPic=

>  <s_epik_input>  (1) 
W0NIM11bQ0BASF0xW0NIMl1bQ0gyXVtDQEBIXShbQ0gyXTEpW0NIMl1bQ0BIXShDKD1PKVtPSF0pW0NAQEhdMltOSF1DKD1PKVtDQEBIXShOMltDSDNdKVtDSDJdW0NIMl1bQ0BIXShDKD1PKVtDSDNdKVtOSF1DKD1PKU4oW0NIMl1GKUMoW0NASF0zRik9TltDSF09QzNG

>  <s_glide_docking_method>  (1) 
confgen

>  <s_i_glide_gridfile>  (1) 
gpcr_drd2_6luq_protein_autoprepared_prepared

>  <s_lp_Force_Field>  (1) 
S-OPLS

>  <s_lp_Variant>  (1) 
DiffSBDD_28_num_sample_50-2

>  <s_m_source_file>  (1) 
generated__ligand_DiffSBDD_2026-05-06_prepared.sdf

>  <GenAI_Model>  (1) 
DiffSBDD

>  <Protein>  (1) 
generic_title2

$$$$
DiffSBDD_29_num_sample_50
     RDKit          3D

  0  0  0  0  0  0  0  0  0  0999 V3000
M  V30 BEGIN CTAB
M  V30 COUNTS 63 66 0 0 1
M  V30 BEGIN ATOM
M  V30 1 C 14.752829 6.530080 -18.602069 0
M  V30 2 O 8.194761 5.442170 -14.700882 0
M  V30 3 C 5.770302 5.970099 -11.903334 0
M  V30 4 C 13.566312 7.068765 -19.351156 0
M  V30 5 O 6.754544 3.028395 -14.096379 0
M  V30 6 N 10.959780 5.066089 -17.249194 0
M  V30 7 C 5.696016 4.850052 -12.958369 0
M  V30 8 C 8.041135 7.152962 -12.309835 0
M  V30 9 C 10.217788 5.890718 -12.217213 0
M  V30 10 C 16.898297 6.608465 -17.543991 0
M  V30 11 C 11.642570 6.187676 -17.903536 0
M  V30 12 C 11.976657 4.137658 -16.748919 0
M  V30 13 C 6.676548 1.693838 -13.618587 0
M  V30 14 C 8.278709 4.782217 -13.434661 0 CFG=1
M  V30 15 C 14.641102 5.245195 -18.230086 0
M  V30 16 C 12.913032 3.589655 -17.836166 0
M  V30 17 C 12.583113 5.801520 -19.071272 0 CFG=2
M  V30 18 C 8.698298 5.757454 -12.302182 0 CFG=2
M  V30 19 C 15.894080 7.266701 -18.274683 0
M  V30 20 C 8.855828 4.791259 -15.792848 0
M  V30 21 N 15.564273 4.546084 -17.519203 0
M  V30 22 C 6.979407 4.013292 -13.092380 0 CFG=2
M  V30 23 C 6.510947 7.204691 -12.431645 0
M  V30 24 N 13.462447 4.678189 -18.640489 0
M  V30 25 C 16.686734 5.251587 -17.185473 0
M  V30 26 N 16.146512 9.769301 -18.978776 0
M  V30 27 C 10.145502 5.560675 -16.132687 0
M  V30 28 C 16.036819 8.661448 -18.666321 0
M  V30 29 C 8.082152 1.135745 -13.376370 0
M  V30 30 H 6.202023 5.615285 -10.967184 0
M  V30 31 H 4.762008 6.276928 -11.634522 0
M  V30 32 H 13.189705 8.014729 -18.957340 0
M  V30 33 H 13.806726 7.173909 -20.409362 0
M  V30 34 H 4.887098 4.172288 -12.684139 0
M  V30 35 H 5.416786 5.260629 -13.929346 0
M  V30 36 H 8.313512 7.647306 -11.376934 0
M  V30 37 H 8.476935 7.770869 -13.091827 0
M  V30 38 H 10.648134 6.304901 -13.125541 0
M  V30 39 H 10.517031 6.528193 -11.384475 0
M  V30 40 H 10.634885 4.900626 -12.053274 0
M  V30 41 H 17.804341 7.122583 -17.256536 0
M  V30 42 H 12.216528 6.734017 -17.152097 0
M  V30 43 H 10.907431 6.891366 -18.292269 0
M  V30 44 H 11.472919 3.296094 -16.291699 0
M  V30 45 H 12.577973 4.614665 -15.972786 0
M  V30 46 H 6.058688 1.630282 -12.721075 0
M  V30 47 H 6.179665 1.089484 -14.377648 0
M  V30 48 H 9.062002 4.024498 -13.476515 0
M  V30 49 H 12.342744 2.945846 -18.505666 0
M  V30 50 H 13.682914 2.954533 -17.398392 0
M  V30 51 H 12.006978 5.529266 -19.955959 0
M  V30 52 H 8.424441 5.287324 -11.357007 0
M  V30 53 H 8.186357 4.835236 -16.651785 0
M  V30 54 H 9.034841 3.733354 -15.613648 0
M  V30 55 H 7.144525 3.531285 -12.126752 0
M  V30 56 H 6.160091 8.085897 -11.891671 0
M  V30 57 H 6.235081 7.369296 -13.472972 0
M  V30 58 H 17.434449 4.716236 -16.618934 0
M  V30 59 H 10.761618 5.654055 -15.239027 0
M  V30 60 H 9.834906 6.569218 -16.361250 0
M  V30 61 H 8.029229 0.140998 -12.942778 0
M  V30 62 H 8.634839 1.067096 -14.312296 0
M  V30 63 H 8.657240 1.757208 -12.691591 0
M  V30 END ATOM
M  V30 BEGIN BOND
M  V30 1 1 4 1
M  V30 2 1 7 3
M  V30 3 1 11 6
M  V30 4 1 12 6
M  V30 5 1 13 5
M  V30 6 1 14 2
M  V30 7 1 15 1
M  V30 8 1 16 12
M  V30 9 1 17 4
M  V30 10 1 17 11
M  V30 11 1 18 8
M  V30 12 1 18 9
M  V30 13 1 18 14
M  V30 14 2 19 1
M  V30 15 1 19 10
M  V30 16 1 20 2
M  V30 17 2 21 15
M  V30 18 1 22 5
M  V30 19 1 22 7
M  V30 20 1 22 14
M  V30 21 1 23 3
M  V30 22 1 23 8
M  V30 23 1 24 15
M  V30 24 1 24 16
M  V30 25 1 24 17
M  V30 26 2 25 10
M  V30 27 1 25 21
M  V30 28 1 27 6
M  V30 29 1 27 20
M  V30 30 1 28 19
M  V30 31 3 28 26
M  V30 32 1 29 13
M  V30 33 1 30 3
M  V30 34 1 31 3
M  V30 35 1 32 4
M  V30 36 1 33 4
M  V30 37 1 34 7
M  V30 38 1 35 7
M  V30 39 1 36 8
M  V30 40 1 37 8
M  V30 41 1 38 9
M  V30 42 1 39 9
M  V30 43 1 40 9
M  V30 44 1 41 10
M  V30 45 1 42 11
M  V30 46 1 43 11
M  V30 47 1 44 12
M  V30 48 1 45 12
M  V30 49 1 46 13
M  V30 50 1 47 13
M  V30 51 1 14 48 CFG=3
M  V30 52 1 49 16
M  V30 53 1 50 16
M  V30 54 1 17 51 CFG=3
M  V30 55 1 18 52 CFG=1
M  V30 56 1 53 20
M  V30 57 1 54 20
M  V30 58 1 22 55 CFG=1
M  V30 59 1 56 23
M  V30 60 1 57 23
M  V30 61 1 58 25
M  V30 62 1 59 27
M  V30 63 1 60 27
M  V30 64 1 61 29
M  V30 65 1 62 29
M  V30 66 1 63 29
M  V30 END BOND
M  V30 END CTAB
M  END
>  <i_epik_Tot_Q>  (1) 
0

>  <i_epik_Tot_abs_Q>  (1) 
0

>  <i_i_glide_confnum>  (1) 
154

>  <i_i_glide_lignum>  (1) 
71

>  <i_i_glide_posenum>  (1) 
39

>  <i_i_glide_rotatable_bonds>  (1) 
6

>  <i_lp_mmshare_version>  (1) 
72125

>  <i_m_source_file_index>  (1) 
30

>  <i_f3d_flags>  (1) 
0

>  <num_sample>  (1) 
50

>  <b_lp_Chiralities_Consistent>  (1) 
1

>  <r_epik_Charging_Adjusted_Penalty>  (1) 
0.33209033116494396

>  <r_epik_Ionization_Penalty>  (1) 
0.33211857123964

>  <r_epik_Ionization_Penalty_Charging>  (1) 
0

>  <r_epik_Ionization_Penalty_Neutral>  (1) 
0.33211857123964

>  <r_epik_State_Penalty>  (1) 
0.33209033116494396

>  <r_glide_ring_energy>  (1) 
0.17809710789905059

>  <r_i_docking_score>  (1) 
-3.1879747788184418

>  <r_i_glide_ecoul>  (1) 
-1.6871963380029826

>  <r_i_glide_eff_state_penalty>  (1) 
0.33209033116494396

>  <r_i_glide_einternal>  (1) 
4.5696944130570252

>  <r_i_glide_emodel>  (1) 
-31.315443313557488

>  <r_i_glide_emodel_strain>  (1) 
0.1823676529254783

>  <r_i_glide_energy>  (1) 
-27.945704670793184

>  <r_i_glide_erotb>  (1) 
0.61650785367983663

>  <r_i_glide_esite>  (1) 
0

>  <r_i_glide_evdw>  (1) 
-26.2585083327902

>  <r_i_glide_gscore>  (1) 
-3.5200651099833857

>  <r_i_glide_gscore_strain>  (1) 
0

>  <r_i_glide_hbond>  (1) 
0

>  <r_i_glide_ligand_efficiency>  (1) 
-0.10993016478684282

>  <r_i_glide_ligand_efficiency_ln>  (1) 
-0.72996538428410396

>  <r_i_glide_ligand_efficiency_sa>  (1) 
-0.3377402949250351

>  <r_i_glide_lipo>  (1) 
-1.464779315367045

>  <r_i_glide_metal>  (1) 
-0

>  <r_i_glide_rewards>  (1) 
-1.1057887809562192

>  <r_lp_Energy>  (1) 
50.742739

>  <s_epik_cmdline>  (1) 
J2VwaWtfcHl0aG9uJywgJy1waHQnLCAnMS4wJywgJy1waCcsICc3LjQnLCAnLXRuJywgJzgnLCAnLW1hJywgJzUwMCcsICctaW1hZScsICc8aW5maWxlLm1hZT4nLCAnLW9tYWUnLCAnPG91dGZpbGUubWFlPic=

>  <s_epik_input>  (1) 
TiNDYzFbY0hdW2NIXW5jKGMxMilOM1tDQEhdKFtDSDJdMilbQ0gyXU4oW0NIMl1bQ0gyXTMpW0NIMl1bQ0gyXU9bQ0BIXTRbQ0BASF0oW0NIM10pW0NIMl1bQ0gyXVtDSDJdW0NIMl1bQ0BIXTRPW0NIMl1bQ0gzXQ==

>  <s_glide_docking_method>  (1) 
confgen

>  <s_i_glide_gridfile>  (1) 
gpcr_drd2_6luq_protein_autoprepared_prepared

>  <s_lp_Force_Field>  (1) 
S-OPLS

>  <s_lp_Variant>  (1) 
DiffSBDD_29_num_sample_50-1

>  <s_m_source_file>  (1) 
generated__ligand_DiffSBDD_2026-05-06_prepared.sdf

>  <GenAI_Model>  (1) 
DiffSBDD

>  <Protein>  (1) 
generic_title2

$$$$
DiffSBDD_41_num_sample_50
     RDKit          3D

  0  0  0  0  0  0  0  0  0  0999 V3000
M  V30 BEGIN CTAB
M  V30 COUNTS 105 110 0 0 1
M  V30 BEGIN ATOM
M  V30 1 C 5.346844 5.781070 -11.189979 0
M  V30 2 C 7.202278 4.686991 -15.698197 0
M  V30 3 C 8.055739 4.641712 -14.414687 0
M  V30 4 C 10.556030 5.375316 -12.293002 0
M  V30 5 C 6.024796 6.702574 -11.870819 0
M  V30 6 O 7.247019 3.835253 -17.938087 0
M  V30 7 C 10.272882 -0.463215 -19.163968 0
M  V30 8 N 7.366601 -0.526822 -16.848969 0
M  V30 9 O 6.843398 -5.192083 -17.488375 0
M  V30 10 C 6.416458 1.236122 -15.081598 0 CFG=2
M  V30 11 C 11.481491 6.623638 -12.251574 0
M  V30 12 O 7.006084 1.943312 -13.997576 0
M  V30 13 C 8.444260 -0.224675 -14.714577 0
M  V30 14 C 6.079065 -3.380340 -18.955973 0 CFG=1
M  V30 15 C 4.752105 0.763816 -19.302072 0
M  V30 16 C 7.519172 -4.254285 -19.761800 0 CFG=2
M  V30 17 C 6.067826 2.474684 -13.081870 0
M  V30 18 C 6.011688 4.023814 -12.935540 0 CFG=1
M  V30 19 C 6.327554 -3.573454 -20.460012 0
M  V30 20 C 5.262453 4.340715 -11.626235 0
M  V30 21 C 6.783097 -6.576115 -17.211479 0
M  V30 22 C 9.873556 1.729710 -17.846660 0
M  V30 23 O 9.257316 -1.248753 -18.543129 0
M  V30 24 C 8.635643 -5.031463 -20.434204 0
M  V30 25 C 7.897576 4.095495 -16.926792 0
M  V30 26 C 5.513485 0.755187 -17.968190 0
M  V30 27 N 7.081379 -0.692265 -19.175887 0 CHG=1
M  V30 28 N 9.218077 3.876288 -16.830814 0
M  V30 29 C 10.033314 1.056933 -19.218784 0
M  V30 30 C 6.802309 6.389187 -13.104231 0 CFG=2
M  V30 31 S 4.621969 -2.599443 -18.202703 0
M  V30 32 C 7.308368 4.903411 -13.080234 0 CFG=2
M  V30 33 O 7.840303 7.317049 -13.231454 0
M  V30 34 C 11.549364 7.332960 -10.870578 0
M  V30 35 F 10.073539 -5.149090 -22.303462 0
M  V30 36 C 5.829885 -0.137969 -14.755820 0
M  V30 37 C 6.686691 -0.186548 -17.990382 0
M  V30 38 C 8.168896 -1.652472 -19.322606 0 CFG=2
M  V30 39 C 10.184987 7.335262 -10.218461 0
M  V30 40 C 9.202259 6.497279 -10.577163 0
M  V30 41 C 9.181582 -4.359675 -21.708172 0
M  V30 42 C 7.157569 -0.010228 -15.466192 0 CFG=2
M  V30 43 F 8.205685 -4.093343 -22.575839 0
M  V30 44 N 9.314547 5.550836 -11.572107 0
M  V30 45 C 8.250362 4.584587 -11.856670 0
M  V30 46 C 6.460120 -4.859800 -18.816828 0 CFG=1
M  V30 47 C 9.991988 3.266587 -17.903077 0
M  V30 48 C 7.598637 -3.010143 -18.823541 0 CFG=1
M  V30 49 H 4.809872 6.057032 -10.289264 0
M  V30 50 H 6.891818 5.704497 -15.929015 0
M  V30 51 H 6.293280 4.119586 -15.541431 0
M  V30 52 H 8.596212 3.698933 -14.335804 0
M  V30 53 H 8.821715 5.398352 -14.564833 0
M  V30 54 H 11.034835 4.490837 -11.896504 0
M  V30 55 H 10.340820 5.125312 -13.323316 0
M  V30 56 H 6.047279 7.723618 -11.517593 0
M  V30 57 H 11.177489 -0.624540 -18.576784 0
M  V30 58 H 10.488890 -0.840069 -20.164629 0
M  V30 59 H 8.124780 -1.192416 -16.949255 0
M  V30 60 H 6.176455 1.895663 -15.883937 0
M  V30 61 H 11.120938 7.342436 -12.981765 0
M  V30 62 H 12.469146 6.338827 -12.606743 0
M  V30 63 H 8.267056 -0.479248 -13.689660 0
M  V30 64 H 9.034984 -1.028018 -15.146780 0
M  V30 65 H 8.995970 0.716932 -14.689388 0
M  V30 66 H 3.847967 1.352224 -19.201461 0
M  V30 67 H 5.353600 1.259387 -20.058917 0
M  V30 68 H 4.480766 -0.229580 -19.656191 0
M  V30 69 H 6.314792 2.016478 -12.126007 0
M  V30 70 H 5.069887 2.117764 -13.348120 0
M  V30 71 H 5.322926 4.368104 -13.708551 0
M  V30 72 H 5.627181 -4.226833 -20.990382 0
M  V30 73 H 6.538725 -2.673838 -21.040180 0
M  V30 74 H 5.533292 3.684592 -10.797580 0
M  V30 75 H 4.237262 4.165155 -11.900838 0
M  V30 76 H 7.092813 -6.744198 -16.179931 0
M  V30 77 H 5.771584 -6.967955 -17.329465 0
M  V30 78 H 7.447533 -7.133230 -17.868522 0
M  V30 79 H 8.903153 1.451514 -17.444682 0
M  V30 80 H 10.610880 1.346967 -17.139988 0
M  V30 81 H 9.432387 -5.178039 -19.712480 0
M  V30 82 H 8.278098 -6.028631 -20.685198 0
M  V30 83 H 8.446387 -1.700847 -20.374177 0
M  V30 84 H 4.821745 0.446001 -17.189591 0
M  V30 85 H 9.698365 4.117164 -15.975286 0
M  V30 86 H 10.889511 1.511755 -19.720990 0
M  V30 87 H 9.166867 1.278895 -19.840561 0
M  V30 88 H 6.131436 6.568730 -13.943471 0
M  V30 89 H 4.775185 -3.097032 -16.975374 0
M  V30 90 H 8.518818 7.049401 -12.617372 0
M  V30 91 H 11.967166 8.312720 -10.984850 0
M  V30 92 H 12.219536 6.876272 -10.149066 0
M  V30 93 H 5.862116 -0.480907 -13.721993 0
M  V30 94 H 4.987855 -0.545046 -15.306914 0
M  V30 95 H 5.844647 1.777543 -17.842429 0
M  V30 96 H 10.023122 8.041703 -9.420770 0
M  V30 97 H 8.238852 6.505709 -10.096731 0
M  V30 98 H 9.685546 -3.420571 -21.492045 0
M  V30 99 H 7.681982 4.477886 -10.934694 0
M  V30 100 H 8.710647 3.604092 -11.994914 0
M  V30 101 H 5.744063 -5.561535 -19.258250 0
M  V30 102 H 11.034343 3.563156 -17.779869 0
M  V30 103 H 9.674697 3.664260 -18.868629 0
M  V30 104 H 8.008140 -3.237320 -17.837159 0
M  V30 105 H 6.598004 -0.364662 -19.999718 0
M  V30 END ATOM
M  V30 BEGIN BOND
M  V30 1 1 3 2
M  V30 2 2 5 1
M  V30 3 1 11 4
M  V30 4 1 12 10
M  V30 5 1 17 12
M  V30 6 1 18 17
M  V30 7 1 19 14
M  V30 8 1 19 16
M  V30 9 1 20 1
M  V30 10 1 20 18
M  V30 11 1 21 9
M  V30 12 1 23 7
M  V30 13 1 16 24 CFG=3
M  V30 14 1 25 2
M  V30 15 2 25 6
M  V30 16 1 26 15
M  V30 17 1 28 25
M  V30 18 1 29 7
M  V30 19 1 29 22
M  V30 20 1 30 5
M  V30 21 1 14 31 CFG=3
M  V30 22 1 32 3
M  V30 23 1 32 18
M  V30 24 1 32 30
M  V30 25 1 33 30
M  V30 26 1 34 11
M  V30 27 1 36 10
M  V30 28 1 37 8
M  V30 29 1 37 26
M  V30 30 2 37 27
M  V30 31 1 38 23
M  V30 32 1 38 27
M  V30 33 1 39 34
M  V30 34 2 40 39
M  V30 35 1 41 24
M  V30 36 1 41 35
M  V30 37 1 42 8
M  V30 38 1 42 10
M  V30 39 1 42 13 CFG=1
M  V30 40 1 42 36
M  V30 41 1 43 41
M  V30 42 1 44 4
M  V30 43 1 44 40
M  V30 44 1 32 45 CFG=1
M  V30 45 1 45 44
M  V30 46 1 46 9
M  V30 47 1 46 14
M  V30 48 1 46 16
M  V30 49 1 47 22
M  V30 50 1 47 28
M  V30 51 1 48 14
M  V30 52 1 48 16
M  V30 53 1 48 38
M  V30 54 1 49 1
M  V30 55 1 50 2
M  V30 56 1 51 2
M  V30 57 1 52 3
M  V30 58 1 53 3
M  V30 59 1 54 4
M  V30 60 1 55 4
M  V30 61 1 56 5
M  V30 62 1 57 7
M  V30 63 1 58 7
M  V30 64 1 59 8
M  V30 65 1 10 60 CFG=3
M  V30 66 1 61 11
M  V30 67 1 62 11
M  V30 68 1 63 13
M  V30 69 1 64 13
M  V30 70 1 65 13
M  V30 71 1 66 15
M  V30 72 1 67 15
M  V30 73 1 68 15
M  V30 74 1 69 17
M  V30 75 1 70 17
M  V30 76 1 18 71 CFG=3
M  V30 77 1 72 19
M  V30 78 1 73 19
M  V30 79 1 74 20
M  V30 80 1 75 20
M  V30 81 1 76 21
M  V30 82 1 77 21
M  V30 83 1 78 21
M  V30 84 1 79 22
M  V30 85 1 80 22
M  V30 86 1 81 24
M  V30 87 1 82 24
M  V30 88 1 38 83 CFG=3
M  V30 89 1 84 26
M  V30 90 1 85 28
M  V30 91 1 86 29
M  V30 92 1 87 29
M  V30 93 1 30 88 CFG=3
M  V30 94 1 89 31
M  V30 95 1 90 33
M  V30 96 1 91 34
M  V30 97 1 92 34
M  V30 98 1 93 36
M  V30 99 1 94 36
M  V30 100 1 95 26
M  V30 101 1 96 39
M  V30 102 1 97 40
M  V30 103 1 98 41
M  V30 104 1 99 45
M  V30 105 1 100 45
M  V30 106 1 46 101 CFG=3
M  V30 107 1 102 47
M  V30 108 1 103 47
M  V30 109 1 48 104 CFG=1
M  V30 110 1 105 27
M  V30 END BOND
M  V30 END CTAB
M  END
>  <i_epik_Tot_Q>  (1) 
1

>  <i_epik_Tot_abs_Q>  (1) 
1

>  <i_i_glide_confnum>  (1) 
79

>  <i_i_glide_lignum>  (1) 
102

>  <i_i_glide_posenum>  (1) 
236

>  <i_i_glide_rotatable_bonds>  (1) 
9

>  <i_lp_mmshare_version>  (1) 
72125

>  <i_m_source_file_index>  (1) 
42

>  <i_f3d_flags>  (1) 
0

>  <num_sample>  (1) 
50

>  <b_lp_Chiralities_Consistent>  (1) 
1

>  <r_epik_Charging_Adjusted_Penalty>  (1) 
0.076842420233623365

>  <r_epik_Ionization_Penalty>  (1) 
0.078794888684849976

>  <r_epik_Ionization_Penalty_Charging>  (1) 
0.00072930087509115145

>  <r_epik_Ionization_Penalty_Neutral>  (1) 
0.078065587809758821

>  <r_epik_State_Penalty>  (1) 
0.076113119358532211

>  <r_glide_ring_energy>  (1) 
0

>  <r_i_docking_score>  (1) 
-3.1723575638749231

>  <r_i_glide_ecoul>  (1) 
-3.0404747653086481

>  <r_i_glide_eff_state_penalty>  (1) 
0.076113119358532211

>  <r_i_glide_einternal>  (1) 
10.165007757744316

>  <r_i_glide_emodel>  (1) 
-13.333986769804341

>  <r_i_glide_emodel_strain>  (1) 
6.1327731701054518

>  <r_i_glide_energy>  (1) 
-19.912115054563003

>  <r_i_glide_erotb>  (1) 
0.0035911919815773572

>  <r_i_glide_esite>  (1) 
-0.020052996508015959

>  <r_i_glide_evdw>  (1) 
-16.871640289254355

>  <r_i_glide_gscore>  (1) 
-3.2484706832334553

>  <r_i_glide_gscore_strain>  (1) 
0.53319329252636294

>  <r_i_glide_hbond>  (1) 
-0.031712331332949664

>  <r_i_glide_ligand_efficiency>  (1) 
-0.066090782580727564

>  <r_i_glide_ligand_efficiency_ln>  (1) 
-0.65124751714642581

>  <r_i_glide_ligand_efficiency_sa>  (1) 
-0.24018984404766347

>  <r_i_glide_lipo>  (1) 
-1.6132448005422069

>  <r_i_glide_metal>  (1) 
-0

>  <r_i_glide_rewards>  (1) 
-0.82059181009920779

>  <r_lp_Energy>  (1) 
121.88109999999999

>  <s_epik_Chemistry_Notes>  (1) 
This compound has an imine and may undergo hydrolysis. This compound contains an acetal/aminal-like group ( X-CH(R)-Y where X, Y are N, S, or O) that may be acid/base labile, releasing an aldehyde.

>  <s_epik_cmdline>  (1) 
J2VwaWtfcHl0aG9uJywgJy1waHQnLCAnMS4wJywgJy1waCcsICc3LjQnLCAnLXRuJywgJzgnLCAnLW1hJywgJzUwMCcsICctaW1hZScsICc8aW5maWxlLm1hZT4nLCAnLW9tYWUnLCAnPG91dGZpbGUubWFlPic=

>  <s_epik_input>  (1) 
W0NIXTE9W0NIXVtDSDJdW0NIMl1bQ0gyXU4xW0NIMl1bQ0BdMjNbQ0BIXShbQ0gyXVtDSF09W0NIXVtDQEhdM1tPSF0pW0NIMl1PW0NASF00W0NAQF0oW0NIM10pKFtDSDJdNClbTkhdW0NASF0oW0NIMl1bQ0gzXSkvTj1DKFtDQEBIXTVbQ0BdKFtDSDJdW0NIXShGKUYpKFtDSDJdW0NAXTU2W1NIXSlbQ0BIXTZPW0NIM10pL09bQ0gyXVtDSDJdW0NIMl1bQ0gyXVtOSF1DKD1PKVtDSDJdW0NIMl0y

>  <s_glide_docking_method>  (1) 
confgen

>  <s_i_glide_gridfile>  (1) 
gpcr_drd2_6luq_protein_autoprepared_prepared

>  <s_lp_Force_Field>  (1) 
S-OPLS

>  <s_lp_Variant>  (1) 
DiffSBDD_41_num_sample_50-2

>  <s_m_source_file>  (1) 
generated__ligand_DiffSBDD_2026-05-06_prepared.sdf

>  <GenAI_Model>  (1) 
DiffSBDD

>  <Protein>  (1) 
generic_title2

$$$$
DiffSBDD_28_num_sample_50
     RDKit          3D

  0  0  0  0  0  0  0  0  0  0999 V3000
M  V30 BEGIN CTAB
M  V30 COUNTS 71 73 0 0 1
M  V30 BEGIN ATOM
M  V30 1 N 7.722849 5.750976 -13.537456 0 CFG=2 CHG=1
M  V30 2 C 6.117372 -0.307102 -11.843546 0
M  V30 3 C 10.354882 8.058279 -6.954284 0 CFG=2
M  V30 4 C 8.312346 5.754646 -14.893211 0
M  V30 5 N 6.830235 0.378533 -17.148566 0
M  V30 6 O 9.970097 4.727080 -12.291673 0 CHG=-1
M  V30 7 C 6.268362 5.449616 -13.506909 0 CFG=1
M  V30 8 N 6.705029 6.935233 -11.891670 0
M  V30 9 F 7.813971 2.475662 -17.297181 0
M  V30 10 C 10.879655 6.681012 -8.910465 0
M  V30 11 O 5.034835 5.480098 -11.389814 0
M  V30 12 C 11.284411 6.947125 -7.455016 0
M  V30 13 C 9.654825 7.541304 -9.188730 0 CFG=1
M  V30 14 C 9.842506 8.709733 -8.239302 0
M  V30 15 O 8.106738 0.185179 -13.091739 0
M  V30 16 N 6.635321 1.344215 -15.099640 0
M  V30 17 N 5.291439 -1.207357 -18.214192 0
M  V30 18 C 6.105183 0.473935 -15.979105 0
M  V30 19 C 6.919353 0.435859 -12.902539 0
M  V30 20 C 5.883891 4.011802 -13.875637 0
M  V30 21 C 7.407733 -0.539737 -19.460408 0 CFG=2
M  V30 22 C 6.631581 2.875338 -13.169332 0
M  V30 23 F 6.730179 -1.992081 -21.315421 0
M  V30 24 C 9.014126 6.731086 -11.546561 0 CFG=1
M  V30 25 F 8.585591 -1.110543 -19.192635 0
M  V30 26 O 5.075805 -0.160486 -15.744739 0
M  V30 27 O 11.232736 6.569323 -12.343207 0
M  V30 28 C 6.195959 1.495230 -13.712688 0 CFG=1
M  V30 29 C 11.027307 9.026097 -5.974005 0
M  V30 30 C 7.923763 6.941521 -12.635692 0 CFG=1
M  V30 31 C 5.411907 -1.801984 -19.434835 0
M  V30 32 C 10.173751 5.946297 -12.105304 0
M  V30 33 C 5.846578 5.978728 -12.153971 0
M  V30 34 C 8.085448 1.168677 -17.332786 0
M  V30 35 C 6.405590 -0.493617 -18.218205 0
M  V30 36 C 6.481700 -1.483118 -20.097212 0
M  V30 37 C 9.427664 7.944054 -10.669530 0
M  V30 38 H 5.147443 -0.599189 -12.247055 0
M  V30 39 H 6.634784 -1.211637 -11.523839 0
M  V30 40 H 5.950897 0.331077 -10.977202 0
M  V30 41 H 9.503097 7.591371 -6.455063 0
M  V30 42 H 7.923121 6.569349 -15.491748 0
M  V30 43 H 9.400714 5.769291 -14.853877 0
M  V30 44 H 8.064711 4.829306 -15.411135 0
M  V30 45 H 5.777862 6.105366 -14.229851 0
M  V30 46 H 6.670090 7.424977 -10.988130 0
M  V30 47 H 10.634800 5.634021 -9.076584 0
M  V30 48 H 11.695970 6.969299 -9.574107 0
M  V30 49 H 11.198488 6.050311 -6.839178 0
M  V30 50 H 12.325407 7.269418 -7.431813 0
M  V30 51 H 8.798054 6.969391 -8.826788 0
M  V30 52 H 10.601224 9.369299 -8.662350 0
M  V30 53 H 8.918352 9.269631 -8.088155 0
M  V30 54 H 7.468620 1.840191 -15.373379 0
M  V30 55 H 6.042336 3.914973 -14.946973 0
M  V30 56 H 4.814065 3.888117 -13.708574 0
M  V30 57 H 7.490431 0.399963 -20.008207 0
M  V30 58 H 6.425035 2.939406 -12.100346 0
M  V30 59 H 7.710538 2.997533 -13.284262 0
M  V30 60 H 8.594637 6.008664 -10.840432 0
M  V30 61 H 5.115612 1.369254 -13.620145 0
M  V30 62 H 11.864125 9.548204 -6.439064 0
M  V30 63 H 10.316719 9.769309 -5.618786 0
M  V30 64 H 11.404828 8.497278 -5.099207 0
M  V30 65 H 8.038359 7.870202 -13.195163 0
M  V30 66 H 4.640537 -2.480282 -19.771406 0
M  V30 67 H 8.783581 0.958441 -16.520748 0
M  V30 68 H 8.676931 1.049404 -18.233849 0
M  V30 69 H 10.303974 8.458808 -11.061369 0
M  V30 70 H 8.634873 8.690384 -10.696479 0
M  V30 71 H 8.203925 5.004196 -13.039444 0
M  V30 END ATOM
M  V30 BEGIN BOND
M  V30 1 1 4 1
M  V30 2 1 7 1
M  V30 3 1 12 3
M  V30 4 1 12 10
M  V30 5 1 13 10
M  V30 6 1 14 3
M  V30 7 1 14 13
M  V30 8 1 18 5
M  V30 9 1 18 16
M  V30 10 1 19 2
M  V30 11 2 19 15
M  V30 12 1 20 7
M  V30 13 1 22 20
M  V30 14 1 25 21
M  V30 15 2 26 18
M  V30 16 1 28 16
M  V30 17 1 28 19
M  V30 18 1 28 22
M  V30 19 1 29 3
M  V30 20 1 30 1
M  V30 21 1 30 8
M  V30 22 1 30 24
M  V30 23 1 31 17
M  V30 24 1 32 6
M  V30 25 1 32 24
M  V30 26 2 32 27
M  V30 27 1 33 7
M  V30 28 1 33 8
M  V30 29 2 33 11
M  V30 30 1 34 5
M  V30 31 1 34 9
M  V30 32 1 35 5
M  V30 33 2 35 17
M  V30 34 1 35 21
M  V30 35 1 36 21
M  V30 36 1 36 23
M  V30 37 2 36 31
M  V30 38 1 37 13
M  V30 39 1 37 24
M  V30 40 1 38 2
M  V30 41 1 39 2
M  V30 42 1 40 2
M  V30 43 1 3 41 CFG=1
M  V30 44 1 42 4
M  V30 45 1 43 4
M  V30 46 1 44 4
M  V30 47 1 7 45 CFG=3
M  V30 48 1 46 8
M  V30 49 1 47 10
M  V30 50 1 48 10
M  V30 51 1 49 12
M  V30 52 1 50 12
M  V30 53 1 13 51 CFG=1
M  V30 54 1 52 14
M  V30 55 1 53 14
M  V30 56 1 54 16
M  V30 57 1 55 20
M  V30 58 1 56 20
M  V30 59 1 21 57 CFG=3
M  V30 60 1 58 22
M  V30 61 1 59 22
M  V30 62 1 24 60 CFG=1
M  V30 63 1 28 61 CFG=3
M  V30 64 1 62 29
M  V30 65 1 63 29
M  V30 66 1 64 29
M  V30 67 1 30 65 CFG=3
M  V30 68 1 66 31
M  V30 69 1 67 34
M  V30 70 1 68 34
M  V30 71 1 69 37
M  V30 72 1 70 37
M  V30 73 1 1 71 CFG=1
M  V30 END BOND
M  V30 END CTAB
M  END
>  <i_epik_Tot_Q>  (1) 
0

>  <i_epik_Tot_abs_Q>  (1) 
2

>  <i_i_glide_confnum>  (1) 
209

>  <i_i_glide_lignum>  (1) 
69

>  <i_i_glide_posenum>  (1) 
178

>  <i_i_glide_rotatable_bonds>  (1) 
13

>  <i_lp_mmshare_version>  (1) 
72125

>  <i_m_source_file_index>  (1) 
29

>  <i_f3d_flags>  (1) 
0

>  <num_sample>  (1) 
50

>  <b_lp_Chiralities_Consistent>  (1) 
1

>  <r_epik_Charging_Adjusted_Penalty>  (1) 
0.054083419880676768

>  <r_epik_Ionization_Penalty>  (1) 
0.12983459298085004

>  <r_epik_Ionization_Penalty_Charging>  (1) 
0.054083419880676768

>  <r_epik_Ionization_Penalty_Neutral>  (1) 
0.075751173100173264

>  <r_epik_State_Penalty>  (1) 
-0

>  <r_glide_ring_energy>  (1) 
0

>  <r_i_docking_score>  (1) 
-3.1596754433626204

>  <r_i_glide_ecoul>  (1) 
-3.1001552557098702

>  <r_i_glide_eff_state_penalty>  (1) 
-0

>  <r_i_glide_einternal>  (1) 
22.216699014574726

>  <r_i_glide_emodel>  (1) 
-24.092055296866626

>  <r_i_glide_emodel_strain>  (1) 
4.4782875361930934

>  <r_i_glide_energy>  (1) 
-35.045134305751048

>  <r_i_glide_erotb>  (1) 
0.66137813184917615

>  <r_i_glide_esite>  (1) 
-0.18477748465703822

>  <r_i_glide_evdw>  (1) 
-31.944979050041177

>  <r_i_glide_gscore>  (1) 
-3.1596754433626204

>  <r_i_glide_gscore_strain>  (1) 
0.11957188404827335

>  <r_i_glide_hbond>  (1) 
-0.16

>  <r_i_glide_ligand_efficiency>  (1) 
-0.085396633604395145

>  <r_i_glide_ligand_efficiency_ln>  (1) 
-0.68525953036336762

>  <r_i_glide_ligand_efficiency_sa>  (1) 
-0.28456052855356867

>  <r_i_glide_lipo>  (1) 
-1.5778739572220037

>  <r_i_glide_metal>  (1) 
-0

>  <r_i_glide_rewards>  (1) 
0.044298223477512583

>  <r_lp_Energy>  (1) 
31.855165999999997

>  <r_lp_tautomer_probability>  (1) 
1

>  <s_epik_Chemistry_Notes>  (1) 
This compound has an imine and may undergo hydrolysis. This compound contains an acetal/aminal-like group ( X-CH(R)-Y where X, Y are N, S, or O) that may be acid/base labile, releasing an aldehyde.

>  <s_epik_cmdline>  (1) 
J2VwaWtfcHl0aG9uJywgJy1waHQnLCAnMS4wJywgJy1waCcsICc3LjQnLCAnLXRuJywgJzgnLCAnLW1hJywgJzUwMCcsICctaW1hZScsICc8aW5maWxlLm1hZT4nLCAnLW9tYWUnLCAnPG91dGZpbGUubWFlPic=

>  <s_epik_input>  (1) 
W0NIM11bQ0BASF0xW0NIMl1bQ0gyXVtDQEBIXShbQ0gyXTEpW0NIMl1bQ0BIXShDKD1PKVtPSF0pW0NAQEhdMltOSF1DKD1PKVtDQEBIXShOMltDSDNdKVtDSDJdW0NIMl1bQ0BIXShDKD1PKVtDSDNdKVtOSF1DKD1PKU4oW0NIMl1GKUMoW0NASF0zRik9TltDSF09QzNG

>  <s_glide_docking_method>  (1) 
confgen

>  <s_i_glide_gridfile>  (1) 
gpcr_drd2_6luq_protein_autoprepared_prepared

>  <s_lp_Force_Field>  (1) 
S-OPLS

>  <s_lp_Variant>  (1) 
DiffSBDD_28_num_sample_50-1

>  <s_m_source_file>  (1) 
generated__ligand_DiffSBDD_2026-05-06_prepared.sdf

>  <GenAI_Model>  (1) 
DiffSBDD

>  <Protein>  (1) 
generic_title2

$$$$
DiffSBDD_40_num_sample_50
     RDKit          3D

  0  0  0  0  0  0  0  0  0  0999 V3000
M  V30 BEGIN CTAB
M  V30 COUNTS 79 82 0 0 1
M  V30 BEGIN ATOM
M  V30 1 C 7.726263 4.252741 -12.106800 0 CFG=1
M  V30 2 S 11.446576 6.169224 -6.426400 0
M  V30 3 C 11.822009 9.180075 -9.853609 0
M  V30 4 C 5.591009 2.278317 -13.476025 0 CFG=1
M  V30 5 C 10.909661 8.184001 -9.885542 0
M  V30 6 C 9.733332 5.769943 -16.339415 0
M  V30 7 C 7.408020 4.283880 -13.636504 0 CFG=2
M  V30 8 C 8.890101 4.880608 -16.899184 0
M  V30 9 C 6.003227 3.707325 -13.915393 0
M  V30 10 C 9.213549 4.240916 -11.700169 0
M  V30 11 C 9.032329 7.324428 -6.603106 0
M  V30 12 C 8.545469 5.000946 -18.377125 0 CFG=1
M  V30 13 C 10.586297 7.400090 -8.632712 0 CFG=1
M  V30 14 C 7.563584 2.844311 -16.726318 0
M  V30 15 C 8.350067 3.612529 -18.995721 0 CFG=2
M  V30 16 C 8.296630 3.790057 -16.094472 0
M  V30 17 C 10.143545 7.757030 -11.176397 0 CFG=1
M  V30 18 C 10.185591 7.079149 -5.601935 0 CFG=2
M  V30 19 S 7.716763 7.769000 -12.692777 0
M  V30 20 C 6.583794 1.260721 -13.073183 0
M  V30 21 F 8.022685 3.703176 -20.285112 0
M  V30 22 C 8.507481 3.701547 -14.562923 0
M  V30 23 C 7.295380 2.819676 -18.220272 0
M  V30 24 C 11.784105 7.360937 -7.712734 0
M  V30 25 F 7.423705 5.713648 -18.511265 0
M  V30 26 O 6.483647 0.303753 -12.306355 0
M  V30 27 O 9.688793 6.424428 -11.015210 0
M  V30 28 O 6.981917 5.209250 -11.385553 0
M  V30 29 C 8.855241 8.575428 -11.535971 0
M  V30 30 C 12.523240 7.823805 -1.717672 0
M  V30 31 N 12.148128 9.697311 -4.024035 0
M  V30 32 C 9.964951 5.525586 -12.068268 0
M  V30 33 N 10.634983 9.563023 -5.647258 0
M  V30 34 O 6.215704 1.203207 -14.293280 0
M  V30 35 C 11.834988 8.379393 -4.073265 0
M  V30 36 C 9.429612 8.030056 -7.907589 0
M  V30 37 C 10.891308 8.289325 -5.092044 0
M  V30 38 C 11.434870 10.309461 -4.938957 0
M  V30 39 C 12.443793 7.355902 -3.173773 0
M  V30 40 H 7.295133 3.369117 -11.689382 0
M  V30 41 H 12.324235 9.438980 -8.942150 0
M  V30 42 H 12.078839 9.735980 -10.691561 0
M  V30 43 H 4.530174 2.044079 -13.491056 0
M  V30 44 H 10.167953 6.567198 -16.931453 0
M  V30 45 H 10.003752 5.725972 -15.304499 0
M  V30 46 H 7.361976 5.330165 -13.931371 0
M  V30 47 H 5.281556 4.385996 -13.458376 0
M  V30 48 H 5.836203 3.822246 -14.976888 0
M  V30 49 H 9.298357 4.067744 -10.625833 0
M  V30 50 H 9.705572 3.378184 -12.149386 0
M  V30 51 H 8.592958 6.361467 -6.856732 0
M  V30 52 H 8.235941 7.905963 -6.149383 0
M  V30 53 H 9.322977 5.543231 -18.915681 0
M  V30 54 H 10.340759 6.363635 -8.854554 0
M  V30 55 H 7.136465 2.045074 -16.163890 0
M  V30 56 H 9.296770 3.068043 -18.967589 0
M  V30 57 H 10.838419 7.768905 -12.013776 0
M  V30 58 H 9.830755 6.465509 -4.774762 0
M  V30 59 H 7.345891 6.765383 -11.881799 0
M  V30 60 H 9.441782 4.167300 -14.292197 0
M  V30 61 H 8.628304 2.653944 -14.303072 0
M  V30 62 H 7.278381 1.786919 -18.565341 0
M  V30 63 H 6.293310 3.211450 -18.392331 0
M  V30 64 H 12.636331 7.145895 -8.313257 0
M  V30 65 H 12.050567 8.312409 -7.277064 0
M  V30 66 H 7.513323 5.559586 -10.680977 0
M  V30 67 H 8.303145 8.930403 -10.672260 0
M  V30 68 H 9.036277 9.460242 -12.123944 0
M  V30 69 H 13.032978 7.087660 -1.093681 0
M  V30 70 H 13.088474 8.751083 -1.621315 0
M  V30 71 H 11.525909 8.008400 -1.317524 0
M  V30 72 H 11.035708 5.369948 -12.181403 0
M  V30 73 H 9.637494 5.920619 -13.027190 0
M  V30 74 H 12.809174 10.129730 -3.393908 0
M  V30 75 H 9.588120 9.090374 -7.773529 0
M  V30 76 H 8.635237 7.983539 -8.603843 0
M  V30 77 H 11.497414 11.369725 -5.095538 0
M  V30 78 H 11.905946 6.407340 -3.247829 0
M  V30 79 H 13.461609 7.174519 -3.495199 0
M  V30 END ATOM
M  V30 BEGIN BOND
M  V30 1 2 5 3
M  V30 2 1 7 1
M  V30 3 2 8 6
M  V30 4 1 9 4
M  V30 5 1 9 7
M  V30 6 1 10 1
M  V30 7 1 12 8
M  V30 8 1 13 5
M  V30 9 1 15 12
M  V30 10 1 16 8
M  V30 11 2 16 14
M  V30 12 1 17 5
M  V30 13 1 18 2
M  V30 14 1 18 11
M  V30 15 1 20 4
M  V30 16 1 21 15
M  V30 17 1 22 7
M  V30 18 1 22 16
M  V30 19 1 23 14
M  V30 20 1 23 15
M  V30 21 1 24 2
M  V30 22 1 24 13
M  V30 23 1 25 12
M  V30 24 2 26 20
M  V30 25 1 27 17
M  V30 26 1 28 1
M  V30 27 1 29 17
M  V30 28 1 29 19
M  V30 29 1 32 10
M  V30 30 1 32 27
M  V30 31 1 34 4
M  V30 32 1 34 20
M  V30 33 1 35 31
M  V30 34 1 36 11
M  V30 35 1 36 13
M  V30 36 1 37 18
M  V30 37 1 37 33
M  V30 38 2 37 35
M  V30 39 1 38 31
M  V30 40 2 38 33
M  V30 41 1 39 30
M  V30 42 1 39 35
M  V30 43 1 1 40 CFG=1
M  V30 44 1 41 3
M  V30 45 1 42 3
M  V30 46 1 4 43 CFG=1
M  V30 47 1 44 6
M  V30 48 1 45 6
M  V30 49 1 7 46 CFG=3
M  V30 50 1 47 9
M  V30 51 1 48 9
M  V30 52 1 49 10
M  V30 53 1 50 10
M  V30 54 1 51 11
M  V30 55 1 52 11
M  V30 56 1 12 53 CFG=3
M  V30 57 1 13 54 CFG=3
M  V30 58 1 55 14
M  V30 59 1 15 56 CFG=3
M  V30 60 1 17 57 CFG=3
M  V30 61 1 18 58 CFG=1
M  V30 62 1 59 19
M  V30 63 1 60 22
M  V30 64 1 61 22
M  V30 65 1 62 23
M  V30 66 1 63 23
M  V30 67 1 64 24
M  V30 68 1 65 24
M  V30 69 1 66 28
M  V30 70 1 67 29
M  V30 71 1 68 29
M  V30 72 1 69 30
M  V30 73 1 70 30
M  V30 74 1 71 30
M  V30 75 1 72 32
M  V30 76 1 73 32
M  V30 77 1 74 31
M  V30 78 1 75 36
M  V30 79 1 76 36
M  V30 80 1 77 38
M  V30 81 1 78 39
M  V30 82 1 79 39
M  V30 END BOND
M  V30 END CTAB
M  END
>  <i_epik_Tot_Q>  (1) 
0

>  <i_epik_Tot_abs_Q>  (1) 
0

>  <i_i_glide_confnum>  (1) 
9637

>  <i_i_glide_lignum>  (1) 
98

>  <i_i_glide_posenum>  (1) 
61

>  <i_i_glide_rotatable_bonds>  (1) 
16

>  <i_lp_mmshare_version>  (1) 
72125

>  <i_m_source_file_index>  (1) 
41

>  <i_f3d_flags>  (1) 
0

>  <num_sample>  (1) 
50

>  <b_lp_Chiralities_Consistent>  (1) 
1

>  <r_epik_Charging_Adjusted_Penalty>  (1) 
0.92388938130089981

>  <r_epik_Ionization_Penalty>  (1) 
0.33440672530639315

>  <r_epik_Ionization_Penalty_Charging>  (1) 
0.3225466834979146

>  <r_epik_Ionization_Penalty_Neutral>  (1) 
0.011860041808478553

>  <r_epik_State_Penalty>  (1) 
0.60134269780298522

>  <r_glide_ring_energy>  (1) 
0

>  <r_i_docking_score>  (1) 
-3.1588803442521636

>  <r_i_glide_ecoul>  (1) 
-2.3524958073359739

>  <r_i_glide_eff_state_penalty>  (1) 
0.60134269780298522

>  <r_i_glide_einternal>  (1) 
16.581794383901169

>  <r_i_glide_emodel>  (1) 
-6.1828969827581233

>  <r_i_glide_emodel_strain>  (1) 
8.3426291013047944

>  <r_i_glide_energy>  (1) 
-17.347449312714577

>  <r_i_glide_erotb>  (1) 
0.63692825108646745

>  <r_i_glide_esite>  (1) 
-0.057000674565199139

>  <r_i_glide_evdw>  (1) 
-14.994953505378604

>  <r_i_glide_gscore>  (1) 
-3.7602230420551486

>  <r_i_glide_gscore_strain>  (1) 
1.0856572753261986

>  <r_i_glide_hbond>  (1) 
0

>  <r_i_glide_ligand_efficiency>  (1) 
-0.080996931903901628

>  <r_i_glide_ligand_efficiency_ln>  (1) 
-0.67735361595868726

>  <r_i_glide_ligand_efficiency_sa>  (1) 
-0.27467772232155047

>  <r_i_glide_lipo>  (1) 
-2.654212048058985

>  <r_i_glide_metal>  (1) 
-0

>  <r_i_glide_rewards>  (1) 
-1.6689737994743039

>  <r_lp_Energy>  (1) 
18.659057999999998

>  <r_lp_tautomer_probability>  (1) 
0.49999999999999867

>  <s_epik_Chemistry_Notes>  (1) 
This compound has an ester and may undergo hydrolysis at high or low pH.

>  <s_epik_cmdline>  (1) 
J2VwaWtfcHl0aG9uJywgJy1waHQnLCAnMS4wJywgJy1waCcsICc3LjQnLCAnLXRuJywgJzgnLCAnLW1hJywgJzUwMCcsICctaW1hZScsICc8aW5maWxlLm1hZT4nLCAnLW9tYWUnLCAnPG91dGZpbGUubWFlPic=

>  <s_epik_input>  (1) 
W0NIMl09QzFbQ0BIXShGKVtDQEhdKEYpW0NIMl1bQ0hdPUMxW0NIMl1bQ0BASF0oW0NIMl1bQ0BASF0yQyg9TylPMilbQ0BIXShbT0hdKVtDSDJdW0NIMl1PW0NAQEhdKFtDSDJdW1NIXSlDKD1bQ0gyXSlbQ0BIXTNbQ0gyXVNbQ0BIXShbQ0gyXVtDSDJdMylDND1OW0NIXT1OW0NAQEhdNFtDSDJdW0NIM10=

>  <s_glide_docking_method>  (1) 
confgen

>  <s_i_glide_gridfile>  (1) 
gpcr_drd2_6luq_protein_autoprepared_prepared

>  <s_lp_Force_Field>  (1) 
S-OPLS

>  <s_lp_Variant>  (1) 
DiffSBDD_40_num_sample_50-1

>  <s_m_source_file>  (1) 
generated__ligand_DiffSBDD_2026-05-06_prepared.sdf

>  <GenAI_Model>  (1) 
DiffSBDD

>  <Protein>  (1) 
generic_title2

$$$$
DiffSBDD_10_num_sample_50
     RDKit          3D

  0  0  0  0  0  0  0  0  0  0999 V3000
M  V30 BEGIN CTAB
M  V30 COUNTS 72 73 0 0 1
M  V30 BEGIN ATOM
M  V30 1 C 9.494219 6.234461 -21.263585 0 CFG=2
M  V30 2 C 9.034847 6.448965 -10.657512 0
M  V30 3 C 7.205665 6.563730 -14.753015 0
M  V30 4 C 5.622539 5.954376 -17.622123 0 CFG=1
M  V30 5 C 8.110863 5.548889 -21.404113 0 CFG=2
M  V30 6 N 9.069719 4.169286 -11.449958 0
M  V30 7 N 6.753622 4.345707 -18.926300 0
M  V30 8 C 6.243412 5.290581 -19.860447 0 CFG=1
M  V30 9 S 10.325208 6.688673 -22.881580 0
M  V30 10 C 9.377063 6.132175 -9.215053 0
M  V30 11 S 8.901747 8.080597 -23.592192 0 CHG=-1
M  V30 12 C 11.300842 6.913475 -19.526265 0
M  V30 13 O 10.634854 6.569310 -5.116436 0
M  V30 14 O 11.561299 7.440692 -22.618409 0
M  V30 15 C 9.352122 4.735401 -21.081084 0 CFG=2
M  V30 16 C 6.234506 6.283971 -12.362090 0
M  V30 17 C 6.887951 5.075323 -17.684356 0 CFG=2
M  V30 18 N 10.801689 6.840670 -7.285623 0 CHG=1
M  V30 19 N 8.600807 5.881619 -12.932294 0
M  V30 20 C 10.305858 7.202211 -8.627657 0
M  V30 21 C 5.225541 7.641227 -19.635815 0
M  V30 22 C 9.896363 7.160577 -20.107405 0
M  V30 23 C 7.328717 5.301786 -22.689961 0
M  V30 24 C 5.777464 7.199929 -16.731839 0
M  V30 25 C 7.433081 6.217314 -13.327185 0
M  V30 26 O 9.412771 4.243488 -19.755012 0
M  V30 27 C 8.908904 5.525340 -11.628306 0
M  V30 28 O 10.350932 5.536360 -23.796123 0
M  V30 29 F 7.034842 4.233940 -16.662491 0
M  V30 30 N 5.824284 4.964089 -11.918440 0
M  V30 31 C 9.804902 6.900804 -6.206538 0
M  V30 32 C 5.251499 6.194415 -19.103625 0 CFG=2
M  V30 33 O 7.285757 6.076879 -20.358642 0
M  V30 34 C 5.995168 6.848927 -15.273830 0
M  V30 35 H 8.884561 7.492768 -10.896317 0
M  V30 36 H 8.087711 6.569299 -15.372866 0
M  V30 37 H 4.809522 5.369305 -17.199869 0
M  V30 38 H 9.354524 3.779485 -10.563907 0
M  V30 39 H 7.684936 4.040587 -19.208837 0
M  V30 40 H 5.737593 4.778253 -20.676943 0
M  V30 41 H 9.834718 5.145925 -9.136445 0
M  V30 42 H 8.442545 6.098141 -8.654164 0
M  V30 43 H 11.533361 7.655353 -18.762473 0
M  V30 44 H 11.373936 5.934159 -19.056298 0
M  V30 45 H 12.085790 6.976816 -20.276674 0
M  V30 46 H 10.193012 5.913578 -4.592384 0
M  V30 47 H 9.755892 4.049542 -21.822677 0
M  V30 48 H 6.537781 6.859197 -11.491483 0
M  V30 49 H 5.381807 6.836484 -12.738949 0
M  V30 50 H 7.787524 5.691188 -17.732284 0
M  V30 51 H 11.538822 7.482776 -7.035701 0
M  V30 52 H 9.802120 8.170091 -8.591746 0
M  V30 53 H 11.174176 7.322875 -9.276634 0
M  V30 54 H 6.177579 8.149618 -19.491764 0
M  V30 55 H 5.006266 7.655773 -20.703632 0
M  V30 56 H 4.453070 8.227032 -19.138458 0
M  V30 57 H 9.832125 8.186824 -20.467249 0
M  V30 58 H 9.176204 7.079754 -19.294396 0
M  V30 59 H 7.981072 5.075673 -23.528635 0
M  V30 60 H 6.662149 4.448450 -22.577180 0
M  V30 61 H 6.732480 6.178341 -22.944095 0
M  V30 62 H 4.905269 7.849997 -16.802427 0
M  V30 63 H 6.634807 7.769292 -17.079264 0
M  V30 64 H 10.318311 4.242292 -19.481788 0
M  V30 65 H 6.650302 4.505609 -11.554254 0
M  V30 66 H 5.203283 5.069247 -11.128564 0
M  V30 67 H 9.006601 6.169246 -6.336660 0
M  V30 68 H 9.376751 7.897587 -6.092605 0
M  V30 69 H 4.260842 5.769445 -19.269219 0
M  V30 70 H 5.116114 6.831825 -14.657174 0
M  V30 71 H 9.035537 3.526220 -12.228848 0
M  V30 72 H 11.187505 5.908461 -7.315997 0
M  V30 END ATOM
M  V30 BEGIN BOND
M  V30 1 1 5 1
M  V30 2 1 8 7
M  V30 3 1 9 1
M  V30 4 1 10 2
M  V30 5 1 11 9
M  V30 6 2 14 9
M  V30 7 1 15 1
M  V30 8 1 15 5
M  V30 9 1 17 4
M  V30 10 1 17 7
M  V30 11 1 20 10
M  V30 12 1 20 18
M  V30 13 1 1 22 CFG=1
M  V30 14 1 22 12
M  V30 15 1 23 5
M  V30 16 1 24 4
M  V30 17 1 25 3
M  V30 18 1 25 16
M  V30 19 2 25 19
M  V30 20 1 26 15
M  V30 21 2 27 2
M  V30 22 1 27 6
M  V30 23 1 27 19
M  V30 24 2 28 9
M  V30 25 1 29 17
M  V30 26 1 30 16
M  V30 27 1 31 13
M  V30 28 1 31 18
M  V30 29 1 32 4
M  V30 30 1 32 8
M  V30 31 1 32 21
M  V30 32 1 5 33 CFG=1
M  V30 33 1 33 8
M  V30 34 2 34 3
M  V30 35 1 34 24
M  V30 36 1 35 2
M  V30 37 1 36 3
M  V30 38 1 4 37 CFG=1
M  V30 39 1 38 6
M  V30 40 1 39 7
M  V30 41 1 8 40 CFG=3
M  V30 42 1 41 10
M  V30 43 1 42 10
M  V30 44 1 43 12
M  V30 45 1 44 12
M  V30 46 1 45 12
M  V30 47 1 46 13
M  V30 48 1 15 47 CFG=3
M  V30 49 1 48 16
M  V30 50 1 49 16
M  V30 51 1 17 50 CFG=3
M  V30 52 1 51 18
M  V30 53 1 52 20
M  V30 54 1 53 20
M  V30 55 1 54 21
M  V30 56 1 55 21
M  V30 57 1 56 21
M  V30 58 1 57 22
M  V30 59 1 58 22
M  V30 60 1 59 23
M  V30 61 1 60 23
M  V30 62 1 61 23
M  V30 63 1 62 24
M  V30 64 1 63 24
M  V30 65 1 64 26
M  V30 66 1 65 30
M  V30 67 1 66 30
M  V30 68 1 67 31
M  V30 69 1 68 31
M  V30 70 1 32 69 CFG=1
M  V30 71 1 70 34
M  V30 72 1 71 6
M  V30 73 1 72 18
M  V30 END BOND
M  V30 END CTAB
M  END
>  <i_epik_Tot_Q>  (1) 
0

>  <i_epik_Tot_abs_Q>  (1) 
2

>  <i_i_glide_confnum>  (1) 
83

>  <i_i_glide_lignum>  (1) 
28

>  <i_i_glide_posenum>  (1) 
157

>  <i_i_glide_rotatable_bonds>  (1) 
15

>  <i_lp_mmshare_version>  (1) 
72125

>  <i_m_source_file_index>  (1) 
11

>  <i_f3d_flags>  (1) 
0

>  <num_sample>  (1) 
50

>  <b_lp_Chiralities_Consistent>  (1) 
1

>  <r_epik_Charging_Adjusted_Penalty>  (1) 
0.33639934582642134

>  <r_epik_Ionization_Penalty>  (1) 
0.23315943830934333

>  <r_epik_Ionization_Penalty_Charging>  (1) 
0.10316865490585193

>  <r_epik_Ionization_Penalty_Neutral>  (1) 
0.12999078340349141

>  <r_epik_State_Penalty>  (1) 
0.23323069092056939

>  <r_glide_ring_energy>  (1) 
0

>  <r_i_docking_score>  (1) 
-3.1587190840945341

>  <r_i_glide_ecoul>  (1) 
-3.130923892422028

>  <r_i_glide_eff_state_penalty>  (1) 
0.23323069092056939

>  <r_i_glide_einternal>  (1) 
7.5512021032219696

>  <r_i_glide_emodel>  (1) 
-37.874080019390341

>  <r_i_glide_emodel_strain>  (1) 
1.6198898078730366

>  <r_i_glide_energy>  (1) 
-33.698744745295024

>  <r_i_glide_erotb>  (1) 
0.82510599487301828

>  <r_i_glide_esite>  (1) 
0

>  <r_i_glide_evdw>  (1) 
-30.567820852872995

>  <r_i_glide_gscore>  (1) 
-3.3919497750151035

>  <r_i_glide_gscore_strain>  (1) 
0

>  <r_i_glide_hbond>  (1) 
0

>  <r_i_glide_ligand_efficiency>  (1) 
-0.092903502473368649

>  <r_i_glide_ligand_efficiency_ln>  (1) 
-0.69784964474574096

>  <r_i_glide_ligand_efficiency_sa>  (1) 
-0.30097128299273695

>  <r_i_glide_lipo>  (1) 
-1.4999727573092594

>  <r_i_glide_metal>  (1) 
-0

>  <r_i_glide_rewards>  (1) 
-0.71905338607190872

>  <r_lp_Energy>  (1) 
20.579340999999999

>  <s_epik_Chemistry_Notes>  (1) 
This compound has an imine and may undergo hydrolysis. This compound contains an acetal/aminal-like group ( X-CH(R)-Y where X, Y are N, S, or O) that may be acid/base labile, releasing an aldehyde.

>  <s_epik_cmdline>  (1) 
J2VwaWtfcHl0aG9uJywgJy1waHQnLCAnMS4wJywgJy1waCcsICc3LjQnLCAnLXRuJywgJzgnLCAnLW1hJywgJzUwMCcsICctaW1hZScsICc8aW5maWxlLm1hZT4nLCAnLW9tYWUnLCAnPG91dGZpbGUubWFlPic=

>  <s_epik_input>  (1) 
W1NIXVMoPU8pKD1PKVtDQEBdMShbQ0gyXVtDSDNdKVtDQEBdKFtDSDNdKShbQ0BASF0xW09IXSlPW0NASF0oW0NAQEhdMltDSDNdKVtOSF1bQ0BASF0oRilbQ0BIXTJbQ0gyXVxbQ0hdPVtDSF1cQyhbQ0gyXVtOSDJdKT1OXEMoPU5cW0hdKVxbQ0gyXVtDSDJdW0NIMl1bTkhdW0NIMl1bT0hd

>  <s_glide_docking_method>  (1) 
confgen

>  <s_i_glide_gridfile>  (1) 
gpcr_drd2_6luq_protein_autoprepared_prepared

>  <s_lp_Force_Field>  (1) 
S-OPLS

>  <s_lp_Variant>  (1) 
DiffSBDD_10_num_sample_50-8

>  <s_m_source_file>  (1) 
generated__ligand_DiffSBDD_2026-05-06_prepared.sdf

>  <GenAI_Model>  (1) 
DiffSBDD

>  <Protein>  (1) 
generic_title2

$$$$
DiffSBDD_29_num_sample_50
     RDKit          3D

  0  0  0  0  0  0  0  0  0  0999 V3000
M  V30 BEGIN CTAB
M  V30 COUNTS 64 67 0 0 1
M  V30 BEGIN ATOM
M  V30 1 C 9.830947 6.671271 -10.264910 0
M  V30 2 O 6.634752 6.990506 -16.506892 0
M  V30 3 C 7.307220 5.684933 -19.951380 0
M  V30 4 C 10.093704 7.259042 -11.618439 0
M  V30 5 O 7.876138 4.461811 -16.437170 0
M  V30 6 N 6.371244 6.968916 -12.759116 0 CFG=2 CHG=1
M  V30 7 C 7.993335 5.307217 -18.631222 0
M  V30 8 C 5.421146 7.331830 -19.197002 0
M  V30 9 C 3.645121 6.788631 -17.526105 0
M  V30 10 C 10.024284 6.468993 -7.893438 0
M  V30 11 C 7.691587 7.585550 -12.466505 0
M  V30 12 C 5.997782 5.979932 -11.710495 0
M  V30 13 C 7.437959 3.396976 -15.601823 0
M  V30 14 C 5.979627 5.867521 -17.072359 0 CFG=1
M  V30 15 C 8.915734 5.689772 -10.250123 0
M  V30 16 C 7.058309 4.873044 -11.563989 0
M  V30 17 C 8.838702 6.544050 -12.366045 0 CFG=2
M  V30 18 C 4.955903 6.285706 -18.158182 0 CFG=2
M  V30 19 C 10.431900 7.093733 -9.078562 0
M  V30 20 C 6.159068 7.471373 -15.253092 0
M  V30 21 N 8.483797 5.032451 -9.149599 0
M  V30 22 C 7.036730 4.829267 -17.531973 0 CFG=2
M  V30 23 C 6.760257 7.115739 -19.925160 0
M  V30 24 N 8.418116 5.412354 -11.491557 0
M  V30 25 C 9.038227 5.454700 -7.978318 0
M  V30 26 N 12.233895 8.969242 -9.060884 0
M  V30 27 C 6.280126 6.411463 -14.134036 0
M  V30 28 C 11.432323 8.141678 -9.067027 0
M  V30 29 C 7.617742 2.027339 -16.270015 0
M  V30 30 H 6.536099 4.964390 -20.226760 0
M  V30 31 H 8.055797 5.631110 -20.742747 0
M  V30 32 H 10.035584 8.347239 -11.624637 0
M  V30 33 H 11.054998 6.920358 -12.006634 0
M  V30 34 H 8.696367 4.498534 -18.833109 0
M  V30 35 H 8.601860 6.135610 -18.266547 0
M  V30 36 H 4.642783 7.393455 -19.958800 0
M  V30 37 H 5.434467 8.320302 -18.737181 0
M  V30 38 H 3.767573 7.768389 -17.067293 0
M  V30 39 H 2.879078 6.896126 -18.290658 0
M  V30 40 H 3.260746 6.110478 -16.764761 0
M  V30 41 H 10.440629 6.757894 -6.939804 0
M  V30 42 H 7.594080 8.108711 -11.512726 0
M  V30 43 H 7.940149 8.358325 -13.190484 0
M  V30 44 H 5.034642 5.528432 -11.941014 0
M  V30 45 H 5.845856 6.494575 -10.762058 0
M  V30 46 H 8.059146 3.424077 -14.706015 0
M  V30 47 H 6.416680 3.549481 -15.258645 0
M  V30 48 H 5.406006 5.369389 -16.301137 0
M  V30 49 H 7.021884 4.221968 -12.437647 0
M  V30 50 H 6.813430 4.227757 -10.720359 0
M  V30 51 H 9.127977 6.170976 -13.349519 0
M  V30 52 H 4.703538 5.380161 -18.709627 0
M  V30 53 H 5.137894 7.841957 -15.322903 0
M  V30 54 H 6.779825 8.339603 -15.044499 0
M  V30 55 H 6.526071 3.948254 -17.917572 0
M  V30 56 H 6.645020 7.466002 -20.951606 0
M  V30 57 H 7.516197 7.769263 -19.492636 0
M  V30 58 H 8.690916 4.969304 -7.091666 0
M  V30 59 H 7.151661 5.788808 -14.319874 0
M  V30 60 H 5.415708 5.749259 -14.183378 0
M  V30 61 H 7.383908 1.225933 -15.568797 0
M  V30 62 H 6.966851 1.902506 -17.134730 0
M  V30 63 H 8.647432 1.888067 -16.601065 0
M  V30 64 H 5.680851 7.703640 -12.687513 0
M  V30 END ATOM
M  V30 BEGIN BOND
M  V30 1 1 4 1
M  V30 2 1 7 3
M  V30 3 1 11 6
M  V30 4 1 12 6
M  V30 5 1 13 5
M  V30 6 1 14 2
M  V30 7 1 15 1
M  V30 8 1 16 12
M  V30 9 1 17 4
M  V30 10 1 17 11
M  V30 11 1 18 8
M  V30 12 1 18 9
M  V30 13 1 18 14
M  V30 14 2 19 1
M  V30 15 1 19 10
M  V30 16 1 20 2
M  V30 17 2 21 15
M  V30 18 1 22 5
M  V30 19 1 22 7
M  V30 20 1 22 14
M  V30 21 1 23 3
M  V30 22 1 23 8
M  V30 23 1 24 15
M  V30 24 1 24 16
M  V30 25 1 24 17
M  V30 26 2 25 10
M  V30 27 1 25 21
M  V30 28 1 27 6
M  V30 29 1 27 20
M  V30 30 1 28 19
M  V30 31 3 28 26
M  V30 32 1 29 13
M  V30 33 1 30 3
M  V30 34 1 31 3
M  V30 35 1 32 4
M  V30 36 1 33 4
M  V30 37 1 34 7
M  V30 38 1 35 7
M  V30 39 1 36 8
M  V30 40 1 37 8
M  V30 41 1 38 9
M  V30 42 1 39 9
M  V30 43 1 40 9
M  V30 44 1 41 10
M  V30 45 1 42 11
M  V30 46 1 43 11
M  V30 47 1 44 12
M  V30 48 1 45 12
M  V30 49 1 46 13
M  V30 50 1 47 13
M  V30 51 1 14 48 CFG=1
M  V30 52 1 49 16
M  V30 53 1 50 16
M  V30 54 1 17 51 CFG=3
M  V30 55 1 18 52 CFG=3
M  V30 56 1 53 20
M  V30 57 1 54 20
M  V30 58 1 22 55 CFG=3
M  V30 59 1 56 23
M  V30 60 1 57 23
M  V30 61 1 58 25
M  V30 62 1 59 27
M  V30 63 1 60 27
M  V30 64 1 61 29
M  V30 65 1 62 29
M  V30 66 1 63 29
M  V30 67 1 6 64 CFG=3
M  V30 END BOND
M  V30 END CTAB
M  END
>  <i_epik_Tot_Q>  (1) 
1

>  <i_epik_Tot_abs_Q>  (1) 
1

>  <i_i_glide_confnum>  (1) 
13

>  <i_i_glide_lignum>  (1) 
73

>  <i_i_glide_posenum>  (1) 
351

>  <i_i_glide_rotatable_bonds>  (1) 
6

>  <i_lp_mmshare_version>  (1) 
72125

>  <i_m_source_file_index>  (1) 
30

>  <i_f3d_flags>  (1) 
0

>  <num_sample>  (1) 
50

>  <b_lp_Chiralities_Consistent>  (1) 
1

>  <r_epik_Charging_Adjusted_Penalty>  (1) 
1.0026227849201053

>  <r_epik_Ionization_Penalty>  (1) 
0.50131159217577048

>  <r_epik_Ionization_Penalty_Charging>  (1) 
0.50131139246005263

>  <r_epik_Ionization_Penalty_Neutral>  (1) 
1.9971571790720627e-07

>  <r_epik_State_Penalty>  (1) 
0.50131139246005263

>  <r_glide_ring_energy>  (1) 
0.31448414249904627

>  <r_i_docking_score>  (1) 
-3.1440130414517373

>  <r_i_glide_ecoul>  (1) 
-0.52861226786648841

>  <r_i_glide_eff_state_penalty>  (1) 
0.50131139246005263

>  <r_i_glide_einternal>  (1) 
2.8792928199911296

>  <r_i_glide_emodel>  (1) 
-39.430456536352274

>  <r_i_glide_emodel_strain>  (1) 
0.065566073599981678

>  <r_i_glide_energy>  (1) 
-33.300870297876699

>  <r_i_glide_erotb>  (1) 
0.6137117962777916

>  <r_i_glide_esite>  (1) 
-0.038395526801683955

>  <r_i_glide_evdw>  (1) 
-32.772258030010214

>  <r_i_glide_gscore>  (1) 
-3.6453244339117901

>  <r_i_glide_gscore_strain>  (1) 
0

>  <r_i_glide_hbond>  (1) 
0

>  <r_i_glide_ligand_efficiency>  (1) 
-0.1084142428086806

>  <r_i_glide_ligand_efficiency_ln>  (1) 
-0.71989926120060299

>  <r_i_glide_ligand_efficiency_sa>  (1) 
-0.33308290232510029

>  <r_i_glide_lipo>  (1) 
-1.8970106891648975

>  <r_i_glide_metal>  (1) 
-0

>  <r_i_glide_rewards>  (1) 
-0.60572527254251618

>  <r_lp_Energy>  (1) 
44.156497999999999

>  <s_epik_cmdline>  (1) 
J2VwaWtfcHl0aG9uJywgJy1waHQnLCAnMS4wJywgJy1waCcsICc3LjQnLCAnLXRuJywgJzgnLCAnLW1hJywgJzUwMCcsICctaW1hZScsICc8aW5maWxlLm1hZT4nLCAnLW9tYWUnLCAnPG91dGZpbGUubWFlPic=

>  <s_epik_input>  (1) 
TiNDYzFbY0hdW2NIXW5jKGMxMilOM1tDQEhdKFtDSDJdMilbQ0gyXU4oW0NIMl1bQ0gyXTMpW0NIMl1bQ0gyXU9bQ0BIXTRbQ0BASF0oW0NIM10pW0NIMl1bQ0gyXVtDSDJdW0NIMl1bQ0BIXTRPW0NIMl1bQ0gzXQ==

>  <s_glide_docking_method>  (1) 
confgen

>  <s_i_glide_gridfile>  (1) 
gpcr_drd2_6luq_protein_autoprepared_prepared

>  <s_lp_Force_Field>  (1) 
S-OPLS

>  <s_lp_Variant>  (1) 
DiffSBDD_29_num_sample_50-3

>  <s_m_source_file>  (1) 
generated__ligand_DiffSBDD_2026-05-06_prepared.sdf

>  <GenAI_Model>  (1) 
DiffSBDD

>  <Protein>  (1) 
generic_title2

$$$$
DiffSBDD_10_num_sample_50
     RDKit          3D

  0  0  0  0  0  0  0  0  0  0999 V3000
M  V30 BEGIN CTAB
M  V30 COUNTS 72 73 0 0 1
M  V30 BEGIN ATOM
M  V30 1 C 13.341601 4.492476 -18.126801 0 CFG=2
M  V30 2 C 9.122069 7.047782 -12.291646 0
M  V30 3 C 5.650049 5.797600 -14.894825 0
M  V30 4 C 7.526187 4.536394 -17.791113 0 CFG=1
M  V30 5 C 12.128243 3.539097 -18.016001 0 CFG=2
M  V30 6 N 9.434834 4.700034 -12.788341 0
M  V30 7 N 9.381840 3.264233 -17.091667 0
M  V30 8 C 9.701927 3.652906 -18.427889 0 CFG=1
M  V30 9 S 15.034690 3.667884 -18.299118 0
M  V30 10 C 10.122640 7.111186 -11.154829 0
M  V30 11 S 16.084250 4.569302 -16.691671 0 CHG=-1
M  V30 12 C 14.226678 6.909253 -18.372160 0
M  V30 13 O 9.034839 7.908418 -7.030199 0
M  V30 14 O 14.999760 2.230429 -17.994381 0
M  V30 15 C 12.688967 4.231490 -16.785823 0 CFG=2
M  V30 16 C 6.096990 5.846119 -12.370255 0
M  V30 17 C 7.940005 3.289088 -16.985222 0 CFG=1
M  V30 18 N 10.336099 7.073407 -8.652301 0 CHG=1
M  V30 19 N 7.911321 5.925078 -14.018473 0
M  V30 20 C 9.436781 7.299005 -9.803672 0
M  V30 21 C 9.190424 6.071813 -19.171076 0
M  V30 22 C 13.254329 5.831621 -18.869905 0
M  V30 23 C 12.170209 2.022415 -18.211205 0
M  V30 24 C 7.289353 5.791632 -16.913632 0
M  V30 25 C 6.662106 5.859294 -13.796147 0
M  V30 26 O 11.792410 5.232413 -16.338372 0
M  V30 27 C 8.845210 5.928132 -12.995268 0
M  V30 28 O 15.671461 4.131718 -19.541284 0
M  V30 29 F 7.564674 3.276482 -15.708010 0
M  V30 30 N 6.310918 4.571320 -11.708394 0
M  V30 31 C 9.644854 6.693693 -7.399814 0
M  V30 32 C 8.625123 4.661655 -18.886000 0 CFG=2
M  V30 33 O 10.978889 4.207856 -18.566833 0
M  V30 34 C 5.914457 5.772190 -16.234914 0
M  V30 35 H 8.607666 7.968125 -12.531421 0
M  V30 36 H 4.634835 5.769297 -14.557679 0
M  V30 37 H 6.583219 4.317711 -18.294205 0
M  V30 38 H 10.257798 4.613877 -12.211032 0
M  V30 39 H 9.751703 2.358729 -16.842812 0
M  V30 40 H 9.647362 2.771893 -19.069621 0
M  V30 41 H 10.865470 7.882803 -11.337692 0
M  V30 42 H 10.634839 6.169295 -11.138754 0
M  V30 43 H 14.022531 7.865034 -18.854797 0
M  V30 44 H 14.132396 7.054406 -17.295243 0
M  V30 45 H 15.263077 6.651523 -18.587588 0
M  V30 46 H 8.089013 7.777118 -7.086335 0
M  V30 47 H 13.229970 3.685972 -16.016710 0
M  V30 48 H 6.547954 6.642044 -11.777405 0
M  V30 49 H 5.034837 6.065035 -12.388109 0
M  V30 50 H 7.534445 2.386895 -17.445699 0
M  V30 51 H 10.881708 7.905717 -8.486110 0
M  V30 52 H 8.634838 6.569302 -9.743794 0
M  V30 53 H 9.034840 8.308447 -9.736082 0
M  V30 54 H 9.664046 6.506409 -18.291515 0
M  V30 55 H 9.936589 6.042935 -19.965978 0
M  V30 56 H 8.407525 6.751913 -19.505230 0
M  V30 57 H 13.413618 5.649701 -19.932156 0
M  V30 58 H 12.247329 6.236333 -18.780246 0
M  V30 59 H 12.789330 1.553292 -17.448596 0
M  V30 60 H 11.194053 1.556405 -18.107804 0
M  V30 61 H 12.559752 1.777980 -19.199249 0
M  V30 62 H 7.216777 6.660958 -17.562659 0
M  V30 63 H 8.172306 5.967313 -16.317989 0
M  V30 64 H 11.026453 5.165134 -16.894780 0
M  V30 65 H 7.306663 4.386731 -11.723605 0
M  V30 66 H 6.051626 4.656452 -10.734792 0
M  V30 67 H 10.363643 6.384720 -6.640039 0
M  V30 68 H 8.911258 5.898354 -7.544054 0
M  V30 69 H 8.224166 4.277411 -19.824981 0
M  V30 70 H 5.074616 5.732440 -16.912776 0
M  V30 71 H 9.289146 3.948743 -13.448305 0
M  V30 72 H 10.952869 6.311407 -8.890439 0
M  V30 END ATOM
M  V30 BEGIN BOND
M  V30 1 1 5 1
M  V30 2 1 8 7
M  V30 3 1 9 1
M  V30 4 1 10 2
M  V30 5 1 11 9
M  V30 6 2 14 9
M  V30 7 1 15 1
M  V30 8 1 15 5
M  V30 9 1 17 4
M  V30 10 1 17 7
M  V30 11 1 20 10
M  V30 12 1 20 18
M  V30 13 1 1 22 CFG=3
M  V30 14 1 22 12
M  V30 15 1 23 5
M  V30 16 1 24 4
M  V30 17 1 25 3
M  V30 18 1 25 16
M  V30 19 2 25 19
M  V30 20 1 26 15
M  V30 21 2 27 2
M  V30 22 1 27 6
M  V30 23 1 27 19
M  V30 24 2 28 9
M  V30 25 1 29 17
M  V30 26 1 30 16
M  V30 27 1 31 13
M  V30 28 1 31 18
M  V30 29 1 32 4
M  V30 30 1 32 8
M  V30 31 1 32 21
M  V30 32 1 5 33 CFG=3
M  V30 33 1 33 8
M  V30 34 2 34 3
M  V30 35 1 34 24
M  V30 36 1 35 2
M  V30 37 1 36 3
M  V30 38 1 4 37 CFG=3
M  V30 39 1 38 6
M  V30 40 1 39 7
M  V30 41 1 8 40 CFG=3
M  V30 42 1 41 10
M  V30 43 1 42 10
M  V30 44 1 43 12
M  V30 45 1 44 12
M  V30 46 1 45 12
M  V30 47 1 46 13
M  V30 48 1 15 47 CFG=1
M  V30 49 1 48 16
M  V30 50 1 49 16
M  V30 51 1 17 50 CFG=3
M  V30 52 1 51 18
M  V30 53 1 52 20
M  V30 54 1 53 20
M  V30 55 1 54 21
M  V30 56 1 55 21
M  V30 57 1 56 21
M  V30 58 1 57 22
M  V30 59 1 58 22
M  V30 60 1 59 23
M  V30 61 1 60 23
M  V30 62 1 61 23
M  V30 63 1 62 24
M  V30 64 1 63 24
M  V30 65 1 64 26
M  V30 66 1 65 30
M  V30 67 1 66 30
M  V30 68 1 67 31
M  V30 69 1 68 31
M  V30 70 1 32 69 CFG=3
M  V30 71 1 70 34
M  V30 72 1 71 6
M  V30 73 1 72 18
M  V30 END BOND
M  V30 END CTAB
M  END
>  <i_epik_Tot_Q>  (1) 
0

>  <i_epik_Tot_abs_Q>  (1) 
2

>  <i_i_glide_confnum>  (1) 
3893

>  <i_i_glide_lignum>  (1) 
23

>  <i_i_glide_posenum>  (1) 
278

>  <i_i_glide_rotatable_bonds>  (1) 
15

>  <i_lp_mmshare_version>  (1) 
72125

>  <i_m_source_file_index>  (1) 
11

>  <i_f3d_flags>  (1) 
0

>  <num_sample>  (1) 
50

>  <b_lp_Chiralities_Consistent>  (1) 
1

>  <r_epik_Charging_Adjusted_Penalty>  (1) 
0.33639934582642134

>  <r_epik_Ionization_Penalty>  (1) 
0.23315943830934333

>  <r_epik_Ionization_Penalty_Charging>  (1) 
0.10316865490585193

>  <r_epik_Ionization_Penalty_Neutral>  (1) 
0.12999078340349141

>  <r_epik_State_Penalty>  (1) 
0.23323069092056939

>  <r_glide_ring_energy>  (1) 
0

>  <r_i_docking_score>  (1) 
-3.1396836325881865

>  <r_i_glide_ecoul>  (1) 
-6.3311659430957592

>  <r_i_glide_eff_state_penalty>  (1) 
0.23323069092056939

>  <r_i_glide_einternal>  (1) 
13.897652061933147

>  <r_i_glide_emodel>  (1) 
-37.850344106652919

>  <r_i_glide_emodel_strain>  (1) 
0.87894424928133219

>  <r_i_glide_energy>  (1) 
-35.319341424868725

>  <r_i_glide_erotb>  (1) 
0.82510599487301828

>  <r_i_glide_esite>  (1) 
-0.10430007968817674

>  <r_i_glide_evdw>  (1) 
-28.988175481772963

>  <r_i_glide_gscore>  (1) 
-3.372914323508756

>  <r_i_glide_gscore_strain>  (1) 
0

>  <r_i_glide_hbond>  (1) 
-0.25667575190679887

>  <r_i_glide_ligand_efficiency>  (1) 
-0.092343636252593717

>  <r_i_glide_ligand_efficiency_ln>  (1) 
-0.69364417958165936

>  <r_i_glide_ligand_efficiency_sa>  (1) 
-0.2991575337767779

>  <r_i_glide_lipo>  (1) 
-0.76656014060581779

>  <r_i_glide_metal>  (1) 
-0

>  <r_i_glide_rewards>  (1) 
-0.67140068062796876

>  <r_lp_Energy>  (1) 
24.577817

>  <s_epik_Chemistry_Notes>  (1) 
This compound has an imine and may undergo hydrolysis. This compound contains an acetal/aminal-like group ( X-CH(R)-Y where X, Y are N, S, or O) that may be acid/base labile, releasing an aldehyde.

>  <s_epik_cmdline>  (1) 
J2VwaWtfcHl0aG9uJywgJy1waHQnLCAnMS4wJywgJy1waCcsICc3LjQnLCAnLXRuJywgJzgnLCAnLW1hJywgJzUwMCcsICctaW1hZScsICc8aW5maWxlLm1hZT4nLCAnLW9tYWUnLCAnPG91dGZpbGUubWFlPic=

>  <s_epik_input>  (1) 
W1NIXVMoPU8pKD1PKVtDQEBdMShbQ0gyXVtDSDNdKVtDQEBdKFtDSDNdKShbQ0BASF0xW09IXSlPW0NASF0oW0NAQEhdMltDSDNdKVtOSF1bQ0BASF0oRilbQ0BIXTJbQ0gyXS9bQ0hdPVtDSF1cQyhbQ0gyXVtOSDJdKT1OXEMoPU5cW0hdKVxbQ0gyXVtDSDJdW0NIMl1bTkhdW0NIMl1bT0hd

>  <s_glide_docking_method>  (1) 
confgen

>  <s_i_glide_gridfile>  (1) 
gpcr_drd2_6luq_protein_autoprepared_prepared

>  <s_lp_Force_Field>  (1) 
S-OPLS

>  <s_lp_Variant>  (1) 
DiffSBDD_10_num_sample_50-3

>  <s_m_source_file>  (1) 
generated__ligand_DiffSBDD_2026-05-06_prepared.sdf

>  <GenAI_Model>  (1) 
DiffSBDD

>  <Protein>  (1) 
generic_title2

$$$$
DiffSBDD_39_num_sample_50
     RDKit          3D

  0  0  0  0  0  0  0  0  0  0999 V3000
M  V30 BEGIN CTAB
M  V30 COUNTS 60 63 0 0 1
M  V30 BEGIN ATOM
M  V30 1 C 21.859184 9.801267 -18.901462 0
M  V30 2 C 24.207233 10.453699 -18.224158 0
M  V30 3 C 17.243299 8.259017 -18.881099 0 CFG=1
M  V30 4 O 23.025773 12.285943 -20.208580 0
M  V30 5 C 15.710468 8.456236 -19.149764 0 CFG=2
M  V30 6 C 15.414798 8.190528 -20.654380 0
M  V30 7 C 19.515504 8.900118 -19.298273 0 CFG=1
M  V30 8 O 21.034539 14.616738 -16.792153 0
M  V30 9 C 16.021059 5.372056 -17.661379 0
M  V30 10 O 19.161204 9.768725 -21.466986 0
M  V30 11 C 21.834851 14.533101 -18.912421 0
M  V30 12 C 20.348592 10.080834 -18.820999 0
M  V30 13 N 15.200347 6.053372 -18.475880 0
M  V30 14 C 20.911600 16.619330 -18.231761 0
M  V30 15 O 16.553011 5.956021 -16.691860 0
M  V30 16 C 22.734852 10.901580 -18.261825 0 CFG=1
M  V30 17 N 18.089301 9.325654 -19.426068 0
M  V30 18 C 13.330505 7.596316 -18.551319 0
M  V30 19 C 21.255595 15.282143 -17.985779 0
M  V30 20 C 15.305701 9.918783 -18.813892 0
M  V30 21 C 21.198469 17.168366 -19.508275 0
M  V30 22 C 22.148228 15.013878 -20.201521 0
M  V30 23 C 18.785417 9.010550 -20.574485 0
M  V30 24 F 20.880885 18.455658 -19.781531 0
M  V30 25 C 21.822309 16.358979 -20.501529 0
M  V30 26 C 21.555509 13.222179 -17.025546 0
M  V30 27 O 17.491499 8.306616 -17.491650 0
M  V30 28 C 14.847034 7.468339 -18.278926 0 CFG=2
M  V30 29 O 16.234879 4.169325 -17.900214 0 CHG=-1
M  V30 30 C 22.613574 12.233871 -19.051057 0
M  V30 31 C 13.935519 8.032864 -20.957947 0
M  V30 32 N 22.042123 13.304286 -18.409283 0
M  V30 33 C 13.009856 7.769355 -20.023207 0
M  V30 34 H 22.064166 8.856041 -18.396417 0
M  V30 35 H 22.143845 9.650579 -19.944267 0
M  V30 36 H 24.841265 11.214299 -17.767159 0
M  V30 37 H 24.325317 9.539465 -17.640972 0
M  V30 38 H 24.594191 10.255245 -19.224657 0
M  V30 39 H 17.551324 7.270261 -19.232175 0
M  V30 40 H 15.808937 9.002222 -21.266794 0
M  V30 41 H 15.913445 7.280821 -20.989848 0
M  V30 42 H 19.760212 7.904074 -18.930700 0
M  V30 43 H 20.099019 10.979841 -19.386294 0
M  V30 44 H 20.068791 10.282108 -17.785966 0
M  V30 45 H 14.782689 5.570557 -19.256089 0
M  V30 46 H 20.438684 17.217175 -17.467256 0
M  V30 47 H 22.431352 10.973443 -17.221574 0
M  V30 48 H 12.941646 8.458291 -18.016164 0
M  V30 49 H 12.789957 6.733327 -18.160063 0
M  V30 50 H 14.240159 10.105810 -18.943922 0
M  V30 51 H 15.556326 10.178694 -17.785234 0
M  V30 52 H 15.809479 10.626334 -19.470908 0
M  V30 53 H 22.617473 14.391365 -20.942656 0
M  V30 54 H 22.044135 16.768412 -21.475965 0
M  V30 55 H 20.742863 12.497719 -16.949460 0
M  V30 56 H 22.382009 13.011706 -16.345106 0
M  V30 57 H 17.182734 7.473984 -17.117928 0
M  V30 58 H 14.968502 7.727289 -17.225916 0
M  V30 59 H 13.637635 8.141638 -21.990604 0
M  V30 60 H 11.972674 7.673335 -20.308531 0
M  V30 END ATOM
M  V30 BEGIN BOND
M  V30 1 1 5 3
M  V30 2 1 6 5
M  V30 3 1 12 1
M  V30 4 1 12 7
M  V30 5 1 13 9
M  V30 6 2 15 9
M  V30 7 1 16 1
M  V30 8 1 16 2
M  V30 9 1 17 3
M  V30 10 1 17 7
M  V30 11 1 19 8
M  V30 12 2 19 11
M  V30 13 1 19 14
M  V30 14 1 5 20 CFG=1
M  V30 15 2 21 14
M  V30 16 1 22 11
M  V30 17 1 23 7
M  V30 18 2 23 10
M  V30 19 1 23 17
M  V30 20 1 24 21
M  V30 21 1 25 21
M  V30 22 2 25 22
M  V30 23 1 26 8
M  V30 24 1 27 3
M  V30 25 1 28 5
M  V30 26 1 28 13
M  V30 27 1 28 18
M  V30 28 1 29 9
M  V30 29 2 30 4
M  V30 30 1 30 16
M  V30 31 1 31 6
M  V30 32 1 32 11
M  V30 33 1 32 26
M  V30 34 1 32 30
M  V30 35 1 33 18
M  V30 36 2 33 31
M  V30 37 1 34 1
M  V30 38 1 35 1
M  V30 39 1 36 2
M  V30 40 1 37 2
M  V30 41 1 38 2
M  V30 42 1 3 39 CFG=3
M  V30 43 1 40 6
M  V30 44 1 41 6
M  V30 45 1 7 42 CFG=1
M  V30 46 1 43 12
M  V30 47 1 44 12
M  V30 48 1 45 13
M  V30 49 1 46 14
M  V30 50 1 16 47 CFG=1
M  V30 51 1 48 18
M  V30 52 1 49 18
M  V30 53 1 50 20
M  V30 54 1 51 20
M  V30 55 1 52 20
M  V30 56 1 53 22
M  V30 57 1 54 25
M  V30 58 1 55 26
M  V30 59 1 56 26
M  V30 60 1 57 27
M  V30 61 1 28 58 CFG=1
M  V30 62 1 59 31
M  V30 63 1 60 33
M  V30 END BOND
M  V30 END CTAB
M  END
>  <i_epik_Tot_Q>  (1) 
-1

>  <i_epik_Tot_abs_Q>  (1) 
1

>  <i_i_glide_confnum>  (1) 
62

>  <i_i_glide_lignum>  (1) 
97

>  <i_i_glide_posenum>  (1) 
108

>  <i_i_glide_rotatable_bonds>  (1) 
10

>  <i_lp_mmshare_version>  (1) 
72125

>  <i_m_source_file_index>  (1) 
40

>  <i_f3d_flags>  (1) 
0

>  <num_sample>  (1) 
50

>  <b_lp_Chiralities_Consistent>  (1) 
1

>  <r_epik_Charging_Adjusted_Penalty>  (1) 
0.003396760876195394

>  <r_epik_Ionization_Penalty>  (1) 
0.00096209118661649666

>  <r_epik_Ionization_Penalty_Charging>  (1) 
0.00096096227606769398

>  <r_epik_Ionization_Penalty_Neutral>  (1) 
1.1289105488026586e-06

>  <r_epik_State_Penalty>  (1) 
0.0024357986001277

>  <r_glide_ring_energy>  (1) 
0

>  <r_i_docking_score>  (1) 
-3.1312799587133497

>  <r_i_glide_ecoul>  (1) 
-3.6156624194029856

>  <r_i_glide_eff_state_penalty>  (1) 
0.0024357986001277

>  <r_i_glide_einternal>  (1) 
18.353456432078985

>  <r_i_glide_emodel>  (1) 
-22.034472511975324

>  <r_i_glide_emodel_strain>  (1) 
0.66020115101491683

>  <r_i_glide_energy>  (1) 
-27.790448326569404

>  <r_i_glide_erotb>  (1) 
0.66448012662833866

>  <r_i_glide_esite>  (1) 
-0.0038493291821481432

>  <r_i_glide_evdw>  (1) 
-24.174785907166417

>  <r_i_glide_gscore>  (1) 
-3.1337157573134773

>  <r_i_glide_gscore_strain>  (1) 
0

>  <r_i_glide_hbond>  (1) 
-0.13498285137626581

>  <r_i_glide_ligand_efficiency>  (1) 
-0.094887271476162119

>  <r_i_glide_ligand_efficiency_ln>  (1) 
-0.69638044991791848

>  <r_i_glide_ligand_efficiency_sa>  (1) 
-0.30435418073942377

>  <r_i_glide_lipo>  (1) 
-1.0989009598571722

>  <r_i_glide_metal>  (1) 
-0

>  <r_i_glide_rewards>  (1) 
-0.80937408525746113

>  <r_lp_Energy>  (1) 
30.570542999999997

>  <r_lp_tautomer_probability>  (1) 
1

>  <s_epik_Chemistry_Notes>  (1) 
This compound contains an acetal/aminal-like group ( X-CH(R)-Y where X, Y are N, S, or O) that may be acid/base labile, releasing an aldehyde.

>  <s_epik_cmdline>  (1) 
J2VwaWtfcHl0aG9uJywgJy1waHQnLCAnMS4wJywgJy1waCcsICc3LjQnLCAnLXRuJywgJzgnLCAnLW1hJywgJzUwMCcsICctaW1hZScsICc8aW5maWxlLm1hZT4nLCAnLW9tYWUnLCAnPG91dGZpbGUubWFlPic=

>  <s_epik_input>  (1) 
W2NIXTFbY0hdYyhGKVtjSF1jKGMxMilPW0NIMl1OMkMoPU8pW0NASF0oW0NIM10pW0NIMl1bQ0gyXVtDQEhdM04oQzM9TylbQ0BASF0oW09IXSlbQ0BAXTQoW0NIM10pW0NIMl1bQ0hdPVtDSF1bQ0gyXVtDQEhdNFtOSF1DKD1PKVtPSF0=

>  <s_glide_docking_method>  (1) 
confgen

>  <s_i_glide_gridfile>  (1) 
gpcr_drd2_6luq_protein_autoprepared_prepared

>  <s_lp_Force_Field>  (1) 
S-OPLS

>  <s_lp_Variant>  (1) 
DiffSBDD_39_num_sample_50-1

>  <s_m_source_file>  (1) 
generated__ligand_DiffSBDD_2026-05-06_prepared.sdf

>  <GenAI_Model>  (1) 
DiffSBDD

>  <Protein>  (1) 
generic_title2

$$$$
DiffSBDD_31_num_sample_50
     RDKit          3D

  0  0  0  0  0  0  0  0  0  0999 V3000
M  V30 BEGIN CTAB
M  V30 COUNTS 71 76 0 0 1
M  V30 BEGIN ATOM
M  V30 1 C 4.665285 9.113709 -21.278443 0
M  V30 2 C 7.245043 8.141256 -21.910384 0
M  V30 3 C 5.468012 0.569278 -17.575504 0
M  V30 4 C 5.572756 1.548794 -20.845202 0
M  V30 5 C 6.823900 -0.469660 -20.117449 0
M  V30 6 C 9.247849 3.917385 -21.458442 0
M  V30 7 C 6.332793 -2.720815 -19.164021 0 CFG=2
M  V30 8 C 9.827742 8.371149 -21.699366 0
M  V30 9 F 3.433277 9.581674 -20.975538 0
M  V30 10 C 5.171423 9.259957 -22.579572 0
M  V30 11 C 8.625917 7.624519 -22.255083 0
M  V30 12 C 8.065544 1.615893 -21.068315 0
M  V30 13 C 6.537860 4.954826 -22.215436 0
M  V30 14 C 7.637675 5.519664 -23.142031 0
M  V30 15 C 9.167378 5.437155 -21.209715 0
M  V30 16 C 6.455049 8.776343 -22.895832 0
M  V30 17 F 7.560432 -3.155135 -19.461052 0
M  V30 18 C 5.440228 8.483020 -20.291470 0
M  V30 19 C 6.726841 7.998980 -20.605349 0
M  V30 20 C 5.719765 -0.725727 -17.859304 0
M  V30 21 N 8.729483 6.159403 -22.403019 0
M  V30 22 C 5.529144 3.061901 -21.072695 0
M  V30 23 C 5.331394 -3.225450 -20.229704 0
M  V30 24 C 6.902494 1.056299 -20.223661 0 CFG=1
M  V30 25 O 5.283953 -4.636397 -20.252116 0
M  V30 26 C 9.511232 8.453320 -23.167366 0
M  V30 27 C 8.549236 0.935677 -22.337028 0
M  V30 28 C 6.307899 -1.224159 -19.086500 0
M  V30 29 C 5.946851 -3.054084 -17.643285 0 CFG=2
M  V30 30 O 5.076555 -4.165734 -17.491652 0
M  V30 31 C 9.397490 0.879023 -21.086201 0
M  V30 32 C 7.959324 3.162648 -21.046816 0 CFG=2
M  V30 33 N 6.725986 3.533993 -21.812122 0 CFG=2 CHG=1
M  V30 34 C 5.370829 -1.790301 -16.881750 0
M  V30 35 H 5.034848 0.830418 -16.624569 0
M  V30 36 H 5.657567 1.361795 -18.240639 0
M  V30 37 H 5.435981 1.052511 -21.807654 0
M  V30 38 H 4.714637 1.244650 -20.244593 0
M  V30 39 H 7.226807 -1.002058 -20.964280 0
M  V30 40 H 9.566789 3.688396 -22.475483 0
M  V30 41 H 10.055935 3.566993 -20.817912 0
M  V30 42 H 9.633977 9.252262 -21.091835 0
M  V30 43 H 10.740800 7.835147 -21.451730 0
M  V30 44 H 4.575282 9.744517 -23.338509 0
M  V30 45 H 5.601952 5.016788 -22.772834 0
M  V30 46 H 6.383845 5.560754 -21.327137 0
M  V30 47 H 8.034075 4.728729 -23.778870 0
M  V30 48 H 7.208385 6.246758 -23.831316 0
M  V30 49 H 10.161709 5.791632 -20.940806 0
M  V30 50 H 8.526671 5.659177 -20.356155 0
M  V30 51 H 6.838198 8.892331 -23.896445 0
M  V30 52 H 5.051047 8.371969 -19.289779 0
M  V30 53 H 7.319278 7.518200 -19.841374 0
M  V30 54 H 4.634897 3.313875 -21.639005 0
M  V30 55 H 5.449666 3.581472 -20.115905 0
M  V30 56 H 5.601689 -2.869654 -21.224122 0
M  V30 57 H 4.330593 -2.848976 -20.013606 0
M  V30 58 H 7.195594 1.468187 -19.267387 0
M  V30 59 H 5.128926 -4.910720 -19.354029 0
M  V30 60 H 10.192000 7.930198 -23.834596 0
M  V30 61 H 9.147353 9.411942 -23.534664 0
M  V30 62 H 8.058183 0.022310 -22.663256 0
M  V30 63 H 8.910305 1.561573 -23.150043 0
M  V30 64 H 6.872718 -3.325139 -17.134041 0
M  V30 65 H 4.811672 -4.230594 -16.569647 0
M  V30 66 H 10.331657 1.432615 -21.108797 0
M  V30 67 H 9.465552 -0.080345 -20.577591 0
M  V30 68 H 7.797773 3.464749 -20.010089 0
M  V30 69 H 5.834783 -1.628421 -15.908317 0
M  V30 70 H 4.287529 -1.829885 -16.764111 0
M  V30 71 H 6.766403 3.007694 -22.673930 0
M  V30 END ATOM
M  V30 BEGIN BOND
M  V30 1 1 9 1
M  V30 2 1 10 1
M  V30 3 1 11 2
M  V30 4 1 11 8
M  V30 5 1 14 13
M  V30 6 1 15 6
M  V30 7 1 16 2
M  V30 8 2 16 10
M  V30 9 1 7 17 CFG=3
M  V30 10 2 18 1
M  V30 11 2 19 2
M  V30 12 1 19 18
M  V30 13 2 20 3
M  V30 14 1 21 11
M  V30 15 1 21 14
M  V30 16 1 21 15
M  V30 17 1 22 4
M  V30 18 1 23 7
M  V30 19 1 24 4
M  V30 20 1 24 5
M  V30 21 1 24 12
M  V30 22 1 25 23
M  V30 23 1 26 8
M  V30 24 1 26 11
M  V30 25 1 27 12
M  V30 26 2 28 5
M  V30 27 1 28 7
M  V30 28 1 28 20
M  V30 29 1 29 7
M  V30 30 1 30 29
M  V30 31 1 31 12
M  V30 32 1 31 27
M  V30 33 1 32 6
M  V30 34 1 32 12
M  V30 35 1 33 13
M  V30 36 1 33 22
M  V30 37 1 33 32
M  V30 38 1 34 20
M  V30 39 1 34 29
M  V30 40 1 35 3
M  V30 41 1 36 3
M  V30 42 1 37 4
M  V30 43 1 38 4
M  V30 44 1 39 5
M  V30 45 1 40 6
M  V30 46 1 41 6
M  V30 47 1 42 8
M  V30 48 1 43 8
M  V30 49 1 44 10
M  V30 50 1 45 13
M  V30 51 1 46 13
M  V30 52 1 47 14
M  V30 53 1 48 14
M  V30 54 1 49 15
M  V30 55 1 50 15
M  V30 56 1 51 16
M  V30 57 1 52 18
M  V30 58 1 53 19
M  V30 59 1 54 22
M  V30 60 1 55 22
M  V30 61 1 56 23
M  V30 62 1 57 23
M  V30 63 1 24 58 CFG=1
M  V30 64 1 59 25
M  V30 65 1 60 26
M  V30 66 1 61 26
M  V30 67 1 62 27
M  V30 68 1 63 27
M  V30 69 1 29 64 CFG=1
M  V30 70 1 65 30
M  V30 71 1 66 31
M  V30 72 1 67 31
M  V30 73 1 32 68 CFG=1
M  V30 74 1 69 34
M  V30 75 1 70 34
M  V30 76 1 33 71 CFG=3
M  V30 END BOND
M  V30 END CTAB
M  END
>  <i_epik_Tot_Q>  (1) 
1

>  <i_epik_Tot_abs_Q>  (1) 
1

>  <i_i_glide_confnum>  (1) 
244

>  <i_i_glide_lignum>  (1) 
81

>  <i_i_glide_posenum>  (1) 
80

>  <i_i_glide_rotatable_bonds>  (1) 
6

>  <i_lp_mmshare_version>  (1) 
72125

>  <i_m_source_file_index>  (1) 
32

>  <i_f3d_flags>  (1) 
0

>  <num_sample>  (1) 
50

>  <b_lp_Chiralities_Consistent>  (1) 
1

>  <r_epik_Charging_Adjusted_Penalty>  (1) 
0.0036996964664751512

>  <r_epik_Ionization_Penalty>  (1) 
0.0040620325304727405

>  <r_epik_Ionization_Penalty_Charging>  (1) 
0.0036996964664751512

>  <r_epik_Ionization_Penalty_Neutral>  (1) 
0.00036233606399758918

>  <r_epik_State_Penalty>  (1) 
-0

>  <r_glide_ring_energy>  (1) 
0

>  <r_i_docking_score>  (1) 
-3.1172542086594253

>  <r_i_glide_ecoul>  (1) 
-5.3738018759292681

>  <r_i_glide_eff_state_penalty>  (1) 
-0

>  <r_i_glide_einternal>  (1) 
4.8262883306697724

>  <r_i_glide_emodel>  (1) 
-26.689500467606848

>  <r_i_glide_emodel_strain>  (1) 
1.8446004841985371

>  <r_i_glide_energy>  (1) 
-25.368326802438272

>  <r_i_glide_erotb>  (1) 
0.36352394052346937

>  <r_i_glide_esite>  (1) 
0

>  <r_i_glide_evdw>  (1) 
-19.994524926509005

>  <r_i_glide_gscore>  (1) 
-3.1172542086594253

>  <r_i_glide_gscore_strain>  (1) 
0

>  <r_i_glide_hbond>  (1) 
-0.16

>  <r_i_glide_ligand_efficiency>  (1) 
-0.091683947313512509

>  <r_i_glide_ligand_efficiency_ln>  (1) 
-0.68868889071176465

>  <r_i_glide_ligand_efficiency_sa>  (1) 
-0.29702039770455818

>  <r_i_glide_lipo>  (1) 
-1.032400895218343

>  <r_i_glide_metal>  (1) 
-0

>  <r_i_glide_rewards>  (1) 
-0.48258072624971127

>  <r_lp_Energy>  (1) 
34.452109999999998

>  <r_lp_tautomer_probability>  (1) 
1

>  <s_epik_cmdline>  (1) 
J2VwaWtfcHl0aG9uJywgJy1waHQnLCAnMS4wJywgJy1waCcsICc3LjQnLCAnLXRuJywgJzgnLCAnLW1hJywgJzUwMCcsICctaW1hZScsICc8aW5maWxlLm1hZT4nLCAnLW9tYWUnLCAnPG91dGZpbGUubWFlPic=

>  <s_epik_input>  (1) 
RmMxW2NIXVtjSF1jKFtjSF1bY0hdMSlDMihbQ0gyXVtDSDJdMilOKFtDSDJdW0NIMl0zKVtDSDJdW0NIMl1OKFtDQEhdM0M0NVtDSDJdW0NIMl01KVtDSDJdW0NIMl1bQ0BIXTQvW0NIXT1DKC9bQ0BdNihGKVtDSDJdW09IXSlDKD1bQ0gyXSlbQ0gyXVtDQEhdNltPSF0=

>  <s_glide_docking_method>  (1) 
confgen

>  <s_i_glide_gridfile>  (1) 
gpcr_drd2_6luq_protein_autoprepared_prepared

>  <s_lp_Force_Field>  (1) 
S-OPLS

>  <s_lp_Variant>  (1) 
DiffSBDD_31_num_sample_50-4

>  <s_m_source_file>  (1) 
generated__ligand_DiffSBDD_2026-05-06_prepared.sdf

>  <GenAI_Model>  (1) 
DiffSBDD

>  <Protein>  (1) 
generic_title2

$$$$
DiffSBDD_10_num_sample_50
     RDKit          3D

  0  0  0  0  0  0  0  0  0  0999 V3000
M  V30 BEGIN CTAB
M  V30 COUNTS 71 72 0 0 1
M  V30 BEGIN ATOM
M  V30 1 C 10.750941 7.723584 -8.554449 0 CFG=2
M  V30 2 C 9.649777 1.464205 -18.752671 0
M  V30 3 C 8.209414 2.191405 -15.936795 0
M  V30 4 C 8.235897 4.262912 -12.820655 0 CFG=1
M  V30 5 C 9.616315 6.710199 -8.923744 0 CFG=2
M  V30 6 N 10.306698 -0.493636 -17.494440 0
M  V30 7 N 7.624837 5.369309 -10.803761 0
M  V30 8 C 9.023020 5.051412 -10.708636 0 CFG=1
M  V30 9 S 10.785157 8.316402 -6.767381 0
M  V30 10 C 11.017191 1.751678 -19.345561 0
M  V30 11 S 11.434632 6.569331 -5.799097 0 CHG=-1
M  V30 12 C 13.357815 8.072992 -8.710488 0
M  V30 13 O 11.659306 5.009012 -16.552211 0
M  V30 14 O 11.817301 9.346047 -6.572468 0
M  V30 15 C 9.434850 8.191945 -9.122058 0 CFG=2
M  V30 16 C 6.100772 0.693826 -16.088167 0
M  V30 17 C 7.169640 5.182939 -12.176834 0 CFG=1
M  V30 18 N 10.951081 4.114453 -18.508617 0
M  V30 19 N 8.109284 0.237751 -17.404935 0
M  V30 20 C 11.203256 3.249402 -19.654829 0
M  V30 21 C 10.233880 5.941634 -12.753276 0
M  V30 22 C 11.994419 8.042378 -9.408959 0
M  V30 23 C 8.857416 5.858896 -7.905463 0
M  V30 24 C 8.286296 4.204721 -14.378909 0
M  V30 25 C 7.529328 0.989190 -16.539619 0
M  V30 26 O 9.433428 8.561984 -10.485999 0
M  V30 27 C 9.383150 0.441033 -17.916644 0
M  V30 28 O 9.419015 8.569315 -6.291351 0
M  V30 29 F 7.114837 6.379258 -12.762119 0
M  V30 30 N 5.674476 -0.659010 -16.395788 0
M  V30 31 C 12.005743 4.041058 -17.516580 0
M  V30 32 C 9.532223 4.713032 -12.124596 0 CFG=2
M  V30 33 O 9.834852 6.071554 -10.189917 0
M  V30 34 C 7.619556 2.981850 -15.004295 0
M  V30 35 H 8.853952 2.140803 -19.034364 0
M  V30 36 H 9.209231 2.399369 -16.292028 0
M  V30 37 H 8.032815 3.250280 -12.464152 0
M  V30 38 H 11.258019 -0.488839 -17.831059 0
M  V30 39 H 7.405681 6.296929 -10.439753 0
M  V30 40 H 9.126099 4.177725 -10.063317 0
M  V30 41 H 11.104323 1.189606 -20.278427 0
M  V30 42 H 11.811884 1.390968 -18.689973 0
M  V30 43 H 14.163332 7.862296 -9.411052 0
M  V30 44 H 13.571695 9.048384 -8.291673 0
M  V30 45 H 13.413654 7.369353 -7.891415 0
M  V30 46 H 11.851389 4.662181 -15.689223 0
M  V30 47 H 8.723751 8.758177 -8.525542 0
M  V30 48 H 5.983077 0.841537 -15.016112 0
M  V30 49 H 5.436497 1.369552 -16.615474 0
M  V30 50 H 6.165002 4.756584 -12.203090 0
M  V30 51 H 10.896487 5.073378 -18.825133 0
M  V30 52 H 10.498467 3.536596 -20.434561 0
M  V30 53 H 12.198371 3.436378 -20.058153 0
M  V30 54 H 9.604963 6.829339 -12.713804 0
M  V30 55 H 11.156566 6.186636 -12.230335 0
M  V30 56 H 10.518875 5.765201 -13.786495 0
M  V30 57 H 12.033824 7.342287 -10.241229 0
M  V30 58 H 11.854241 9.018017 -9.873700 0
M  V30 59 H 8.795832 6.324131 -6.927894 0
M  V30 60 H 7.835522 5.670450 -8.227365 0
M  V30 61 H 9.358328 4.901772 -7.782342 0
M  V30 62 H 9.315318 4.225908 -14.732732 0
M  V30 63 H 7.831888 5.100781 -14.797914 0
M  V30 64 H 8.567051 8.342239 -10.805389 0
M  V30 65 H 4.700011 -0.790493 -16.167880 0
M  V30 66 H 5.770019 -0.819303 -17.390102 0
M  V30 67 H 12.979957 4.276364 -17.948453 0
M  V30 68 H 12.046191 3.050470 -17.059018 0
M  V30 69 H 10.233065 3.884433 -12.063782 0
M  V30 70 H 6.622155 2.763850 -14.664433 0
M  V30 71 H 10.040736 -1.275631 -16.908400 0
M  V30 END ATOM
M  V30 BEGIN BOND
M  V30 1 1 5 1
M  V30 2 1 8 7
M  V30 3 1 9 1
M  V30 4 1 10 2
M  V30 5 1 11 9
M  V30 6 2 14 9
M  V30 7 1 15 1
M  V30 8 1 15 5
M  V30 9 1 17 4
M  V30 10 1 17 7
M  V30 11 1 20 10
M  V30 12 1 20 18
M  V30 13 1 1 22 CFG=3
M  V30 14 1 22 12
M  V30 15 1 23 5
M  V30 16 1 24 4
M  V30 17 1 25 3
M  V30 18 1 25 16
M  V30 19 2 25 19
M  V30 20 1 26 15
M  V30 21 2 27 2
M  V30 22 1 27 6
M  V30 23 1 27 19
M  V30 24 2 28 9
M  V30 25 1 29 17
M  V30 26 1 30 16
M  V30 27 1 31 13
M  V30 28 1 31 18
M  V30 29 1 32 4
M  V30 30 1 32 8
M  V30 31 1 32 21
M  V30 32 1 5 33 CFG=3
M  V30 33 1 33 8
M  V30 34 2 34 3
M  V30 35 1 34 24
M  V30 36 1 35 2
M  V30 37 1 36 3
M  V30 38 1 4 37 CFG=1
M  V30 39 1 38 6
M  V30 40 1 39 7
M  V30 41 1 8 40 CFG=1
M  V30 42 1 41 10
M  V30 43 1 42 10
M  V30 44 1 43 12
M  V30 45 1 44 12
M  V30 46 1 45 12
M  V30 47 1 46 13
M  V30 48 1 15 47 CFG=1
M  V30 49 1 48 16
M  V30 50 1 49 16
M  V30 51 1 17 50 CFG=1
M  V30 52 1 51 18
M  V30 53 1 52 20
M  V30 54 1 53 20
M  V30 55 1 54 21
M  V30 56 1 55 21
M  V30 57 1 56 21
M  V30 58 1 57 22
M  V30 59 1 58 22
M  V30 60 1 59 23
M  V30 61 1 60 23
M  V30 62 1 61 23
M  V30 63 1 62 24
M  V30 64 1 63 24
M  V30 65 1 64 26
M  V30 66 1 65 30
M  V30 67 1 66 30
M  V30 68 1 67 31
M  V30 69 1 68 31
M  V30 70 1 32 69 CFG=1
M  V30 71 1 70 34
M  V30 72 1 71 6
M  V30 END BOND
M  V30 END CTAB
M  END
>  <i_epik_Tot_Q>  (1) 
-1

>  <i_epik_Tot_abs_Q>  (1) 
1

>  <i_i_glide_confnum>  (1) 
3188

>  <i_i_glide_lignum>  (1) 
38

>  <i_i_glide_posenum>  (1) 
256

>  <i_i_glide_rotatable_bonds>  (1) 
15

>  <i_lp_mmshare_version>  (1) 
72125

>  <i_m_source_file_index>  (1) 
11

>  <i_f3d_flags>  (1) 
0

>  <num_sample>  (1) 
50

>  <b_lp_Chiralities_Consistent>  (1) 
1

>  <r_epik_Charging_Adjusted_Penalty>  (1) 
1.239197207418439

>  <r_epik_Ionization_Penalty>  (1) 
1.2496715491914541

>  <r_epik_Ionization_Penalty_Charging>  (1) 
1.1069707349969355e-11

>  <r_epik_Ionization_Penalty_Neutral>  (1) 
1.2496715491803843

>  <r_epik_State_Penalty>  (1) 
1.2391972074073692

>  <r_glide_ring_energy>  (1) 
0

>  <r_i_docking_score>  (1) 
-3.1096198491803388

>  <r_i_glide_ecoul>  (1) 
-7.6226001213780421

>  <r_i_glide_eff_state_penalty>  (1) 
1.2391972074073692

>  <r_i_glide_einternal>  (1) 
10.002572948685371

>  <r_i_glide_emodel>  (1) 
-41.783564982490553

>  <r_i_glide_emodel_strain>  (1) 
5.233581400606198

>  <r_i_glide_energy>  (1) 
-42.900193330013707

>  <r_i_glide_erotb>  (1) 
0.82803537691766171

>  <r_i_glide_esite>  (1) 
-0.049037599460454537

>  <r_i_glide_evdw>  (1) 
-35.277593208635665

>  <r_i_glide_gscore>  (1) 
-4.3488170565877082

>  <r_i_glide_gscore_strain>  (1) 
0.30839535015154951

>  <r_i_glide_hbond>  (1) 
-0.42138821418801736

>  <r_i_glide_ligand_efficiency>  (1) 
-0.091459407328833495

>  <r_i_glide_ligand_efficiency_ln>  (1) 
-0.68700224656630438

>  <r_i_glide_ligand_efficiency_sa>  (1) 
-0.29629297532033338

>  <r_i_glide_lipo>  (1) 
-1.1696570054306235

>  <r_i_glide_metal>  (1) 
-0

>  <r_i_glide_rewards>  (1) 
-0.93789528593933569

>  <r_lp_Energy>  (1) 
21.684180999999999

>  <s_epik_Chemistry_Notes>  (1) 
This compound has an imine and may undergo hydrolysis. This compound contains an acetal/aminal-like group ( X-CH(R)-Y where X, Y are N, S, or O) that may be acid/base labile, releasing an aldehyde.

>  <s_epik_cmdline>  (1) 
J2VwaWtfcHl0aG9uJywgJy1waHQnLCAnMS4wJywgJy1waCcsICc3LjQnLCAnLXRuJywgJzgnLCAnLW1hJywgJzUwMCcsICctaW1hZScsICc8aW5maWxlLm1hZT4nLCAnLW9tYWUnLCAnPG91dGZpbGUubWFlPic=

>  <s_epik_input>  (1) 
W1NIXVMoPU8pKD1PKVtDQEBdMShbQ0gyXVtDSDNdKVtDQEBdKFtDSDNdKShbQ0BASF0xW09IXSlPW0NASF0oW0NAQEhdMltDSDNdKVtOSF1bQ0BASF0oRilbQ0BIXTJbQ0gyXVxbQ0hdPVtDSF1cQyhbQ0gyXVtOSDJdKT1OL0MoPU4vW0hdKS9bQ0gyXVtDSDJdW0NIMl1bTkhdW0NIMl1bT0hd

>  <s_glide_docking_method>  (1) 
confgen

>  <s_i_glide_gridfile>  (1) 
gpcr_drd2_6luq_protein_autoprepared_prepared

>  <s_lp_Force_Field>  (1) 
S-OPLS

>  <s_lp_Variant>  (1) 
DiffSBDD_10_num_sample_50-18

>  <s_m_source_file>  (1) 
generated__ligand_DiffSBDD_2026-05-06_prepared.sdf

>  <GenAI_Model>  (1) 
DiffSBDD

>  <Protein>  (1) 
generic_title2

$$$$
DiffSBDD_10_num_sample_50
     RDKit          3D

  0  0  0  0  0  0  0  0  0  0999 V3000
M  V30 BEGIN CTAB
M  V30 COUNTS 72 73 0 0 1
M  V30 BEGIN ATOM
M  V30 1 C 7.170360 7.197957 -21.732593 0 CFG=2
M  V30 2 C 9.465032 6.612858 -10.378183 0
M  V30 3 C 7.668374 7.111085 -13.517116 0
M  V30 4 C 5.597660 7.474871 -16.732314 0 CFG=1
M  V30 5 C 5.790167 6.612812 -21.385976 0 CFG=2
M  V30 6 N 10.234843 5.769305 -12.497822 0
M  V30 7 N 4.234867 7.258473 -18.671480 0
M  V30 8 C 5.601111 7.116694 -19.063351 0 CFG=1
M  V30 9 S 7.079655 8.672052 -22.879926 0
M  V30 10 C 10.766060 7.279533 -9.980107 0
M  V30 11 S 8.689051 8.167842 -24.137118 0 CHG=-1
M  V30 12 C 9.720113 7.464077 -21.165481 0
M  V30 13 O 9.834907 7.433298 -5.891671 0
M  V30 14 O 5.866726 8.651161 -23.709834 0
M  V30 15 C 6.723215 5.881171 -22.331339 0 CFG=2
M  V30 16 C 5.882020 5.272403 -12.924794 0
M  V30 17 C 4.152426 7.310184 -17.221842 0 CFG=1
M  V30 18 N 10.559016 8.309569 -7.728595 0 CHG=1
M  V30 19 N 8.053087 5.384913 -11.828698 0
M  V30 20 C 10.545122 8.568946 -9.180140 0
M  V30 21 C 6.728309 5.292213 -17.693216 0
M  V30 22 C 8.273662 7.313990 -20.679819 0
M  V30 23 C 4.398140 6.972857 -21.873700 0
M  V30 24 C 5.804477 7.015059 -15.277137 0
M  V30 25 C 7.262767 5.886052 -12.703127 0
M  V30 26 O 7.158632 4.695893 -21.696960 0
M  V30 27 C 9.276927 5.951316 -11.526415 0
M  V30 28 O 7.435486 9.883749 -22.123629 0
M  V30 29 F 3.625560 6.169377 -16.791368 0
M  V30 30 N 5.434838 4.534035 -11.755033 0
M  V30 31 C 9.316632 7.795867 -7.140071 0
M  V30 32 C 6.454908 6.806901 -17.822561 0 CFG=2
M  V30 33 O 5.788858 6.129470 -20.039324 0
M  V30 34 C 7.034760 7.592075 -14.620393 0
M  V30 35 H 8.647201 6.688247 -9.682087 0
M  V30 36 H 8.548112 7.620218 -13.158801 0
M  V30 37 H 5.801916 8.546523 -16.768662 0
M  V30 38 H 11.191045 6.054268 -12.355813 0
M  V30 39 H 3.687881 6.473380 -18.990796 0
M  V30 40 H 5.903537 8.084498 -19.465462 0
M  V30 41 H 11.345253 7.505860 -10.875388 0
M  V30 42 H 11.355056 6.575531 -9.394077 0
M  V30 43 H 10.412047 7.390837 -20.325983 0
M  V30 44 H 9.982831 6.682698 -21.878988 0
M  V30 45 H 9.893016 8.434733 -21.631115 0
M  V30 46 H 9.158258 6.969349 -5.413502 0
M  V30 47 H 6.503980 5.806184 -23.394553 0
M  V30 48 H 5.134321 6.044484 -13.083861 0
M  V30 49 H 5.904771 4.573468 -13.759713 0
M  V30 50 H 3.501589 8.117097 -16.883294 0
M  V30 51 H 10.781738 9.166259 -7.245089 0
M  V30 52 H 9.630400 9.083094 -9.481805 0
M  V30 53 H 11.368986 9.252362 -9.387013 0
M  V30 54 H 5.834792 4.707296 -17.891683 0
M  V30 55 H 7.470198 4.972649 -18.424430 0
M  V30 56 H 7.128251 5.019921 -16.717562 0
M  V30 57 H 8.007415 8.169036 -20.076387 0
M  V30 58 H 8.247420 6.442326 -20.030006 0
M  V30 59 H 4.335141 6.969190 -22.960346 0
M  V30 60 H 3.700345 6.216169 -21.523849 0
M  V30 61 H 4.092607 7.948452 -21.493419 0
M  V30 62 H 5.742721 5.935829 -15.264356 0
M  V30 63 H 5.019181 7.435386 -14.669669 0
M  V30 64 H 6.895125 4.775482 -20.789007 0
M  V30 65 H 5.463417 5.136903 -10.942021 0
M  V30 66 H 4.481536 4.224655 -11.862478 0
M  V30 67 H 8.922149 6.908183 -7.628391 0
M  V30 68 H 8.549198 8.566439 -7.064948 0
M  V30 69 H 7.414396 7.307861 -17.914618 0
M  V30 70 H 7.434603 8.477191 -15.090681 0
M  V30 71 H 10.068814 5.164588 -13.291184 0
M  V30 72 H 11.285103 7.638446 -7.528239 0
M  V30 END ATOM
M  V30 BEGIN BOND
M  V30 1 1 5 1
M  V30 2 1 8 7
M  V30 3 1 9 1
M  V30 4 1 10 2
M  V30 5 1 11 9
M  V30 6 2 14 9
M  V30 7 1 15 1
M  V30 8 1 15 5
M  V30 9 1 17 4
M  V30 10 1 17 7
M  V30 11 1 20 10
M  V30 12 1 20 18
M  V30 13 1 1 22 CFG=1
M  V30 14 1 22 12
M  V30 15 1 23 5
M  V30 16 1 24 4
M  V30 17 1 25 3
M  V30 18 1 25 16
M  V30 19 2 25 19
M  V30 20 1 26 15
M  V30 21 2 27 2
M  V30 22 1 27 6
M  V30 23 1 27 19
M  V30 24 2 28 9
M  V30 25 1 29 17
M  V30 26 1 30 16
M  V30 27 1 31 13
M  V30 28 1 31 18
M  V30 29 1 32 4
M  V30 30 1 32 8
M  V30 31 1 32 21
M  V30 32 1 5 33 CFG=1
M  V30 33 1 33 8
M  V30 34 2 34 3
M  V30 35 1 34 24
M  V30 36 1 35 2
M  V30 37 1 36 3
M  V30 38 1 4 37 CFG=1
M  V30 39 1 38 6
M  V30 40 1 39 7
M  V30 41 1 8 40 CFG=3
M  V30 42 1 41 10
M  V30 43 1 42 10
M  V30 44 1 43 12
M  V30 45 1 44 12
M  V30 46 1 45 12
M  V30 47 1 46 13
M  V30 48 1 15 47 CFG=3
M  V30 49 1 48 16
M  V30 50 1 49 16
M  V30 51 1 17 50 CFG=3
M  V30 52 1 51 18
M  V30 53 1 52 20
M  V30 54 1 53 20
M  V30 55 1 54 21
M  V30 56 1 55 21
M  V30 57 1 56 21
M  V30 58 1 57 22
M  V30 59 1 58 22
M  V30 60 1 59 23
M  V30 61 1 60 23
M  V30 62 1 61 23
M  V30 63 1 62 24
M  V30 64 1 63 24
M  V30 65 1 64 26
M  V30 66 1 65 30
M  V30 67 1 66 30
M  V30 68 1 67 31
M  V30 69 1 68 31
M  V30 70 1 32 69 CFG=3
M  V30 71 1 70 34
M  V30 72 1 71 6
M  V30 73 1 72 18
M  V30 END BOND
M  V30 END CTAB
M  END
>  <i_epik_Tot_Q>  (1) 
0

>  <i_epik_Tot_abs_Q>  (1) 
2

>  <i_i_glide_confnum>  (1) 
3158

>  <i_i_glide_lignum>  (1) 
21

>  <i_i_glide_posenum>  (1) 
87

>  <i_i_glide_rotatable_bonds>  (1) 
15

>  <i_lp_mmshare_version>  (1) 
72125

>  <i_m_source_file_index>  (1) 
11

>  <i_f3d_flags>  (1) 
0

>  <num_sample>  (1) 
50

>  <b_lp_Chiralities_Consistent>  (1) 
1

>  <r_epik_Charging_Adjusted_Penalty>  (1) 
0.33639934582642134

>  <r_epik_Ionization_Penalty>  (1) 
0.23315943830934333

>  <r_epik_Ionization_Penalty_Charging>  (1) 
0.10316865490585193

>  <r_epik_Ionization_Penalty_Neutral>  (1) 
0.12999078340349141

>  <r_epik_State_Penalty>  (1) 
0.23323069092056939

>  <r_glide_ring_energy>  (1) 
0

>  <r_i_docking_score>  (1) 
-3.0887595867169906

>  <r_i_glide_ecoul>  (1) 
-1.7836868868235296

>  <r_i_glide_eff_state_penalty>  (1) 
0.23323069092056939

>  <r_i_glide_einternal>  (1) 
10.102744021197793

>  <r_i_glide_emodel>  (1) 
-31.744892264713691

>  <r_i_glide_emodel_strain>  (1) 
1.6596316177722485

>  <r_i_glide_energy>  (1) 
-31.349474156048998

>  <r_i_glide_erotb>  (1) 
0.82510599487301828

>  <r_i_glide_esite>  (1) 
-0.10476242462127604

>  <r_i_glide_evdw>  (1) 
-29.565787269225471

>  <r_i_glide_gscore>  (1) 
-3.3219902776375601

>  <r_i_glide_gscore_strain>  (1) 
0

>  <r_i_glide_hbond>  (1) 
-0.00080080681465603462

>  <r_i_glide_ligand_efficiency>  (1) 
-0.090845870197558548

>  <r_i_glide_ligand_efficiency_ln>  (1) 
-0.68239362947760762

>  <r_i_glide_ligand_efficiency_sa>  (1) 
-0.2943053531893331

>  <r_i_glide_lipo>  (1) 
-1.4820046944553156

>  <r_i_glide_metal>  (1) 
-0

>  <r_i_glide_rewards>  (1) 
-0.81368595013452794

>  <r_lp_Energy>  (1) 
25.793744999999998

>  <s_epik_Chemistry_Notes>  (1) 
This compound has an imine and may undergo hydrolysis. This compound contains an acetal/aminal-like group ( X-CH(R)-Y where X, Y are N, S, or O) that may be acid/base labile, releasing an aldehyde.

>  <s_epik_cmdline>  (1) 
J2VwaWtfcHl0aG9uJywgJy1waHQnLCAnMS4wJywgJy1waCcsICc3LjQnLCAnLXRuJywgJzgnLCAnLW1hJywgJzUwMCcsICctaW1hZScsICc8aW5maWxlLm1hZT4nLCAnLW9tYWUnLCAnPG91dGZpbGUubWFlPic=

>  <s_epik_input>  (1) 
W1NIXVMoPU8pKD1PKVtDQEBdMShbQ0gyXVtDSDNdKVtDQEBdKFtDSDNdKShbQ0BASF0xW09IXSlPW0NASF0oW0NAQEhdMltDSDNdKVtOSF1bQ0BASF0oRilbQ0BIXTJbQ0gyXS9bQ0hdPVtDSF1cQyhbQ0gyXVtOSDJdKT1OL0MoPU4vW0hdKS9bQ0gyXVtDSDJdW0NIMl1bTkhdW0NIMl1bT0hd

>  <s_glide_docking_method>  (1) 
confgen

>  <s_i_glide_gridfile>  (1) 
gpcr_drd2_6luq_protein_autoprepared_prepared

>  <s_lp_Force_Field>  (1) 
S-OPLS

>  <s_lp_Variant>  (1) 
DiffSBDD_10_num_sample_50-1

>  <s_m_source_file>  (1) 
generated__ligand_DiffSBDD_2026-05-06_prepared.sdf

>  <GenAI_Model>  (1) 
DiffSBDD

>  <Protein>  (1) 
generic_title2

$$$$
DiffSBDD_29_num_sample_50
     RDKit          3D

  0  0  0  0  0  0  0  0  0  0999 V3000
M  V30 BEGIN CTAB
M  V30 COUNTS 63 66 0 0 1
M  V30 BEGIN ATOM
M  V30 1 C 9.408477 6.584591 -10.670345 0
M  V30 2 O 7.797966 5.588162 -17.606262 0
M  V30 3 C 8.429779 5.952213 -21.025791 0
M  V30 4 C 9.691167 7.244111 -11.988451 0
M  V30 5 O 8.453937 2.807437 -18.912932 0
M  V30 6 N 8.634828 4.192515 -14.208716 0
M  V30 7 C 8.937444 4.838648 -20.095192 0
M  V30 8 C 6.005602 6.245653 -20.228503 0
M  V30 9 C 5.126038 6.331106 -17.834550 0
M  V30 10 C 9.717514 6.100232 -8.346085 0
M  V30 11 C 9.468082 5.253607 -13.632697 0
M  V30 12 C 7.924227 3.504391 -13.126348 0
M  V30 13 C 7.866782 1.554178 -19.248741 0
M  V30 14 C 7.010797 4.681272 -18.373073 0 CFG=1
M  V30 15 C 8.382237 5.716388 -10.689976 0
M  V30 16 C 7.043209 4.435931 -12.277378 0
M  V30 17 C 8.666835 6.337490 -12.875582 0 CFG=1
M  V30 18 C 5.780197 5.452134 -18.918164 0 CFG=2
M  V30 19 C 10.115587 6.818556 -9.486116 0
M  V30 20 C 8.602047 5.011684 -16.585722 0
M  V30 21 N 7.961255 4.969311 -9.639877 0
M  V30 22 C 7.831881 3.960301 -19.475348 0 CFG=2
M  V30 23 C 7.388020 6.901934 -20.406521 0
M  V30 24 N 7.762879 5.657240 -11.908129 0
M  V30 25 C 8.634832 5.188903 -8.471484 0
M  V30 26 N 12.093891 8.523162 -9.386788 0
M  V30 27 C 7.794401 4.635539 -15.322241 0
M  V30 28 C 11.217017 7.769289 -9.430535 0
M  V30 29 C 6.498004 1.340644 -18.586477 0
M  V30 30 H 8.022778 5.508652 -21.935597 0
M  V30 31 H 9.289621 6.542140 -21.346418 0
M  V30 32 H 9.391305 8.291929 -11.960126 0
M  V30 33 H 10.731912 7.155077 -12.301957 0
M  V30 34 H 9.604121 4.198958 -20.674799 0
M  V30 35 H 9.564794 5.269291 -19.315551 0
M  V30 36 H 5.817159 5.588711 -21.078927 0
M  V30 37 H 5.238882 7.017696 -20.307264 0
M  V30 38 H 5.755527 7.185415 -17.582845 0
M  V30 39 H 4.162773 6.719447 -18.167227 0
M  V30 40 H 4.952343 5.769290 -16.917257 0
M  V30 41 H 10.218814 6.236252 -7.399185 0
M  V30 42 H 10.108250 5.708849 -14.385366 0
M  V30 43 H 10.163069 4.792515 -12.928864 0
M  V30 44 H 8.656942 3.030522 -12.471120 0
M  V30 45 H 7.324042 2.687639 -13.529062 0
M  V30 46 H 7.798998 1.442112 -20.331956 0
M  V30 47 H 8.546399 0.775209 -18.902360 0
M  V30 48 H 6.634511 3.922254 -17.694753 0
M  V30 49 H 6.643672 3.902391 -11.415044 0
M  V30 50 H 6.174807 4.738137 -12.862274 0
M  V30 51 H 8.095102 6.957823 -13.565807 0
M  V30 52 H 5.037090 4.692406 -19.165637 0
M  V30 53 H 9.344455 5.769480 -16.347865 0
M  V30 54 H 9.165076 4.154766 -16.952897 0
M  V30 55 H 7.162774 3.642641 -20.277139 0
M  V30 56 H 7.270862 7.744379 -21.089137 0
M  V30 57 H 7.749724 7.334320 -19.473519 0
M  V30 58 H 8.302800 4.619398 -7.617557 0
M  V30 59 H 7.102380 3.833143 -15.574608 0
M  V30 60 H 7.173909 5.478296 -15.017862 0
M  V30 61 H 6.123143 0.338250 -18.793930 0
M  V30 62 H 6.566628 1.452009 -17.504029 0
M  V30 63 H 5.754386 2.047701 -18.953826 0
M  V30 END ATOM
M  V30 BEGIN BOND
M  V30 1 1 4 1
M  V30 2 1 7 3
M  V30 3 1 11 6
M  V30 4 1 12 6
M  V30 5 1 13 5
M  V30 6 1 14 2
M  V30 7 1 15 1
M  V30 8 1 16 12
M  V30 9 1 17 4
M  V30 10 1 17 11
M  V30 11 1 18 8
M  V30 12 1 18 9
M  V30 13 1 18 14
M  V30 14 2 19 1
M  V30 15 1 19 10
M  V30 16 1 20 2
M  V30 17 2 21 15
M  V30 18 1 22 5
M  V30 19 1 22 7
M  V30 20 1 22 14
M  V30 21 1 23 3
M  V30 22 1 23 8
M  V30 23 1 24 15
M  V30 24 1 24 16
M  V30 25 1 24 17
M  V30 26 2 25 10
M  V30 27 1 25 21
M  V30 28 1 27 6
M  V30 29 1 27 20
M  V30 30 1 28 19
M  V30 31 3 28 26
M  V30 32 1 29 13
M  V30 33 1 30 3
M  V30 34 1 31 3
M  V30 35 1 32 4
M  V30 36 1 33 4
M  V30 37 1 34 7
M  V30 38 1 35 7
M  V30 39 1 36 8
M  V30 40 1 37 8
M  V30 41 1 38 9
M  V30 42 1 39 9
M  V30 43 1 40 9
M  V30 44 1 41 10
M  V30 45 1 42 11
M  V30 46 1 43 11
M  V30 47 1 44 12
M  V30 48 1 45 12
M  V30 49 1 46 13
M  V30 50 1 47 13
M  V30 51 1 14 48 CFG=1
M  V30 52 1 49 16
M  V30 53 1 50 16
M  V30 54 1 17 51 CFG=3
M  V30 55 1 18 52 CFG=3
M  V30 56 1 53 20
M  V30 57 1 54 20
M  V30 58 1 22 55 CFG=3
M  V30 59 1 56 23
M  V30 60 1 57 23
M  V30 61 1 58 25
M  V30 62 1 59 27
M  V30 63 1 60 27
M  V30 64 1 61 29
M  V30 65 1 62 29
M  V30 66 1 63 29
M  V30 END BOND
M  V30 END CTAB
M  END
>  <i_epik_Tot_Q>  (1) 
0

>  <i_epik_Tot_abs_Q>  (1) 
0

>  <i_i_glide_confnum>  (1) 
480

>  <i_i_glide_lignum>  (1) 
72

>  <i_i_glide_posenum>  (1) 
271

>  <i_i_glide_rotatable_bonds>  (1) 
6

>  <i_lp_mmshare_version>  (1) 
72125

>  <i_m_source_file_index>  (1) 
30

>  <i_f3d_flags>  (1) 
0

>  <num_sample>  (1) 
50

>  <b_lp_Chiralities_Consistent>  (1) 
1

>  <r_epik_Charging_Adjusted_Penalty>  (1) 
0.33209033116494396

>  <r_epik_Ionization_Penalty>  (1) 
0.33211857123964

>  <r_epik_Ionization_Penalty_Charging>  (1) 
0

>  <r_epik_Ionization_Penalty_Neutral>  (1) 
0.33211857123964

>  <r_epik_State_Penalty>  (1) 
0.33209033116494396

>  <r_glide_ring_energy>  (1) 
2.3203734281001247

>  <r_i_docking_score>  (1) 
-3.0775654981855456

>  <r_i_glide_ecoul>  (1) 
1.0146652650706796

>  <r_i_glide_eff_state_penalty>  (1) 
0.33209033116494396

>  <r_i_glide_einternal>  (1) 
2.2814157883394603

>  <r_i_glide_emodel>  (1) 
-34.134738419469564

>  <r_i_glide_emodel_strain>  (1) 
0

>  <r_i_glide_energy>  (1) 
-29.298168339427921

>  <r_i_glide_erotb>  (1) 
0.61650785367983663

>  <r_i_glide_esite>  (1) 
-0.038836419882286394

>  <r_i_glide_evdw>  (1) 
-30.3128336044986

>  <r_i_glide_gscore>  (1) 
-3.4096558293504895

>  <r_i_glide_gscore_strain>  (1) 
0

>  <r_i_glide_hbond>  (1) 
0

>  <r_i_glide_ligand_efficiency>  (1) 
-0.10612294821329468

>  <r_i_glide_ligand_efficiency_ln>  (1) 
-0.70468445875695962

>  <r_i_glide_ligand_efficiency_sa>  (1) 
-0.32604331938709313

>  <r_i_glide_lipo>  (1) 
-1.1419772240193566

>  <r_i_glide_metal>  (1) 
-0

>  <r_i_glide_rewards>  (1) 
-1.4819081486643546

>  <r_lp_Energy>  (1) 
52.960926000000001

>  <s_epik_cmdline>  (1) 
J2VwaWtfcHl0aG9uJywgJy1waHQnLCAnMS4wJywgJy1waCcsICc3LjQnLCAnLXRuJywgJzgnLCAnLW1hJywgJzUwMCcsICctaW1hZScsICc8aW5maWxlLm1hZT4nLCAnLW9tYWUnLCAnPG91dGZpbGUubWFlPic=

>  <s_epik_input>  (1) 
TiNDYzFbY0hdW2NIXW5jKGMxMilOM1tDQEhdKFtDSDJdMilbQ0gyXU4oW0NIMl1bQ0gyXTMpW0NIMl1bQ0gyXU9bQ0BIXTRbQ0BASF0oW0NIM10pW0NIMl1bQ0gyXVtDSDJdW0NIMl1bQ0BIXTRPW0NIMl1bQ0gzXQ==

>  <s_glide_docking_method>  (1) 
confgen

>  <s_i_glide_gridfile>  (1) 
gpcr_drd2_6luq_protein_autoprepared_prepared

>  <s_lp_Force_Field>  (1) 
S-OPLS

>  <s_lp_Variant>  (1) 
DiffSBDD_29_num_sample_50-2

>  <s_m_source_file>  (1) 
generated__ligand_DiffSBDD_2026-05-06_prepared.sdf

>  <GenAI_Model>  (1) 
DiffSBDD

>  <Protein>  (1) 
generic_title2

$$$$
DiffSBDD_47_num_sample_50
     RDKit          3D

  0  0  0  0  0  0  0  0  0  0999 V3000
M  V30 BEGIN CTAB
M  V30 COUNTS 61 63 0 0 1
M  V30 BEGIN ATOM
M  V30 1 C 10.678839 7.766876 -8.367466 0
M  V30 2 C 8.064913 1.382894 -17.190819 0
M  V30 3 O 6.990969 -0.744723 -17.091632 0
M  V30 4 N 9.834843 6.016288 -11.731242 0
M  V30 5 C 7.163780 5.520784 -17.052857 0
M  V30 6 O 9.561779 5.287643 -10.445681 0
M  V30 7 N 12.453015 8.365488 -9.243937 0
M  V30 8 C 9.127072 4.650742 -13.688860 0
M  V30 9 C 7.251742 0.469413 -16.521712 0
M  V30 10 C 9.699027 5.635647 -16.556271 0
M  V30 11 O 8.234839 6.812154 -13.284349 0
M  V30 12 C 6.961262 2.070621 -14.662502 0
M  V30 13 C 7.784742 3.015937 -15.378905 0
M  V30 14 C 9.867750 6.329541 -6.487457 0
M  V30 15 O 5.896619 -0.124565 -14.657588 0
M  V30 16 N 11.792807 8.367839 -8.042280 0
M  V30 17 F 7.259404 3.084795 -12.557869 0
M  V30 18 C 8.711191 5.697297 -12.585296 0 CFG=2
M  V30 19 C 6.356079 2.430056 -13.257939 0
M  V30 20 C 9.583252 7.539906 -7.373046 0
M  V30 21 C 8.327603 2.638831 -16.636790 0
M  V30 22 C 6.094700 1.247672 -12.291678 0
M  V30 23 N 11.800603 7.769314 -10.291673 0
M  V30 24 C 6.695693 0.792281 -15.268701 0
M  V30 25 C 8.033181 8.072782 -12.662067 0
M  V30 26 C 10.684195 7.402202 -9.718920 0
M  V30 27 C 8.261442 5.521865 -15.966126 0
M  V30 28 C 5.129578 3.369304 -13.269611 0
M  V30 29 C 9.578746 6.718059 -10.483201 0 CFG=1
M  V30 30 C 8.056433 4.460723 -14.824454 0 CFG=2
M  V30 31 H 8.484558 1.125272 -18.152193 0
M  V30 32 H 7.442473 -0.891512 -17.906798 0
M  V30 33 H 7.261571 4.713201 -17.775777 0
M  V30 34 H 7.187048 6.450963 -17.620618 0
M  V30 35 H 6.172669 5.448569 -16.605537 0
M  V30 36 H 10.085867 4.954798 -14.100027 0
M  V30 37 H 9.352732 3.716309 -13.178167 0
M  V30 38 H 10.224461 4.699375 -16.709963 0
M  V30 39 H 10.367254 6.169312 -15.891673 0
M  V30 40 H 9.698515 6.169303 -17.505694 0
M  V30 41 H 9.049804 6.169243 -5.787377 0
M  V30 42 H 10.785142 6.460770 -5.914415 0
M  V30 43 H 9.972671 5.428185 -7.092036 0
M  V30 44 H 5.756551 0.012469 -13.734871 0
M  V30 45 H 7.877438 5.328192 -11.986108 0
M  V30 46 H 8.634839 7.385909 -7.885245 0
M  V30 47 H 9.443171 8.424295 -6.750151 0
M  V30 48 H 8.933353 3.319954 -17.189999 0
M  V30 49 H 5.231874 0.639836 -12.555125 0
M  V30 50 H 5.834838 1.614372 -11.298938 0
M  V30 51 H 6.968250 0.600560 -12.190335 0
M  V30 52 H 7.834838 8.795092 -13.448686 0
M  V30 53 H 8.925530 8.465773 -12.178904 0
M  V30 54 H 7.200855 8.055502 -11.957686 0
M  V30 55 H 13.358493 8.803319 -9.357396 0
M  V30 56 H 8.095235 6.483143 -15.491681 0
M  V30 57 H 4.208835 2.833213 -13.491666 0
M  V30 58 H 5.197113 4.199006 -13.965261 0
M  V30 59 H 4.995459 3.813158 -12.282974 0
M  V30 60 H 8.634835 7.190344 -10.305590 0
M  V30 61 H 7.119316 4.771273 -14.383438 0
M  V30 END ATOM
M  V30 BEGIN BOND
M  V30 1 1 6 4
M  V30 2 2 9 2
M  V30 3 1 9 3
M  V30 4 1 13 12
M  V30 5 2 16 1
M  V30 6 1 16 7
M  V30 7 1 18 4
M  V30 8 1 18 8
M  V30 9 1 18 11
M  V30 10 1 19 12
M  V30 11 1 19 17
M  V30 12 1 20 1
M  V30 13 1 20 14
M  V30 14 1 21 2
M  V30 15 2 21 13
M  V30 16 1 22 19
M  V30 17 1 23 7
M  V30 18 1 24 9
M  V30 19 2 24 12
M  V30 20 1 24 15
M  V30 21 1 25 11
M  V30 22 1 26 1
M  V30 23 2 26 23
M  V30 24 1 27 5
M  V30 25 1 27 10
M  V30 26 1 28 19
M  V30 27 1 29 4
M  V30 28 1 29 6
M  V30 29 1 29 26
M  V30 30 1 30 8
M  V30 31 1 30 13
M  V30 32 1 30 27
M  V30 33 1 31 2
M  V30 34 1 32 3
M  V30 35 1 33 5
M  V30 36 1 34 5
M  V30 37 1 35 5
M  V30 38 1 36 8
M  V30 39 1 37 8
M  V30 40 1 38 10
M  V30 41 1 39 10
M  V30 42 1 40 10
M  V30 43 1 41 14
M  V30 44 1 42 14
M  V30 45 1 43 14
M  V30 46 1 44 15
M  V30 47 1 18 45 CFG=1
M  V30 48 1 46 20
M  V30 49 1 47 20
M  V30 50 1 48 21
M  V30 51 1 49 22
M  V30 52 1 50 22
M  V30 53 1 51 22
M  V30 54 1 52 25
M  V30 55 1 53 25
M  V30 56 1 54 25
M  V30 57 1 55 7
M  V30 58 1 56 27
M  V30 59 1 57 28
M  V30 60 1 58 28
M  V30 61 1 59 28
M  V30 62 1 29 60 CFG=3
M  V30 63 1 30 61 CFG=1
M  V30 END BOND
M  V30 END CTAB
M  END
>  <i_epik_Tot_Q>  (1) 
0

>  <i_epik_Tot_abs_Q>  (1) 
0

>  <i_i_glide_confnum>  (1) 
137

>  <i_i_glide_lignum>  (1) 
114

>  <i_i_glide_posenum>  (1) 
10

>  <i_i_glide_rotatable_bonds>  (1) 
11

>  <i_lp_mmshare_version>  (1) 
72125

>  <i_m_source_file_index>  (1) 
48

>  <i_f3d_flags>  (1) 
0

>  <num_sample>  (1) 
50

>  <b_lp_Chiralities_Consistent>  (1) 
1

>  <r_epik_Charging_Adjusted_Penalty>  (1) 
0.45906188326467423

>  <r_epik_Ionization_Penalty>  (1) 
0.024085043624638366

>  <r_epik_Ionization_Penalty_Charging>  (1) 
0

>  <r_epik_Ionization_Penalty_Neutral>  (1) 
0.024085043624638366

>  <r_epik_State_Penalty>  (1) 
0.45906188326467423

>  <r_glide_ring_energy>  (1) 
0

>  <r_i_docking_score>  (1) 
-3.0759158926186325

>  <r_i_glide_ecoul>  (1) 
-3.4182941885629829

>  <r_i_glide_eff_state_penalty>  (1) 
0.45906188326467423

>  <r_i_glide_einternal>  (1) 
7.8838177740100681

>  <r_i_glide_emodel>  (1) 
-29.263676387535249

>  <r_i_glide_emodel_strain>  (1) 
7.9724697791877972

>  <r_i_glide_energy>  (1) 
-32.865006928904982

>  <r_i_glide_erotb>  (1) 
0.55490112727109764

>  <r_i_glide_esite>  (1) 
-0.084289646969093981

>  <r_i_glide_evdw>  (1) 
-29.446712740342001

>  <r_i_glide_gscore>  (1) 
-3.5349777758833065

>  <r_i_glide_gscore_strain>  (1) 
0.9931174447969493

>  <r_i_glide_hbond>  (1) 
-0.021224676702967956

>  <r_i_glide_ligand_efficiency>  (1) 
-0.10253052975395442

>  <r_i_glide_ligand_efficiency_ln>  (1) 
-0.69888160559092727

>  <r_i_glide_ligand_efficiency_sa>  (1) 
-0.31858619490415652

>  <r_i_glide_lipo>  (1) 
-1.4960132176230538

>  <r_i_glide_metal>  (1) 
-0

>  <r_i_glide_rewards>  (1) 
-1.4963890413546901

>  <r_lp_Energy>  (1) 
27.782063999999998

>  <r_lp_tautomer_probability>  (1) 
0.65234765234750614

>  <s_epik_Chemistry_Notes>  (1) 
This compound contains an acetal/aminal-like group ( X-CH(R)-Y where X, Y are N, S, or O) that may be acid/base labile, releasing an aldehyde. This compound has a N-S or N-O group and may undergo hydrolysis at high or low pH.

>  <s_epik_cmdline>  (1) 
J2VwaWtfcHl0aG9uJywgJy1waHQnLCAnMS4wJywgJy1waCcsICc3LjQnLCAnLXRuJywgJzgnLCAnLW1hJywgJzUwMCcsICctaW1hZScsICc8aW5maWxlLm1hZT4nLCAnLW9tYWUnLCAnPG91dGZpbGUubWFlPic=

>  <s_epik_input>  (1) 
W0NIM11bQ0gyXUMxPU5OPU5bQ0BIXTFbQ0BASF0yT04yW0NAQEhdKE9bQ0gzXSlbQ0gyXVtDQEBIXShbQ0hdKFtDSDNdKVtDSDNdKUMoQyhDKEYpKFtDSDNdKVtDSDNdKT1DM1tPSF0pPVtDSF1bQ0gyXUMzPU8=

>  <s_glide_docking_method>  (1) 
confgen

>  <s_i_glide_gridfile>  (1) 
gpcr_drd2_6luq_protein_autoprepared_prepared

>  <s_lp_Force_Field>  (1) 
S-OPLS

>  <s_lp_Variant>  (1) 
DiffSBDD_47_num_sample_50-1

>  <s_m_source_file>  (1) 
generated__ligand_DiffSBDD_2026-05-06_prepared.sdf

>  <GenAI_Model>  (1) 
DiffSBDD

>  <Protein>  (1) 
generic_title2

$$$$
DiffSBDD_40_num_sample_50
     RDKit          3D

  0  0  0  0  0  0  0  0  0  0999 V3000
M  V30 BEGIN CTAB
M  V30 COUNTS 79 82 0 0 1
M  V30 BEGIN ATOM
M  V30 1 C 7.079188 5.169532 -15.404995 0 CFG=1
M  V30 2 S 10.745254 6.308966 -6.442390 0
M  V30 3 C 10.788582 7.438815 -11.229407 0
M  V30 4 C 5.610230 5.584095 -18.286802 0 CFG=2
M  V30 5 C 9.890469 6.923542 -10.370197 0
M  V30 6 C 8.622010 1.836777 -17.183536 0
M  V30 7 C 7.735488 5.273627 -16.813006 0 CFG=2
M  V30 8 C 9.427906 2.454580 -18.072348 0
M  V30 9 C 6.880857 4.774889 -18.010003 0
M  V30 10 C 7.928744 5.852423 -14.306100 0
M  V30 11 C 9.586661 8.788055 -7.011004 0
M  V30 12 C 10.048339 1.658217 -19.209502 0 CFG=1
M  V30 13 C 9.917578 7.253588 -8.894602 0 CFG=1
M  V30 14 C 10.478587 4.505992 -18.870667 0
M  V30 15 C 10.261128 2.547975 -20.439968 0 CFG=2
M  V30 16 C 9.712734 3.895474 -17.940294 0
M  V30 17 C 8.778799 5.963934 -10.817546 0 CFG=1
M  V30 18 C 10.321094 7.962953 -5.945875 0 CFG=2
M  V30 19 S 8.234327 4.640125 -8.315096 0
M  V30 20 C 5.678272 6.531699 -19.548541 0
M  V30 21 F 10.847265 1.861310 -21.420081 0
M  V30 22 C 9.183855 4.693569 -16.755310 0
M  V30 23 C 11.068696 3.803631 -20.082281 0
M  V30 24 C 11.028860 6.488026 -8.196738 0
M  V30 25 F 11.216604 1.151483 -18.812642 0
M  V30 26 O 4.651597 6.763627 -20.178086 0
M  V30 27 O 8.931679 5.707828 -12.203762 0
M  V30 28 O 5.814399 5.793936 -15.361136 0
M  V30 29 C 8.765944 4.601724 -10.070425 0
M  V30 30 C 11.744425 8.713878 -1.890522 0
M  V30 31 N 13.428712 9.369343 -4.364503 0
M  V30 32 C 7.794580 5.239734 -12.911616 0
M  V30 33 N 12.318023 9.406608 -6.296516 0
M  V30 34 O 5.812173 6.903738 -18.232656 0
M  V30 35 C 12.263185 8.568703 -4.291638 0
M  V30 36 C 10.005831 8.699124 -8.494499 0
M  V30 37 C 11.563549 8.615802 -5.492799 0
M  V30 38 C 13.367554 9.769306 -5.621422 0
M  V30 39 C 11.966416 7.778578 -3.067295 0
M  V30 40 H 6.929560 4.115285 -15.169802 0
M  V30 41 H 11.559875 8.110487 -10.884915 0
M  V30 42 H 10.764753 7.197234 -12.282795 0
M  V30 43 H 4.686650 5.369343 -17.756168 0
M  V30 44 H 8.409601 0.780935 -17.269050 0
M  V30 45 H 8.164634 2.371026 -16.368086 0
M  V30 46 H 7.834711 6.330491 -17.014241 0
M  V30 47 H 7.486863 4.812148 -18.915273 0
M  V30 48 H 6.621802 3.724864 -17.886520 0
M  V30 49 H 8.987025 5.771586 -14.539547 0
M  V30 50 H 7.741382 6.929250 -14.266823 0
M  V30 51 H 8.509830 8.635735 -6.916639 0
M  V30 52 H 9.834819 9.769422 -6.691826 0
M  V30 53 H 9.413638 0.811302 -19.470308 0
M  V30 54 H 8.939984 7.002462 -8.519944 0
M  V30 55 H 10.703204 5.560053 -18.769608 0
M  V30 56 H 9.287916 2.846067 -20.836353 0
M  V30 57 H 7.826808 6.473342 -10.691817 0
M  V30 58 H 9.670409 7.842252 -5.091607 0
M  V30 59 H 7.332436 5.620175 -8.467174 0
M  V30 60 H 9.869990 5.527672 -16.593419 0
M  V30 61 H 9.322572 4.071817 -15.869797 0
M  V30 62 H 11.089901 4.492074 -20.929055 0
M  V30 63 H 12.103375 3.544108 -19.848283 0
M  V30 64 H 11.034609 5.469005 -8.558896 0
M  V30 65 H 11.987215 6.969437 -8.378922 0
M  V30 66 H 5.905168 6.691954 -15.643463 0
M  V30 67 H 8.069210 3.945360 -10.585438 0
M  V30 68 H 9.745092 4.130033 -10.131781 0
M  V30 69 H 11.346655 8.168419 -1.042866 0
M  V30 70 H 12.662757 9.214543 -1.580407 0
M  V30 71 H 11.036110 9.483431 -2.184184 0
M  V30 72 H 6.849412 5.529328 -12.448304 0
M  V30 73 H 7.842459 4.150582 -12.963312 0
M  V30 74 H 12.122245 9.634693 -7.259932 0
M  V30 75 H 10.997801 9.105621 -8.691697 0
M  V30 76 H 9.306343 9.281410 -9.093034 0
M  V30 77 H 14.141098 10.359724 -6.062522 0
M  V30 78 H 11.140931 7.083333 -3.231782 0
M  V30 79 H 12.814473 7.133458 -2.838681 0
M  V30 END ATOM
M  V30 BEGIN BOND
M  V30 1 2 5 3
M  V30 2 1 7 1
M  V30 3 2 8 6
M  V30 4 1 9 4
M  V30 5 1 9 7
M  V30 6 1 10 1
M  V30 7 1 12 8
M  V30 8 1 13 5
M  V30 9 1 15 12
M  V30 10 1 16 8
M  V30 11 2 16 14
M  V30 12 1 17 5
M  V30 13 1 18 2
M  V30 14 1 18 11
M  V30 15 1 20 4
M  V30 16 1 21 15
M  V30 17 1 22 7
M  V30 18 1 22 16
M  V30 19 1 23 14
M  V30 20 1 23 15
M  V30 21 1 24 2
M  V30 22 1 24 13
M  V30 23 1 25 12
M  V30 24 2 26 20
M  V30 25 1 27 17
M  V30 26 1 28 1
M  V30 27 1 29 17
M  V30 28 1 29 19
M  V30 29 1 32 10
M  V30 30 1 32 27
M  V30 31 1 34 4
M  V30 32 1 34 20
M  V30 33 1 35 31
M  V30 34 1 36 11
M  V30 35 1 36 13
M  V30 36 1 37 18
M  V30 37 1 37 33
M  V30 38 2 37 35
M  V30 39 2 38 31
M  V30 40 1 38 33
M  V30 41 1 39 30
M  V30 42 1 39 35
M  V30 43 1 1 40 CFG=1
M  V30 44 1 41 3
M  V30 45 1 42 3
M  V30 46 1 4 43 CFG=1
M  V30 47 1 44 6
M  V30 48 1 45 6
M  V30 49 1 7 46 CFG=3
M  V30 50 1 47 9
M  V30 51 1 48 9
M  V30 52 1 49 10
M  V30 53 1 50 10
M  V30 54 1 51 11
M  V30 55 1 52 11
M  V30 56 1 12 53 CFG=3
M  V30 57 1 13 54 CFG=1
M  V30 58 1 55 14
M  V30 59 1 15 56 CFG=3
M  V30 60 1 17 57 CFG=3
M  V30 61 1 18 58 CFG=1
M  V30 62 1 59 19
M  V30 63 1 60 22
M  V30 64 1 61 22
M  V30 65 1 62 23
M  V30 66 1 63 23
M  V30 67 1 64 24
M  V30 68 1 65 24
M  V30 69 1 66 28
M  V30 70 1 67 29
M  V30 71 1 68 29
M  V30 72 1 69 30
M  V30 73 1 70 30
M  V30 74 1 71 30
M  V30 75 1 72 32
M  V30 76 1 73 32
M  V30 77 1 74 33
M  V30 78 1 75 36
M  V30 79 1 76 36
M  V30 80 1 77 38
M  V30 81 1 78 39
M  V30 82 1 79 39
M  V30 END BOND
M  V30 END CTAB
M  END
>  <i_epik_Tot_Q>  (1) 
0

>  <i_epik_Tot_abs_Q>  (1) 
0

>  <i_i_glide_confnum>  (1) 
5975

>  <i_i_glide_lignum>  (1) 
99

>  <i_i_glide_posenum>  (1) 
380

>  <i_i_glide_rotatable_bonds>  (1) 
16

>  <i_lp_mmshare_version>  (1) 
72125

>  <i_m_source_file_index>  (1) 
41

>  <i_f3d_flags>  (1) 
0

>  <num_sample>  (1) 
50

>  <b_lp_Chiralities_Consistent>  (1) 
1

>  <r_epik_Charging_Adjusted_Penalty>  (1) 
1.047397364093839

>  <r_epik_Ionization_Penalty>  (1) 
0.40552415828257216

>  <r_epik_Ionization_Penalty_Charging>  (1) 
0.39366408803935488

>  <r_epik_Ionization_Penalty_Neutral>  (1) 
0.011860070243217283

>  <r_epik_State_Penalty>  (1) 
0.65373327605448417

>  <r_glide_ring_energy>  (1) 
0

>  <r_i_docking_score>  (1) 
-3.0511475340023795

>  <r_i_glide_ecoul>  (1) 
-2.3219663523974234

>  <r_i_glide_eff_state_penalty>  (1) 
0.65373327605448417

>  <r_i_glide_einternal>  (1) 
18.680356513786052

>  <r_i_glide_emodel>  (1) 
-0.67154676860473472

>  <r_i_glide_emodel_strain>  (1) 
6.7140401214168151

>  <r_i_glide_energy>  (1) 
-13.745152416599685

>  <r_i_glide_erotb>  (1) 
0.63692825108646745

>  <r_i_glide_esite>  (1) 
0

>  <r_i_glide_evdw>  (1) 
-11.423186064202262

>  <r_i_glide_gscore>  (1) 
-3.7048808100568635

>  <r_i_glide_gscore_strain>  (1) 
0.67851003035420376

>  <r_i_glide_hbond>  (1) 
-0.090668323009069379

>  <r_i_glide_ligand_efficiency>  (1) 
-0.078234552153907164

>  <r_i_glide_ligand_efficiency_ln>  (1) 
-0.65425264326345267

>  <r_i_glide_ligand_efficiency_sa>  (1) 
-0.26530990850341862

>  <r_i_glide_lipo>  (1) 
-2.3703451370703794

>  <r_i_glide_metal>  (1) 
-0

>  <r_i_glide_rewards>  (1) 
-1.6398513753483595

>  <r_lp_Energy>  (1) 
16.317681999999998

>  <r_lp_tautomer_probability>  (1) 
0.49999999999999867

>  <s_epik_Chemistry_Notes>  (1) 
This compound has an ester and may undergo hydrolysis at high or low pH.

>  <s_epik_cmdline>  (1) 
J2VwaWtfcHl0aG9uJywgJy1waHQnLCAnMS4wJywgJy1waCcsICc3LjQnLCAnLXRuJywgJzgnLCAnLW1hJywgJzUwMCcsICctaW1hZScsICc8aW5maWxlLm1hZT4nLCAnLW9tYWUnLCAnPG91dGZpbGUubWFlPic=

>  <s_epik_input>  (1) 
W0NIMl09QzFbQ0BIXShGKVtDQEhdKEYpW0NIMl1bQ0hdPUMxW0NIMl1bQ0BASF0oW0NIMl1bQ0BASF0yQyg9TylPMilbQ0BIXShbT0hdKVtDSDJdW0NIMl1PW0NAQEhdKFtDSDJdW1NIXSlDKD1bQ0gyXSlbQ0BIXTNbQ0gyXVNbQ0BIXShbQ0gyXVtDSDJdMylDND1OW0NIXT1OW0NAQEhdNFtDSDJdW0NIM10=

>  <s_glide_docking_method>  (1) 
confgen

>  <s_i_glide_gridfile>  (1) 
gpcr_drd2_6luq_protein_autoprepared_prepared

>  <s_lp_Force_Field>  (1) 
S-OPLS

>  <s_lp_Variant>  (1) 
DiffSBDD_40_num_sample_50-2

>  <s_m_source_file>  (1) 
generated__ligand_DiffSBDD_2026-05-06_prepared.sdf

>  <GenAI_Model>  (1) 
DiffSBDD

>  <Protein>  (1) 
generic_title2

$$$$
DiffSBDD_47_num_sample_50
     RDKit          3D

  0  0  0  0  0  0  0  0  0  0999 V3000
M  V30 BEGIN CTAB
M  V30 COUNTS 61 63 0 0 1
M  V30 BEGIN ATOM
M  V30 1 C 9.988233 0.367108 -18.031593 0
M  V30 2 C 5.034845 4.272343 -12.535206 0
M  V30 3 O 5.468570 3.678902 -10.291662 0
M  V30 4 N 9.113031 3.594297 -16.727302 0
M  V30 5 C 4.771191 6.809318 -16.565102 0
M  V30 6 O 9.978924 3.340531 -17.908689 0
M  V30 7 N 8.771915 -0.898868 -16.692431 0
M  V30 8 C 7.143720 5.050126 -16.238810 0
M  V30 9 C 5.873496 4.274400 -11.426575 0
M  V30 10 C 6.265197 8.569242 -15.767983 0
M  V30 11 O 8.364062 5.191966 -18.281581 0
M  V30 12 C 7.557264 5.515833 -12.692921 0
M  V30 13 C 6.655265 5.525145 -13.815120 0
M  V30 14 C 12.430553 0.923527 -18.324529 0
M  V30 15 O 7.907959 4.918412 -10.360017 0
M  V30 16 N 9.817154 -0.916410 -17.492777 0
M  V30 17 F 9.467167 5.768866 -13.943803 0
M  V30 18 C 8.529479 4.911324 -16.914062 0 CFG=2
M  V30 19 C 8.949909 6.164793 -12.789686 0
M  V30 20 C 11.083791 0.667936 -19.008348 0
M  V30 21 C 5.413620 4.919289 -13.697446 0
M  V30 22 C 10.081528 5.646237 -11.890392 0
M  V30 23 N 8.310110 0.376244 -16.713402 0
M  V30 24 C 7.125824 4.902130 -11.479978 0
M  V30 25 C 8.459822 6.539196 -18.692139 0
M  V30 26 C 9.034418 1.191647 -17.530496 0
M  V30 27 C 5.788544 7.178662 -15.457079 0
M  V30 28 C 8.828931 7.686891 -12.612116 0
M  V30 29 C 8.729018 2.638174 -17.756543 0 CFG=1
M  V30 30 C 6.990939 6.191074 -15.160028 0 CFG=2
M  V30 31 H 4.072432 3.789618 -12.485366 0
M  V30 32 H 5.835844 4.098340 -9.521535 0
M  V30 33 H 5.223857 6.858624 -17.555723 0
M  V30 34 H 3.934135 7.509141 -16.581779 0
M  V30 35 H 4.345675 5.817008 -16.441295 0
M  V30 36 H 6.412161 5.075146 -17.037850 0
M  V30 37 H 6.931123 4.088596 -15.770227 0
M  V30 38 H 6.768419 8.536956 -16.691623 0
M  V30 39 H 7.009073 8.958500 -15.080869 0
M  V30 40 H 5.436024 9.266972 -15.891630 0
M  V30 41 H 13.197125 1.150552 -19.064075 0
M  V30 42 H 12.763610 0.058192 -17.751383 0
M  V30 43 H 12.369501 1.771420 -17.643006 0
M  V30 44 H 8.294041 5.769084 -10.204226 0
M  V30 45 H 9.238327 5.630994 -16.500915 0
M  V30 46 H 10.818090 1.530607 -19.618920 0
M  V30 47 H 11.188116 -0.162667 -19.706566 0
M  V30 48 H 4.740221 4.968826 -14.517931 0
M  V30 49 H 9.996090 5.997078 -10.862272 0
M  V30 50 H 11.042964 6.011963 -12.252111 0
M  V30 51 H 10.132112 4.556574 -11.897901 0
M  V30 52 H 8.393002 6.582297 -19.777994 0
M  V30 53 H 9.417906 6.969139 -18.406634 0
M  V30 54 H 7.641803 7.130456 -18.289961 0
M  V30 55 H 7.502680 0.655509 -16.175186 0
M  V30 56 H 5.215067 7.327964 -14.541776 0
M  V30 57 H 8.435880 7.925414 -11.622120 0
M  V30 58 H 8.149430 8.139324 -13.329404 0
M  V30 59 H 9.797400 8.178162 -12.691257 0
M  V30 60 H 7.969719 2.837131 -18.510581 0
M  V30 61 H 7.883119 6.795059 -15.094806 0
M  V30 END ATOM
M  V30 BEGIN BOND
M  V30 1 1 6 4
M  V30 2 2 9 2
M  V30 3 1 9 3
M  V30 4 1 13 12
M  V30 5 1 16 1
M  V30 6 2 16 7
M  V30 7 1 18 4
M  V30 8 1 18 8
M  V30 9 1 18 11
M  V30 10 1 19 12
M  V30 11 1 19 17
M  V30 12 1 20 1
M  V30 13 1 20 14
M  V30 14 1 21 2
M  V30 15 2 21 13
M  V30 16 1 22 19
M  V30 17 1 23 7
M  V30 18 1 24 9
M  V30 19 2 24 12
M  V30 20 1 24 15
M  V30 21 1 25 11
M  V30 22 2 26 1
M  V30 23 1 26 23
M  V30 24 1 27 5
M  V30 25 1 27 10
M  V30 26 1 28 19
M  V30 27 1 29 4
M  V30 28 1 29 6
M  V30 29 1 29 26
M  V30 30 1 30 8
M  V30 31 1 30 13
M  V30 32 1 30 27
M  V30 33 1 31 2
M  V30 34 1 32 3
M  V30 35 1 33 5
M  V30 36 1 34 5
M  V30 37 1 35 5
M  V30 38 1 36 8
M  V30 39 1 37 8
M  V30 40 1 38 10
M  V30 41 1 39 10
M  V30 42 1 40 10
M  V30 43 1 41 14
M  V30 44 1 42 14
M  V30 45 1 43 14
M  V30 46 1 44 15
M  V30 47 1 18 45 CFG=1
M  V30 48 1 46 20
M  V30 49 1 47 20
M  V30 50 1 48 21
M  V30 51 1 49 22
M  V30 52 1 50 22
M  V30 53 1 51 22
M  V30 54 1 52 25
M  V30 55 1 53 25
M  V30 56 1 54 25
M  V30 57 1 55 23
M  V30 58 1 56 27
M  V30 59 1 57 28
M  V30 60 1 58 28
M  V30 61 1 59 28
M  V30 62 1 29 60 CFG=3
M  V30 63 1 30 61 CFG=1
M  V30 END BOND
M  V30 END CTAB
M  END
>  <i_epik_Tot_Q>  (1) 
0

>  <i_epik_Tot_abs_Q>  (1) 
0

>  <i_i_glide_confnum>  (1) 
17

>  <i_i_glide_lignum>  (1) 
115

>  <i_i_glide_posenum>  (1) 
81

>  <i_i_glide_rotatable_bonds>  (1) 
11

>  <i_lp_mmshare_version>  (1) 
72125

>  <i_m_source_file_index>  (1) 
48

>  <i_f3d_flags>  (1) 
0

>  <num_sample>  (1) 
50

>  <b_lp_Chiralities_Consistent>  (1) 
1

>  <r_epik_Charging_Adjusted_Penalty>  (1) 
0.72670062587857698

>  <r_epik_Ionization_Penalty>  (1) 
0.0032694115883081043

>  <r_epik_Ionization_Penalty_Charging>  (1) 
0

>  <r_epik_Ionization_Penalty_Neutral>  (1) 
0.0032694115883081043

>  <r_epik_State_Penalty>  (1) 
0.72670062587857698

>  <r_glide_ring_energy>  (1) 
0

>  <r_i_docking_score>  (1) 
-3.0448805602104794

>  <r_i_glide_ecoul>  (1) 
-3.8408118556108426

>  <r_i_glide_eff_state_penalty>  (1) 
0.72670062587857698

>  <r_i_glide_einternal>  (1) 
18.80674989819935

>  <r_i_glide_emodel>  (1) 
-11.342130591812175

>  <r_i_glide_emodel_strain>  (1) 
2.3976307805193002

>  <r_i_glide_energy>  (1) 
-13.928773912555798

>  <r_i_glide_erotb>  (1) 
0.55490112727109764

>  <r_i_glide_esite>  (1) 
-0.024883354023266843

>  <r_i_glide_evdw>  (1) 
-10.087962056944955

>  <r_i_glide_gscore>  (1) 
-3.7715811860890565

>  <r_i_glide_gscore_strain>  (1) 
0

>  <r_i_glide_hbond>  (1) 
-0.22409676265173456

>  <r_i_glide_ligand_efficiency>  (1) 
-0.10149601867368264

>  <r_i_glide_ligand_efficiency_ln>  (1) 
-0.69183003991076397

>  <r_i_glide_ligand_efficiency_sa>  (1) 
-0.31537172844776662

>  <r_i_glide_lipo>  (1) 
-1.7162202854688673

>  <r_i_glide_metal>  (1) 
-0

>  <r_i_glide_rewards>  (1) 
-1.2807620300274114

>  <r_lp_Energy>  (1) 
27.508982

>  <r_lp_tautomer_probability>  (1) 
0.17382617382613486

>  <s_epik_Chemistry_Notes>  (1) 
This compound contains an acetal/aminal-like group ( X-CH(R)-Y where X, Y are N, S, or O) that may be acid/base labile, releasing an aldehyde. This compound has a N-S or N-O group and may undergo hydrolysis at high or low pH.

>  <s_epik_cmdline>  (1) 
J2VwaWtfcHl0aG9uJywgJy1waHQnLCAnMS4wJywgJy1waCcsICc3LjQnLCAnLXRuJywgJzgnLCAnLW1hJywgJzUwMCcsICctaW1hZScsICc8aW5maWxlLm1hZT4nLCAnLW9tYWUnLCAnPG91dGZpbGUubWFlPic=

>  <s_epik_input>  (1) 
W0NIM11bQ0gyXUMxPU5OPU5bQ0BIXTFbQ0BASF0yT04yW0NAQEhdKE9bQ0gzXSlbQ0gyXVtDQEBIXShbQ0hdKFtDSDNdKVtDSDNdKUMoQyhDKEYpKFtDSDNdKVtDSDNdKT1DM1tPSF0pPVtDSF1bQ0gyXUMzPU8=

>  <s_glide_docking_method>  (1) 
confgen

>  <s_i_glide_gridfile>  (1) 
gpcr_drd2_6luq_protein_autoprepared_prepared

>  <s_lp_Force_Field>  (1) 
S-OPLS

>  <s_lp_Variant>  (1) 
DiffSBDD_47_num_sample_50-2

>  <s_m_source_file>  (1) 
generated__ligand_DiffSBDD_2026-05-06_prepared.sdf

>  <GenAI_Model>  (1) 
DiffSBDD

>  <Protein>  (1) 
generic_title2

$$$$
DiffSBDD_10_num_sample_50
     RDKit          3D

  0  0  0  0  0  0  0  0  0  0999 V3000
M  V30 BEGIN CTAB
M  V30 COUNTS 73 74 0 0 1
M  V30 BEGIN ATOM
M  V30 1 C 7.238405 4.988753 -17.057921 0 CFG=2
M  V30 2 C 11.069974 6.945519 -6.760223 0
M  V30 3 C 10.232476 7.161866 -11.283801 0
M  V30 4 C 7.599836 4.365514 -11.541066 0 CFG=1
M  V30 5 C 7.341945 3.867596 -16.008209 0 CFG=2
M  V30 6 N 9.034848 8.160512 -7.132951 0
M  V30 7 N 7.635846 2.734278 -13.242634 0
M  V30 8 C 6.615442 3.669909 -13.627843 0 CFG=1
M  V30 9 S 7.032387 4.434125 -18.837064 0
M  V30 10 C 11.212758 7.359762 -5.304156 0
M  V30 11 S 8.183766 5.940902 -19.780617 0 CHG=-1
M  V30 12 C 5.104157 6.421664 -16.672144 0
M  V30 13 O 11.834862 7.681178 -2.314947 0
M  V30 14 O 7.719287 3.154404 -19.071763 0
M  V30 15 C 8.592395 4.544262 -16.549081 0 CFG=2
M  V30 16 C 11.996181 8.030258 -9.654790 0
M  V30 17 C 8.527100 3.409923 -12.321994 0 CFG=1
M  V30 18 N 11.544238 9.369295 -3.768016 0 CHG=1
M  V30 19 N 9.936248 6.950677 -8.879495 0
M  V30 20 C 11.632784 8.841425 -5.150828 0
M  V30 21 C 6.060899 6.081200 -12.860555 0
M  V30 22 C 6.634742 6.371779 -16.769509 0
M  V30 23 C 7.041331 2.391485 -16.305812 0
M  V30 24 C 8.287191 5.542182 -10.805728 0
M  V30 25 C 10.655454 7.344207 -9.859791 0
M  V30 26 O 9.194047 5.337293 -15.548188 0
M  V30 27 C 10.054853 7.344216 -7.547984 0
M  V30 28 O 5.635720 4.610927 -19.262541 0
M  V30 29 F 9.434774 4.051543 -13.047045 0
M  V30 30 N 11.825621 9.369309 -9.106858 0 CHG=1
M  V30 31 C 12.497670 8.832806 -2.780400 0
M  V30 32 C 6.373084 4.627970 -12.441613 0 CFG=2
M  V30 33 O 6.983168 4.434989 -14.734177 0
M  V30 34 C 9.192984 6.391335 -11.696258 0
M  V30 35 H 11.835281 6.296165 -7.156366 0
M  V30 36 H 10.820700 7.697925 -12.008213 0
M  V30 37 H 7.180143 3.769459 -10.731857 0
M  V30 38 H 8.881509 8.305375 -6.147854 0
M  V30 39 H 7.228956 1.943559 -12.763578 0
M  V30 40 H 5.702345 3.137984 -13.891184 0
M  V30 41 H 11.917669 6.687549 -4.816912 0
M  V30 42 H 10.252819 7.180804 -4.818815 0
M  V30 43 H 4.776622 7.433967 -16.435817 0
M  V30 44 H 4.616997 6.140762 -17.602805 0
M  V30 45 H 4.739579 5.769295 -15.881793 0
M  V30 46 H 12.470626 7.005009 -2.127052 0
M  V30 47 H 9.288217 3.997698 -17.182711 0
M  V30 48 H 12.627597 7.438522 -8.995525 0
M  V30 49 H 12.535080 8.107586 -10.599477 0
M  V30 50 H 9.066338 2.713360 -11.680955 0
M  V30 51 H 10.618320 9.219509 -3.402471 0
M  V30 52 H 10.974851 9.468226 -5.752140 0
M  V30 53 H 12.634853 9.003105 -5.542478 0
M  V30 54 H 6.876525 6.544992 -13.412004 0
M  V30 55 H 5.177599 6.118122 -13.498508 0
M  V30 56 H 5.855005 6.702278 -11.987721 0
M  V30 57 H 7.034843 6.754454 -15.833067 0
M  V30 58 H 6.966096 7.067812 -17.537256 0
M  V30 59 H 7.940672 1.907822 -16.687348 0
M  V30 60 H 6.720870 1.824128 -15.437718 0
M  V30 61 H 6.262966 2.280191 -17.059618 0
M  V30 62 H 8.868754 5.077375 -10.012639 0
M  V30 63 H 7.538867 6.169213 -10.336495 0
M  V30 64 H 8.733861 5.126578 -14.743912 0
M  V30 65 H 12.737737 9.795632 -9.005658 0
M  V30 66 H 11.267150 9.914993 -9.747418 0
M  V30 67 H 12.634846 9.529668 -1.955892 0
M  V30 68 H 13.434847 8.588299 -3.256117 0
M  V30 69 H 5.491006 4.254744 -11.917643 0
M  V30 70 H 8.973943 6.355267 -12.752259 0
M  V30 71 H 8.194728 8.220415 -7.704111 0
M  V30 72 H 11.702993 10.364818 -3.817780 0
M  V30 73 H 11.342396 9.299900 -8.222034 0
M  V30 END ATOM
M  V30 BEGIN BOND
M  V30 1 1 5 1
M  V30 2 1 8 7
M  V30 3 1 9 1
M  V30 4 1 10 2
M  V30 5 1 11 9
M  V30 6 2 14 9
M  V30 7 1 15 1
M  V30 8 1 15 5
M  V30 9 1 17 4
M  V30 10 1 17 7
M  V30 11 1 20 10
M  V30 12 1 20 18
M  V30 13 1 1 22 CFG=1
M  V30 14 1 22 12
M  V30 15 1 23 5
M  V30 16 1 24 4
M  V30 17 1 25 3
M  V30 18 1 25 16
M  V30 19 2 25 19
M  V30 20 1 26 15
M  V30 21 2 27 2
M  V30 22 1 27 6
M  V30 23 1 27 19
M  V30 24 2 28 9
M  V30 25 1 29 17
M  V30 26 1 30 16
M  V30 27 1 31 13
M  V30 28 1 31 18
M  V30 29 1 32 4
M  V30 30 1 32 8
M  V30 31 1 32 21
M  V30 32 1 5 33 CFG=1
M  V30 33 1 33 8
M  V30 34 2 34 3
M  V30 35 1 34 24
M  V30 36 1 35 2
M  V30 37 1 36 3
M  V30 38 1 4 37 CFG=1
M  V30 39 1 38 6
M  V30 40 1 39 7
M  V30 41 1 8 40 CFG=3
M  V30 42 1 41 10
M  V30 43 1 42 10
M  V30 44 1 43 12
M  V30 45 1 44 12
M  V30 46 1 45 12
M  V30 47 1 46 13
M  V30 48 1 15 47 CFG=3
M  V30 49 1 48 16
M  V30 50 1 49 16
M  V30 51 1 17 50 CFG=1
M  V30 52 1 51 18
M  V30 53 1 52 20
M  V30 54 1 53 20
M  V30 55 1 54 21
M  V30 56 1 55 21
M  V30 57 1 56 21
M  V30 58 1 57 22
M  V30 59 1 58 22
M  V30 60 1 59 23
M  V30 61 1 60 23
M  V30 62 1 61 23
M  V30 63 1 62 24
M  V30 64 1 63 24
M  V30 65 1 64 26
M  V30 66 1 65 30
M  V30 67 1 66 30
M  V30 68 1 67 31
M  V30 69 1 68 31
M  V30 70 1 32 69 CFG=1
M  V30 71 1 70 34
M  V30 72 1 71 6
M  V30 73 1 72 18
M  V30 74 1 73 30
M  V30 END BOND
M  V30 END CTAB
M  END
>  <i_epik_Tot_Q>  (1) 
1

>  <i_epik_Tot_abs_Q>  (1) 
3

>  <i_i_glide_confnum>  (1) 
409

>  <i_i_glide_lignum>  (1) 
31

>  <i_i_glide_posenum>  (1) 
388

>  <i_i_glide_rotatable_bonds>  (1) 
15

>  <i_lp_mmshare_version>  (1) 
72125

>  <i_m_source_file_index>  (1) 
11

>  <i_f3d_flags>  (1) 
0

>  <num_sample>  (1) 
50

>  <b_lp_Chiralities_Consistent>  (1) 
1

>  <r_epik_Charging_Adjusted_Penalty>  (1) 
2.168687317063887

>  <r_epik_Ionization_Penalty>  (1) 
1.1047352072338965

>  <r_epik_Ionization_Penalty_Charging>  (1) 
1.0999234457570315

>  <r_epik_Ionization_Penalty_Neutral>  (1) 
0.0048117614768649203

>  <r_epik_State_Penalty>  (1) 
1.0687638713068555

>  <r_glide_ring_energy>  (1) 
0

>  <r_i_docking_score>  (1) 
-3.042009274711285

>  <r_i_glide_ecoul>  (1) 
3.1241501543214834

>  <r_i_glide_eff_state_penalty>  (1) 
1.0687638713068555

>  <r_i_glide_einternal>  (1) 
28.066326889264271

>  <r_i_glide_emodel>  (1) 
-28.219108990879164

>  <r_i_glide_emodel_strain>  (1) 
5.1312005762035113

>  <r_i_glide_energy>  (1) 
-32.359051749711163

>  <r_i_glide_erotb>  (1) 
0.82219216958862984

>  <r_i_glide_esite>  (1) 
-0.09793734189674809

>  <r_i_glide_evdw>  (1) 
-35.483201904032647

>  <r_i_glide_gscore>  (1) 
-4.1107731460181407

>  <r_i_glide_gscore_strain>  (1) 
0.28280014405087783

>  <r_i_glide_hbond>  (1) 
-0.19628695983886563

>  <r_i_glide_ligand_efficiency>  (1) 
-0.089470861020920153

>  <r_i_glide_ligand_efficiency_ln>  (1) 
-0.67206517425371226

>  <r_i_glide_ligand_efficiency_sa>  (1) 
-0.28985085723383053

>  <r_i_glide_lipo>  (1) 
-2.0806484667437015

>  <r_i_glide_metal>  (1) 
-0

>  <r_i_glide_rewards>  (1) 
-1.5353551191249235

>  <r_lp_Energy>  (1) 
32.715631999999999

>  <s_epik_Chemistry_Notes>  (1) 
This compound has an imine and may undergo hydrolysis. This compound contains an acetal/aminal-like group ( X-CH(R)-Y where X, Y are N, S, or O) that may be acid/base labile, releasing an aldehyde.

>  <s_epik_cmdline>  (1) 
J2VwaWtfcHl0aG9uJywgJy1waHQnLCAnMS4wJywgJy1waCcsICc3LjQnLCAnLXRuJywgJzgnLCAnLW1hJywgJzUwMCcsICctaW1hZScsICc8aW5maWxlLm1hZT4nLCAnLW9tYWUnLCAnPG91dGZpbGUubWFlPic=

>  <s_epik_input>  (1) 
W1NIXVMoPU8pKD1PKVtDQEBdMShbQ0gyXVtDSDNdKVtDQEBdKFtDSDNdKShbQ0BASF0xW09IXSlPW0NASF0oW0NAQEhdMltDSDNdKVtOSF1bQ0BASF0oRilbQ0BIXTJbQ0gyXS9bQ0hdPVtDSF1cQyhbQ0gyXVtOSDJdKT1OXEMoPU5cW0hdKVxbQ0gyXVtDSDJdW0NIMl1bTkhdW0NIMl1bT0hd

>  <s_glide_docking_method>  (1) 
confgen

>  <s_i_glide_gridfile>  (1) 
gpcr_drd2_6luq_protein_autoprepared_prepared

>  <s_lp_Force_Field>  (1) 
S-OPLS

>  <s_lp_Variant>  (1) 
DiffSBDD_10_num_sample_50-11

>  <s_m_source_file>  (1) 
generated__ligand_DiffSBDD_2026-05-06_prepared.sdf

>  <GenAI_Model>  (1) 
DiffSBDD

>  <Protein>  (1) 
generic_title2

$$$$
DiffSBDD_10_num_sample_50
     RDKit          3D

  0  0  0  0  0  0  0  0  0  0999 V3000
M  V30 BEGIN CTAB
M  V30 COUNTS 73 74 0 0 1
M  V30 BEGIN ATOM
M  V30 1 C 12.959462 5.637149 -18.533813 0 CFG=2
M  V30 2 C 8.149999 4.165141 -11.675070 0
M  V30 3 C 7.518667 3.334212 -14.836326 0
M  V30 4 C 8.101986 3.745278 -18.512299 0 CFG=1
M  V30 5 C 12.075553 5.099471 -19.681126 0 CFG=2
M  V30 6 N 5.799062 4.653522 -11.950624 0
M  V30 7 N 9.870586 3.095345 -20.023538 0
M  V30 8 C 9.731044 4.520997 -20.077985 0 CFG=1
M  V30 9 S 14.621503 6.357471 -19.033250 0
M  V30 10 C 8.514886 5.472272 -11.000582 0
M  V30 11 S 13.953811 8.027068 -20.147401 0 CHG=-1
M  V30 12 C 13.073198 5.780383 -15.956640 0
M  V30 13 O 10.429691 6.172667 -7.162272 0
M  V30 14 O 15.317039 6.888775 -17.851524 0
M  V30 15 C 12.889038 4.145998 -18.836905 0 CFG=2
M  V30 16 C 6.727940 0.900165 -14.428735 0
M  V30 17 C 8.881803 2.548774 -19.101445 0 CFG=2
M  V30 18 N 9.034840 6.569293 -8.848601 0 CHG=1
M  V30 19 N 6.634765 2.619607 -12.691686 0
M  V30 20 C 8.832148 5.268079 -9.512836 0
M  V30 21 C 8.221535 6.334091 -19.068210 0
M  V30 22 C 12.396815 6.259895 -17.250854 0
M  V30 23 C 12.331567 5.284139 -21.174368 0
M  V30 24 C 8.501458 4.045183 -17.050407 0
M  V30 25 C 6.946084 2.320747 -13.894808 0
M  V30 26 O 12.060921 3.378465 -17.986747 0
M  V30 27 C 6.905746 3.843211 -12.086472 0
M  V30 28 O 15.330744 5.444859 -19.943870 0
M  V30 29 F 8.055322 1.762686 -19.789335 0
M  V30 30 N 5.756151 0.169290 -13.587068 0 CHG=1
M  V30 31 C 9.082454 6.536338 -7.375801 0
M  V30 32 C 8.351370 4.869988 -19.526842 0 CFG=2
M  V30 33 O 10.693391 5.165465 -19.293082 0
M  V30 34 C 7.930865 3.026989 -16.081318 0
M  V30 35 H 8.957286 3.459967 -11.821018 0
M  V30 36 H 7.587337 4.346115 -14.464737 0
M  V30 37 H 7.032483 3.527733 -18.511050 0
M  V30 38 H 5.848393 5.547353 -11.479490 0
M  V30 39 H 10.799662 2.833818 -19.718655 0
M  V30 40 H 9.812981 4.871878 -21.106689 0
M  V30 41 H 7.703292 6.192254 -11.107349 0
M  V30 42 H 9.373222 5.898679 -11.520542 0
M  V30 43 H 12.545419 6.169162 -15.086049 0
M  V30 44 H 13.062947 4.692951 -15.891635 0
M  V30 45 H 14.107974 6.105341 -15.872138 0
M  V30 46 H 10.479611 5.635508 -6.383217 0
M  V30 47 H 13.728416 3.608939 -19.272553 0
M  V30 48 H 6.317757 0.920106 -15.438308 0
M  V30 49 H 7.678412 0.365139 -14.451170 0
M  V30 50 H 9.355695 1.929675 -18.338722 0
M  V30 51 H 8.189827 7.119921 -9.091624 0
M  V30 52 H 9.714056 4.639052 -9.383409 0
M  V30 53 H 7.994402 4.755590 -9.036424 0
M  V30 54 H 8.942408 6.581368 -18.291664 0
M  V30 55 H 8.393312 7.018259 -19.899510 0
M  V30 56 H 7.225376 6.533807 -18.673863 0
M  V30 57 H 12.474364 7.345085 -17.331069 0
M  V30 58 H 11.332792 6.045161 -17.170365 0
M  V30 59 H 13.391738 5.300269 -21.410265 0
M  V30 60 H 11.897790 4.464108 -21.745502 0
M  V30 61 H 11.893928 6.222472 -21.515928 0
M  V30 62 H 8.141330 5.026854 -16.743328 0
M  V30 63 H 9.585577 4.066407 -16.947102 0
M  V30 64 H 11.315003 3.926822 -17.783459 0
M  V30 65 H 5.647514 -0.803965 -13.864219 0
M  V30 66 H 6.077478 0.202465 -12.630234 0
M  V30 67 H 8.379711 5.815391 -6.954898 0
M  V30 68 H 8.878938 7.521505 -6.954643 0
M  V30 69 H 7.652909 4.716058 -20.351546 0
M  V30 70 H 7.866661 2.011889 -16.439703 0
M  V30 71 H 4.879423 4.345021 -12.225258 0
M  V30 72 H 9.851327 7.039407 -9.207221 0
M  V30 73 H 4.859024 0.627974 -13.637168 0
M  V30 END ATOM
M  V30 BEGIN BOND
M  V30 1 1 5 1
M  V30 2 1 8 7
M  V30 3 1 9 1
M  V30 4 1 10 2
M  V30 5 1 11 9
M  V30 6 2 14 9
M  V30 7 1 15 1
M  V30 8 1 15 5
M  V30 9 1 17 4
M  V30 10 1 17 7
M  V30 11 1 20 10
M  V30 12 1 20 18
M  V30 13 1 1 22 CFG=1
M  V30 14 1 22 12
M  V30 15 1 23 5
M  V30 16 1 24 4
M  V30 17 1 25 3
M  V30 18 1 25 16
M  V30 19 2 25 19
M  V30 20 1 26 15
M  V30 21 2 27 2
M  V30 22 1 27 6
M  V30 23 1 27 19
M  V30 24 2 28 9
M  V30 25 1 29 17
M  V30 26 1 30 16
M  V30 27 1 31 13
M  V30 28 1 31 18
M  V30 29 1 32 4
M  V30 30 1 32 8
M  V30 31 1 32 21
M  V30 32 1 5 33 CFG=1
M  V30 33 1 33 8
M  V30 34 2 34 3
M  V30 35 1 34 24
M  V30 36 1 35 2
M  V30 37 1 36 3
M  V30 38 1 4 37 CFG=1
M  V30 39 1 38 6
M  V30 40 1 39 7
M  V30 41 1 8 40 CFG=3
M  V30 42 1 41 10
M  V30 43 1 42 10
M  V30 44 1 43 12
M  V30 45 1 44 12
M  V30 46 1 45 12
M  V30 47 1 46 13
M  V30 48 1 15 47 CFG=3
M  V30 49 1 48 16
M  V30 50 1 49 16
M  V30 51 1 17 50 CFG=1
M  V30 52 1 51 18
M  V30 53 1 52 20
M  V30 54 1 53 20
M  V30 55 1 54 21
M  V30 56 1 55 21
M  V30 57 1 56 21
M  V30 58 1 57 22
M  V30 59 1 58 22
M  V30 60 1 59 23
M  V30 61 1 60 23
M  V30 62 1 61 23
M  V30 63 1 62 24
M  V30 64 1 63 24
M  V30 65 1 64 26
M  V30 66 1 65 30
M  V30 67 1 66 30
M  V30 68 1 67 31
M  V30 69 1 68 31
M  V30 70 1 32 69 CFG=3
M  V30 71 1 70 34
M  V30 72 1 71 6
M  V30 73 1 72 18
M  V30 74 1 73 30
M  V30 END BOND
M  V30 END CTAB
M  END
>  <i_epik_Tot_Q>  (1) 
1

>  <i_epik_Tot_abs_Q>  (1) 
3

>  <i_i_glide_confnum>  (1) 
1234

>  <i_i_glide_lignum>  (1) 
34

>  <i_i_glide_posenum>  (1) 
204

>  <i_i_glide_rotatable_bonds>  (1) 
15

>  <i_lp_mmshare_version>  (1) 
72125

>  <i_m_source_file_index>  (1) 
11

>  <i_f3d_flags>  (1) 
0

>  <num_sample>  (1) 
50

>  <b_lp_Chiralities_Consistent>  (1) 
1

>  <r_epik_Charging_Adjusted_Penalty>  (1) 
2.168687317063887

>  <r_epik_Ionization_Penalty>  (1) 
1.1047352072338965

>  <r_epik_Ionization_Penalty_Charging>  (1) 
1.0999234457570315

>  <r_epik_Ionization_Penalty_Neutral>  (1) 
0.0048117614768649203

>  <r_epik_State_Penalty>  (1) 
1.0687638713068555

>  <r_glide_ring_energy>  (1) 
0

>  <r_i_docking_score>  (1) 
-3.0356594126976733

>  <r_i_glide_ecoul>  (1) 
-9.9720620850995783

>  <r_i_glide_eff_state_penalty>  (1) 
1.0687638713068555

>  <r_i_glide_einternal>  (1) 
9.3923560216158908

>  <r_i_glide_emodel>  (1) 
-51.188233554263917

>  <r_i_glide_emodel_strain>  (1) 
0.23569840401873421

>  <r_i_glide_energy>  (1) 
-37.679693332466513

>  <r_i_glide_erotb>  (1) 
0.82219216958862984

>  <r_i_glide_esite>  (1) 
-0.24294296344660343

>  <r_i_glide_evdw>  (1) 
-27.707631247366937

>  <r_i_glide_gscore>  (1) 
-4.1044232840045289

>  <r_i_glide_gscore_strain>  (1) 
0

>  <r_i_glide_hbond>  (1) 
-0.36413269485851496

>  <r_i_glide_ligand_efficiency>  (1) 
-0.089284100373460976

>  <r_i_glide_ligand_efficiency_ln>  (1) 
-0.67066231162730883

>  <r_i_glide_ligand_efficiency_sa>  (1) 
-0.2892458252363076

>  <r_i_glide_lipo>  (1) 
-0.99384013607589383

>  <r_i_glide_metal>  (1) 
-0

>  <r_i_glide_rewards>  (1) 
-0.4445087840788628

>  <r_lp_Energy>  (1) 
23.104900000000001

>  <s_epik_Chemistry_Notes>  (1) 
This compound has an imine and may undergo hydrolysis. This compound contains an acetal/aminal-like group ( X-CH(R)-Y where X, Y are N, S, or O) that may be acid/base labile, releasing an aldehyde.

>  <s_epik_cmdline>  (1) 
J2VwaWtfcHl0aG9uJywgJy1waHQnLCAnMS4wJywgJy1waCcsICc3LjQnLCAnLXRuJywgJzgnLCAnLW1hJywgJzUwMCcsICctaW1hZScsICc8aW5maWxlLm1hZT4nLCAnLW9tYWUnLCAnPG91dGZpbGUubWFlPic=

>  <s_epik_input>  (1) 
W1NIXVMoPU8pKD1PKVtDQEBdMShbQ0gyXVtDSDNdKVtDQEBdKFtDSDNdKShbQ0BASF0xW09IXSlPW0NASF0oW0NAQEhdMltDSDNdKVtOSF1bQ0BASF0oRilbQ0BIXTJbQ0gyXVxbQ0hdPVtDSF1cQyhbQ0gyXVtOSDJdKT1OL0MoPU4vW0hdKS9bQ0gyXVtDSDJdW0NIMl1bTkhdW0NIMl1bT0hd

>  <s_glide_docking_method>  (1) 
confgen

>  <s_i_glide_gridfile>  (1) 
gpcr_drd2_6luq_protein_autoprepared_prepared

>  <s_lp_Force_Field>  (1) 
S-OPLS

>  <s_lp_Variant>  (1) 
DiffSBDD_10_num_sample_50-14

>  <s_m_source_file>  (1) 
generated__ligand_DiffSBDD_2026-05-06_prepared.sdf

>  <GenAI_Model>  (1) 
DiffSBDD

>  <Protein>  (1) 
generic_title2

$$$$
DiffSBDD_47_num_sample_50
     RDKit          3D

  0  0  0  0  0  0  0  0  0  0999 V3000
M  V30 BEGIN CTAB
M  V30 COUNTS 61 63 0 0 1
M  V30 BEGIN ATOM
M  V30 1 C 11.292032 7.959048 -7.739650 0
M  V30 2 C 6.455270 1.573813 -13.377585 0
M  V30 3 O 6.993248 0.169100 -15.230885 0
M  V30 4 N 9.760129 7.018444 -10.217467 0
M  V30 5 C 5.558969 7.372717 -12.046398 0
M  V30 6 O 9.901058 5.769559 -9.421764 0
M  V30 7 N 10.235942 8.699147 -5.891657 0
M  V30 8 C 8.181343 5.368038 -11.487386 0
M  V30 9 C 7.021075 1.396964 -14.643770 0
M  V30 10 C 5.434781 6.322406 -14.286271 0
M  V30 11 O 9.590157 6.961126 -12.533276 0
M  V30 12 C 7.662005 3.771005 -14.716033 0
M  V30 13 C 7.078746 3.945825 -13.392717 0
M  V30 14 C 12.927970 8.934302 -9.392024 0
M  V30 15 O 8.169851 2.259484 -16.549136 0
M  V30 16 N 11.404927 8.614278 -6.558213 0
M  V30 17 F 8.234844 6.122154 -14.930992 0
M  V30 18 C 8.904060 6.729134 -11.344618 0 CFG=2
M  V30 19 C 8.339539 4.942537 -15.493582 0
M  V30 20 C 12.421507 7.727096 -8.668477 0
M  V30 21 C 6.482693 2.830174 -12.756252 0
M  V30 22 C 7.768402 5.168316 -16.922236 0
M  V30 23 N 9.343083 8.094932 -6.643083 0
M  V30 24 C 7.619981 2.474491 -15.315757 0
M  V30 25 C 10.905073 6.417390 -12.628536 0
M  V30 26 C 9.978705 7.623908 -7.793675 0
M  V30 27 C 6.373403 6.609662 -13.119392 0
M  V30 28 C 9.851796 4.743831 -15.587908 0
M  V30 29 C 9.225308 6.898646 -8.873287 0 CFG=1
M  V30 30 C 7.098400 5.306527 -12.616296 0 CFG=2
M  V30 31 H 5.998226 0.734085 -12.872244 0
M  V30 32 H 7.431262 0.189609 -16.069493 0
M  V30 33 H 5.050994 6.719011 -11.336831 0
M  V30 34 H 4.796758 8.009412 -12.496495 0
M  V30 35 H 6.184960 8.062051 -11.491651 0
M  V30 36 H 8.932169 4.593019 -11.637889 0
M  V30 37 H 7.708871 5.135866 -10.531372 0
M  V30 38 H 4.634373 5.675232 -13.946208 0
M  V30 39 H 5.889975 5.810018 -15.113916 0
M  V30 40 H 5.034841 7.253292 -14.684661 0
M  V30 41 H 13.488980 8.649376 -10.282579 0
M  V30 42 H 13.627032 9.369294 -8.691472 0
M  V30 43 H 12.143430 9.638423 -9.672974 0
M  V30 44 H 8.558297 3.036144 -16.920838 0
M  V30 45 H 8.158957 7.514910 -11.322616 0
M  V30 46 H 12.180564 6.969407 -9.405175 0
M  V30 47 H 13.258842 7.369303 -8.077440 0
M  V30 48 H 6.047184 2.942554 -11.774796 0
M  V30 49 H 8.076819 4.417129 -17.644088 0
M  V30 50 H 8.115141 6.114276 -17.338714 0
M  V30 51 H 6.681500 5.193029 -16.949074 0
M  V30 52 H 11.259791 6.456468 -13.656418 0
M  V30 53 H 10.937168 5.381816 -12.291667 0
M  V30 54 H 11.616801 6.993424 -12.036541 0
M  V30 55 H 12.256444 9.007521 -6.187810 0
M  V30 56 H 7.108376 7.336881 -13.457270 0
M  V30 57 H 10.135591 3.903457 -16.220727 0
M  V30 58 H 10.234963 4.569342 -14.587155 0
M  V30 59 H 10.347067 5.626059 -15.994441 0
M  V30 60 H 8.234798 6.569293 -8.587504 0
M  V30 61 H 6.266373 5.039699 -11.968647 0
M  V30 END ATOM
M  V30 BEGIN BOND
M  V30 1 1 6 4
M  V30 2 2 9 2
M  V30 3 1 9 3
M  V30 4 1 13 12
M  V30 5 1 16 1
M  V30 6 1 16 7
M  V30 7 1 18 4
M  V30 8 1 18 8
M  V30 9 1 18 11
M  V30 10 1 19 12
M  V30 11 1 19 17
M  V30 12 1 20 1
M  V30 13 1 20 14
M  V30 14 1 21 2
M  V30 15 2 21 13
M  V30 16 1 22 19
M  V30 17 2 23 7
M  V30 18 1 24 9
M  V30 19 2 24 12
M  V30 20 1 24 15
M  V30 21 1 25 11
M  V30 22 2 26 1
M  V30 23 1 26 23
M  V30 24 1 27 5
M  V30 25 1 27 10
M  V30 26 1 28 19
M  V30 27 1 29 4
M  V30 28 1 29 6
M  V30 29 1 29 26
M  V30 30 1 30 8
M  V30 31 1 30 13
M  V30 32 1 30 27
M  V30 33 1 31 2
M  V30 34 1 32 3
M  V30 35 1 33 5
M  V30 36 1 34 5
M  V30 37 1 35 5
M  V30 38 1 36 8
M  V30 39 1 37 8
M  V30 40 1 38 10
M  V30 41 1 39 10
M  V30 42 1 40 10
M  V30 43 1 41 14
M  V30 44 1 42 14
M  V30 45 1 43 14
M  V30 46 1 44 15
M  V30 47 1 18 45 CFG=1
M  V30 48 1 46 20
M  V30 49 1 47 20
M  V30 50 1 48 21
M  V30 51 1 49 22
M  V30 52 1 50 22
M  V30 53 1 51 22
M  V30 54 1 52 25
M  V30 55 1 53 25
M  V30 56 1 54 25
M  V30 57 1 55 16
M  V30 58 1 56 27
M  V30 59 1 57 28
M  V30 60 1 58 28
M  V30 61 1 59 28
M  V30 62 1 29 60 CFG=3
M  V30 63 1 30 61 CFG=1
M  V30 END BOND
M  V30 END CTAB
M  END
>  <i_epik_Tot_Q>  (1) 
0

>  <i_epik_Tot_abs_Q>  (1) 
0

>  <i_i_glide_confnum>  (1) 
35

>  <i_i_glide_lignum>  (1) 
116

>  <i_i_glide_posenum>  (1) 
56

>  <i_i_glide_rotatable_bonds>  (1) 
11

>  <i_lp_mmshare_version>  (1) 
72125

>  <i_m_source_file_index>  (1) 
48

>  <i_f3d_flags>  (1) 
0

>  <num_sample>  (1) 
50

>  <b_lp_Chiralities_Consistent>  (1) 
1

>  <r_epik_Charging_Adjusted_Penalty>  (1) 
0.83298032901439623

>  <r_epik_Ionization_Penalty>  (1) 
0.0039877577423364898

>  <r_epik_Ionization_Penalty_Charging>  (1) 
0

>  <r_epik_Ionization_Penalty_Neutral>  (1) 
0.0039877577423364898

>  <r_epik_State_Penalty>  (1) 
0.83298032901439623

>  <r_glide_ring_energy>  (1) 
0

>  <r_i_docking_score>  (1) 
-3.0286616126589472

>  <r_i_glide_ecoul>  (1) 
-2.1741510140338276

>  <r_i_glide_eff_state_penalty>  (1) 
0.83298032901439623

>  <r_i_glide_einternal>  (1) 
14.102708020023726

>  <r_i_glide_emodel>  (1) 
-24.335143073770304

>  <r_i_glide_emodel_strain>  (1) 
6.7314520169387038

>  <r_i_glide_energy>  (1) 
-29.800298349811435

>  <r_i_glide_erotb>  (1) 
0.55490112727109764

>  <r_i_glide_esite>  (1) 
-0.36323987680023295

>  <r_i_glide_evdw>  (1) 
-27.626147335777606

>  <r_i_glide_gscore>  (1) 
-3.8616419416733434

>  <r_i_glide_gscore_strain>  (1) 
0.68286300423467594

>  <r_i_glide_hbond>  (1) 
0

>  <r_i_glide_ligand_efficiency>  (1) 
-0.10095538708863157

>  <r_i_glide_ligand_efficiency_ln>  (1) 
-0.68814491830746816

>  <r_i_glide_ligand_efficiency_sa>  (1) 
-0.31369186041295055

>  <r_i_glide_lipo>  (1) 
-1.7284947285959202

>  <r_i_glide_metal>  (1) 
-0

>  <r_i_glide_rewards>  (1) 
-1.3002414488890095

>  <r_lp_Energy>  (1) 
29.114134

>  <r_lp_tautomer_probability>  (1) 
0.17382617382613486

>  <s_epik_Chemistry_Notes>  (1) 
This compound contains an acetal/aminal-like group ( X-CH(R)-Y where X, Y are N, S, or O) that may be acid/base labile, releasing an aldehyde. This compound has a N-S or N-O group and may undergo hydrolysis at high or low pH.

>  <s_epik_cmdline>  (1) 
J2VwaWtfcHl0aG9uJywgJy1waHQnLCAnMS4wJywgJy1waCcsICc3LjQnLCAnLXRuJywgJzgnLCAnLW1hJywgJzUwMCcsICctaW1hZScsICc8aW5maWxlLm1hZT4nLCAnLW9tYWUnLCAnPG91dGZpbGUubWFlPic=

>  <s_epik_input>  (1) 
W0NIM11bQ0gyXUMxPU5OPU5bQ0BIXTFbQ0BASF0yT04yW0NAQEhdKE9bQ0gzXSlbQ0gyXVtDQEBIXShbQ0hdKFtDSDNdKVtDSDNdKUMoQyhDKEYpKFtDSDNdKVtDSDNdKT1DM1tPSF0pPVtDSF1bQ0gyXUMzPU8=

>  <s_glide_docking_method>  (1) 
confgen

>  <s_i_glide_gridfile>  (1) 
gpcr_drd2_6luq_protein_autoprepared_prepared

>  <s_lp_Force_Field>  (1) 
S-OPLS

>  <s_lp_Variant>  (1) 
DiffSBDD_47_num_sample_50-3

>  <s_m_source_file>  (1) 
generated__ligand_DiffSBDD_2026-05-06_prepared.sdf

>  <GenAI_Model>  (1) 
DiffSBDD

>  <Protein>  (1) 
generic_title2

$$$$
DiffSBDD_24_num_sample_50
     RDKit          3D

  0  0  0  0  0  0  0  0  0  0999 V3000
M  V30 BEGIN CTAB
M  V30 COUNTS 85 91 0 0 1
M  V30 BEGIN ATOM
M  V30 1 N 8.642734 2.325289 -17.657410 0
M  V30 2 C 15.715162 7.301585 -20.163674 0
M  V30 3 O 13.749686 1.835750 -17.532384 0
M  V30 4 C 10.217670 1.605729 -19.768312 0 CFG=2
M  V30 5 C 5.358796 3.927605 -20.706825 0 CFG=1
M  V30 6 C 16.982730 9.535790 -19.553144 0 CFG=2
M  V30 7 C 13.512115 4.091813 -16.867651 0 CFG=2
M  V30 8 C 11.629159 2.890929 -18.125778 0
M  V30 9 N 5.916335 3.078450 -21.758062 0
M  V30 10 N 12.676346 6.044811 -18.191765 0 CFG=2 CHG=1
M  V30 11 C 11.159270 4.874240 -16.615095 0
M  V30 12 C 9.402653 1.083237 -17.496040 0
M  V30 13 C 6.290764 3.845222 -19.493013 0
M  V30 14 C 10.687870 3.713003 -17.495696 0
M  V30 15 C 5.276158 3.466354 -23.007530 0
M  V30 16 C 7.159781 2.160407 -17.656980 0
M  V30 17 C 5.779455 1.666831 -21.378774 0 CFG=2
M  V30 18 O 8.457371 4.590401 -17.680911 0
M  V30 19 C 17.659798 9.296020 -18.214948 0
M  V30 20 F 14.795472 4.431593 -16.999204 0
M  V30 21 C 6.655653 1.441451 -20.128774 0
M  V30 22 C 11.334891 2.184617 -21.985117 0
M  V30 23 C 5.391508 4.990940 -23.075279 0 CFG=1
M  V30 24 C 14.252436 1.030412 -18.589013 0
M  V30 25 C 6.335831 2.398909 -18.964286 0 CFG=2
M  V30 26 C 9.655089 0.497250 -18.881761 0
M  V30 27 F 15.424750 10.186120 -17.815628 0
M  V30 28 C 15.693916 8.765315 -19.774132 0 CFG=2
M  V30 29 C 9.186413 3.600293 -17.648385 0
M  V30 30 C 10.666683 1.091414 -21.142732 0
M  V30 31 C 13.137221 3.057256 -17.936112 0 CFG=2
M  V30 32 C 12.601757 5.329337 -16.889292 0 CFG=1
M  V30 33 C 6.234820 0.729115 -22.512649 0
M  V30 34 S 5.216210 5.596035 -21.388131 0
M  V30 35 C 13.870037 6.823555 -18.475372 0 CFG=1
M  V30 36 O 11.354450 1.859437 -19.002752 0
M  V30 37 C 16.157976 9.165225 -18.385369 0 CFG=1
M  V30 38 Cl 6.988927 5.449258 -23.721358 0
M  V30 39 C 14.379355 6.594843 -19.888624 0
M  V30 40 C 12.547624 7.493748 -18.185840 0
M  V30 41 H 15.962732 7.224168 -21.222804 0
M  V30 42 H 16.517473 6.800513 -19.620048 0
M  V30 43 H 9.593812 2.479654 -19.938794 0
M  V30 44 H 4.352041 3.597436 -20.447750 0
M  V30 45 H 16.962812 10.569283 -19.891684 0
M  V30 46 H 13.436303 3.621877 -15.891675 0
M  V30 47 H 10.500214 5.735965 -16.734255 0
M  V30 48 H 11.041676 4.569329 -15.575151 0
M  V30 49 H 8.833922 0.357619 -16.914418 0
M  V30 50 H 10.303412 1.198876 -16.902662 0
M  V30 51 H 7.281756 4.174019 -19.804331 0
M  V30 52 H 5.949875 4.524071 -18.710674 0
M  V30 53 H 5.749335 2.994939 -23.866987 0
M  V30 54 H 4.234840 3.161012 -22.993413 0
M  V30 55 H 6.904232 1.158592 -17.311477 0
M  V30 56 H 6.757253 2.804843 -16.874681 0
M  V30 57 H 4.738899 1.445215 -21.136143 0
M  V30 58 H 18.234031 8.378481 -18.105609 0
M  V30 59 H 18.039824 10.157185 -17.668312 0
M  V30 60 H 6.557935 0.408040 -19.794793 0
M  V30 61 H 7.680835 1.586486 -20.445147 0
M  V30 62 H 11.646695 1.794320 -22.954092 0
M  V30 63 H 12.218867 2.582725 -21.485937 0
M  V30 64 H 10.650344 3.013847 -22.166029 0
M  V30 65 H 4.635675 5.426958 -23.729063 0
M  V30 66 H 14.706441 0.131108 -18.172226 0
M  V30 67 H 15.022840 1.559800 -19.150769 0
M  V30 68 H 13.473731 0.714394 -19.281395 0
M  V30 69 H 5.307733 2.168484 -18.680985 0
M  V30 70 H 10.363833 -0.328442 -18.798669 0
M  V30 71 H 8.752906 0.058050 -19.297396 0
M  V30 72 H 14.870558 9.331775 -20.206840 0
M  V30 73 H 11.352957 0.252019 -21.023505 0
M  V30 74 H 9.801061 0.707509 -21.683656 0
M  V30 75 H 13.545352 3.390941 -18.891960 0
M  V30 76 H 12.912864 5.998186 -16.084356 0
M  V30 77 H 6.243820 -0.307702 -22.175963 0
M  V30 78 H 7.239741 0.974902 -22.857837 0
M  V30 79 H 5.559606 0.771966 -23.367664 0
M  V30 80 H 14.598828 6.759760 -17.669754 0
M  V30 81 H 14.504308 5.524045 -20.055901 0
M  V30 82 H 13.628769 6.938971 -20.602058 0
M  V30 83 H 11.903319 7.816501 -19.001455 0
M  V30 84 H 12.343672 7.890376 -17.193095 0
M  V30 85 H 12.276830 5.597726 -19.004815 0
M  V30 END ATOM
M  V30 BEGIN BOND
M  V30 1 1 9 5
M  V30 2 1 12 1
M  V30 3 1 13 5
M  V30 4 2 14 8
M  V30 5 1 14 11
M  V30 6 1 15 9
M  V30 7 1 16 1
M  V30 8 1 17 9
M  V30 9 1 19 6
M  V30 10 1 20 7
M  V30 11 1 21 17
M  V30 12 1 23 15
M  V30 13 1 24 3
M  V30 14 1 25 13
M  V30 15 1 25 16
M  V30 16 1 25 21
M  V30 17 1 26 4
M  V30 18 1 26 12
M  V30 19 1 28 2
M  V30 20 1 28 6
M  V30 21 1 29 1
M  V30 22 1 29 14
M  V30 23 2 29 18
M  V30 24 1 30 4
M  V30 25 1 30 22
M  V30 26 1 31 3
M  V30 27 1 31 7
M  V30 28 1 31 8
M  V30 29 1 32 7
M  V30 30 1 32 10
M  V30 31 1 32 11
M  V30 32 1 33 17
M  V30 33 1 34 5
M  V30 34 1 34 23
M  V30 35 1 35 10
M  V30 36 1 36 4
M  V30 37 1 36 8
M  V30 38 1 37 6
M  V30 39 1 37 19
M  V30 40 1 37 27 CFG=1
M  V30 41 1 37 28
M  V30 42 1 38 23
M  V30 43 1 39 2
M  V30 44 1 39 35
M  V30 45 1 40 10
M  V30 46 1 40 35
M  V30 47 1 41 2
M  V30 48 1 42 2
M  V30 49 1 4 43 CFG=3
M  V30 50 1 5 44 CFG=1
M  V30 51 1 6 45 CFG=3
M  V30 52 1 7 46 CFG=1
M  V30 53 1 47 11
M  V30 54 1 48 11
M  V30 55 1 49 12
M  V30 56 1 50 12
M  V30 57 1 51 13
M  V30 58 1 52 13
M  V30 59 1 53 15
M  V30 60 1 54 15
M  V30 61 1 55 16
M  V30 62 1 56 16
M  V30 63 1 17 57 CFG=1
M  V30 64 1 58 19
M  V30 65 1 59 19
M  V30 66 1 60 21
M  V30 67 1 61 21
M  V30 68 1 62 22
M  V30 69 1 63 22
M  V30 70 1 64 22
M  V30 71 1 23 65 CFG=3
M  V30 72 1 66 24
M  V30 73 1 67 24
M  V30 74 1 68 24
M  V30 75 1 25 69 CFG=1
M  V30 76 1 70 26
M  V30 77 1 71 26
M  V30 78 1 28 72 CFG=3
M  V30 79 1 73 30
M  V30 80 1 74 30
M  V30 81 1 31 75 CFG=3
M  V30 82 1 32 76 CFG=1
M  V30 83 1 77 33
M  V30 84 1 78 33
M  V30 85 1 79 33
M  V30 86 1 35 80 CFG=1
M  V30 87 1 81 39
M  V30 88 1 82 39
M  V30 89 1 83 40
M  V30 90 1 84 40
M  V30 91 1 10 85 CFG=3
M  V30 END BOND
M  V30 END CTAB
M  END
>  <i_epik_Tot_Q>  (1) 
1

>  <i_epik_Tot_abs_Q>  (1) 
1

>  <i_i_glide_confnum>  (1) 
137

>  <i_i_glide_lignum>  (1) 
64

>  <i_i_glide_posenum>  (1) 
231

>  <i_i_glide_rotatable_bonds>  (1) 
8

>  <i_lp_mmshare_version>  (1) 
72125

>  <i_m_source_file_index>  (1) 
25

>  <i_f3d_flags>  (1) 
0

>  <num_sample>  (1) 
50

>  <b_lp_Chiralities_Consistent>  (1) 
1

>  <r_epik_Charging_Adjusted_Penalty>  (1) 
0.63439585009227506

>  <r_epik_Ionization_Penalty>  (1) 
0.31719815469996288

>  <r_epik_Ionization_Penalty_Charging>  (1) 
0.31719792504613759

>  <r_epik_Ionization_Penalty_Neutral>  (1) 
2.2965382529121371e-07

>  <r_epik_State_Penalty>  (1) 
0.31719792504613753

>  <r_glide_ring_energy>  (1) 
0

>  <r_i_docking_score>  (1) 
-3.0282128265903721

>  <r_i_glide_ecoul>  (1) 
-2.8173302399506555

>  <r_i_glide_eff_state_penalty>  (1) 
0.31719792504613753

>  <r_i_glide_einternal>  (1) 
6.196878996509664

>  <r_i_glide_emodel>  (1) 
-33.351378223456436

>  <r_i_glide_emodel_strain>  (1) 
0.0038714642803654442

>  <r_i_glide_energy>  (1) 
-30.836864841269342

>  <r_i_glide_erotb>  (1) 
0.23102689348128655

>  <r_i_glide_esite>  (1) 
0

>  <r_i_glide_evdw>  (1) 
-28.019534601318686

>  <r_i_glide_gscore>  (1) 
-3.3454107516365097

>  <r_i_glide_gscore_strain>  (1) 
0

>  <r_i_glide_hbond>  (1) 
0

>  <r_i_glide_ligand_efficiency>  (1) 
-0.075705320664759296

>  <r_i_glide_ligand_efficiency_ln>  (1) 
-0.64582867958643597

>  <r_i_glide_ligand_efficiency_sa>  (1) 
-0.25890855474436941

>  <r_i_glide_lipo>  (1) 
-1.465162332601778

>  <r_i_glide_metal>  (1) 
-0

>  <r_i_glide_rewards>  (1) 
-0.28769904645748567

>  <r_lp_Energy>  (1) 
54.516613999999997

>  <s_epik_Chemistry_Notes>  (1) 
This compound contains an acetal/aminal-like group ( X-CH(R)-Y where X, Y are N, S, or O) that may be acid/base labile, releasing an aldehyde.

>  <s_epik_cmdline>  (1) 
J2VwaWtfcHl0aG9uJywgJy1waHQnLCAnMS4wJywgJy1waCcsICc3LjQnLCAnLXRuJywgJzgnLCAnLW1hJywgJzUwMCcsICctaW1hZScsICc8aW5maWxlLm1hZT4nLCAnLW9tYWUnLCAnPG91dGZpbGUubWFlPic=

>  <s_epik_input>  (1) 
UzFbQ0BASF0oQ2wpW0NIMl1OKFtDQEhdMTIpW0NAQEhdKFtDSDNdKVtDSDJdW0NASF0oW0NIMl0yKVtDSDJdTihbQ0gyXVtDSDJdW0NAQEhdKE8zKVtDSDJdW0NIM10pQyg9TylDKD1DMzQpW0NIMl1bQ0BASF0oW0NASF0oRilbQ0BIXTRPW0NIM10pTjVbQ0BIXShbQ0gyXTUpW0NIMl1bQ0gyXVtDQEBIXTZbQ0hdKFtDSDJdNylDNjdG

>  <s_glide_docking_method>  (1) 
confgen

>  <s_i_glide_gridfile>  (1) 
gpcr_drd2_6luq_protein_autoprepared_prepared

>  <s_lp_Force_Field>  (1) 
S-OPLS

>  <s_lp_Variant>  (1) 
DiffSBDD_24_num_sample_50-1

>  <s_m_source_file>  (1) 
generated__ligand_DiffSBDD_2026-05-06_prepared.sdf

>  <GenAI_Model>  (1) 
DiffSBDD

>  <Protein>  (1) 
generic_title2

$$$$
DiffSBDD_10_num_sample_50
     RDKit          3D

  0  0  0  0  0  0  0  0  0  0999 V3000
M  V30 BEGIN CTAB
M  V30 COUNTS 72 73 0 0 1
M  V30 BEGIN ATOM
M  V30 1 C 13.036891 1.780588 -19.326568 0 CFG=2
M  V30 2 C 9.024940 4.954221 -10.512106 0
M  V30 3 C 8.561953 4.676951 -15.124689 0
M  V30 4 C 7.935846 2.492915 -17.949055 0 CFG=1
M  V30 5 C 11.749429 1.272844 -20.017821 0 CFG=2
M  V30 6 N 8.237347 7.016763 -11.491660 0
M  V30 7 N 9.237847 0.503213 -18.152512 0
M  V30 8 C 9.389716 1.205839 -19.382636 0 CFG=1
M  V30 9 S 14.584396 1.868493 -20.388496 0
M  V30 10 C 8.772051 5.357487 -9.069436 0
M  V30 11 S 14.001494 3.413232 -21.712124 0 CHG=-1
M  V30 12 C 13.932998 2.504006 -16.993658 0
M  V30 13 O 10.221596 8.555367 -6.240745 0
M  V30 14 O 15.706478 2.391263 -19.593683 0
M  V30 15 C 12.576370 0.341266 -19.156553 0 CFG=2
M  V30 16 C 6.651560 4.923512 -13.371185 0
M  V30 17 C 8.815300 1.488065 -17.172250 0 CFG=2
M  V30 18 N 9.823375 6.605940 -7.173236 0 CHG=1
M  V30 19 N 9.037525 5.327715 -12.867538 0
M  V30 20 C 10.069429 5.794363 -8.381356 0
M  V30 21 C 8.572676 3.431832 -20.360243 0
M  V30 22 C 13.022988 2.818883 -18.194870 0
M  V30 23 C 11.566395 1.071796 -21.518610 0
M  V30 24 C 8.127370 3.956324 -17.503380 0
M  V30 25 C 8.154228 4.992343 -13.727058 0
M  V30 26 O 12.022503 0.051564 -17.891361 0
M  V30 27 C 8.767108 5.744682 -11.571478 0
M  V30 28 O 14.757189 0.632361 -21.167342 0
M  V30 29 F 8.161404 0.897112 -16.174318 0
M  V30 30 N 6.336844 3.774710 -12.541619 0
M  V30 31 C 9.677221 8.048232 -7.435619 0
M  V30 32 C 8.252626 2.231403 -19.441756 0 CFG=2
M  V30 33 O 10.609567 1.894342 -19.410259 0
M  V30 34 C 7.707021 4.250996 -16.077277 0
M  V30 35 H 9.444236 3.970292 -10.672059 0
M  V30 36 H 9.612017 4.814445 -15.344463 0
M  V30 37 H 6.888926 2.228930 -17.789367 0
M  V30 38 H 7.834845 7.369255 -10.609423 0
M  V30 39 H 10.108427 0.057674 -17.875378 0
M  V30 40 H 9.324032 0.510681 -20.217036 0
M  V30 41 H 8.297271 4.541405 -8.527255 0
M  V30 42 H 8.058822 6.168660 -9.035709 0
M  V30 43 H 13.834794 3.280160 -16.234664 0
M  V30 44 H 13.673147 1.557696 -16.521861 0
M  V30 45 H 14.985415 2.458708 -17.261415 0
M  V30 46 H 9.737050 9.330284 -5.995687 0
M  V30 47 H 13.114420 -0.483853 -19.617224 0
M  V30 48 H 6.375431 5.818952 -12.813338 0
M  V30 49 H 5.993012 4.952394 -14.233068 0
M  V30 50 H 9.694189 1.975816 -16.749819 0
M  V30 51 H 10.623101 6.512108 -6.564275 0
M  V30 52 H 10.711347 6.350178 -9.065279 0
M  V30 53 H 10.634824 4.914127 -8.090088 0
M  V30 54 H 9.406145 4.027259 -19.986987 0
M  V30 55 H 8.838663 3.098780 -21.363408 0
M  V30 56 H 7.711764 4.093651 -20.454918 0
M  V30 57 H 13.303534 3.782744 -18.621748 0
M  V30 58 H 12.009631 2.950373 -17.818788 0
M  V30 59 H 12.478107 0.732065 -22.001240 0
M  V30 60 H 10.804282 0.322600 -21.724164 0
M  V30 61 H 11.264675 2.010344 -21.984558 0
M  V30 62 H 7.542424 4.618620 -18.139759 0
M  V30 63 H 9.170858 4.246206 -17.634681 0
M  V30 64 H 12.078406 0.842058 -17.371345 0
M  V30 65 H 6.930340 3.806883 -11.723736 0
M  V30 66 H 5.391379 3.862629 -12.197937 0
M  V30 67 H 8.634647 8.334374 -7.568802 0
M  V30 68 H 10.266030 8.404406 -8.282503 0
M  V30 69 H 7.395688 1.708446 -19.870236 0
M  V30 70 H 6.665520 4.104887 -15.852816 0
M  V30 71 H 7.977100 7.524922 -12.323409 0
M  V30 72 H 9.003169 6.270993 -6.686404 0
M  V30 END ATOM
M  V30 BEGIN BOND
M  V30 1 1 5 1
M  V30 2 1 8 7
M  V30 3 1 9 1
M  V30 4 1 10 2
M  V30 5 1 11 9
M  V30 6 2 14 9
M  V30 7 1 15 1
M  V30 8 1 15 5
M  V30 9 1 17 4
M  V30 10 1 17 7
M  V30 11 1 20 10
M  V30 12 1 20 18
M  V30 13 1 1 22 CFG=1
M  V30 14 1 22 12
M  V30 15 1 23 5
M  V30 16 1 24 4
M  V30 17 1 25 3
M  V30 18 1 25 16
M  V30 19 2 25 19
M  V30 20 1 26 15
M  V30 21 2 27 2
M  V30 22 1 27 6
M  V30 23 1 27 19
M  V30 24 2 28 9
M  V30 25 1 29 17
M  V30 26 1 30 16
M  V30 27 1 31 13
M  V30 28 1 31 18
M  V30 29 1 32 4
M  V30 30 1 32 8
M  V30 31 1 32 21
M  V30 32 1 5 33 CFG=1
M  V30 33 1 33 8
M  V30 34 2 34 3
M  V30 35 1 34 24
M  V30 36 1 35 2
M  V30 37 1 36 3
M  V30 38 1 4 37 CFG=3
M  V30 39 1 38 6
M  V30 40 1 39 7
M  V30 41 1 8 40 CFG=3
M  V30 42 1 41 10
M  V30 43 1 42 10
M  V30 44 1 43 12
M  V30 45 1 44 12
M  V30 46 1 45 12
M  V30 47 1 46 13
M  V30 48 1 15 47 CFG=3
M  V30 49 1 48 16
M  V30 50 1 49 16
M  V30 51 1 17 50 CFG=1
M  V30 52 1 51 18
M  V30 53 1 52 20
M  V30 54 1 53 20
M  V30 55 1 54 21
M  V30 56 1 55 21
M  V30 57 1 56 21
M  V30 58 1 57 22
M  V30 59 1 58 22
M  V30 60 1 59 23
M  V30 61 1 60 23
M  V30 62 1 61 23
M  V30 63 1 62 24
M  V30 64 1 63 24
M  V30 65 1 64 26
M  V30 66 1 65 30
M  V30 67 1 66 30
M  V30 68 1 67 31
M  V30 69 1 68 31
M  V30 70 1 32 69 CFG=3
M  V30 71 1 70 34
M  V30 72 1 71 6
M  V30 73 1 72 18
M  V30 END BOND
M  V30 END CTAB
M  END
>  <i_epik_Tot_Q>  (1) 
0

>  <i_epik_Tot_abs_Q>  (1) 
2

>  <i_i_glide_confnum>  (1) 
3653

>  <i_i_glide_lignum>  (1) 
28

>  <i_i_glide_posenum>  (1) 
136

>  <i_i_glide_rotatable_bonds>  (1) 
15

>  <i_lp_mmshare_version>  (1) 
72125

>  <i_m_source_file_index>  (1) 
11

>  <i_f3d_flags>  (1) 
0

>  <num_sample>  (1) 
50

>  <b_lp_Chiralities_Consistent>  (1) 
1

>  <r_epik_Charging_Adjusted_Penalty>  (1) 
0.33639934582642134

>  <r_epik_Ionization_Penalty>  (1) 
0.23315943830934333

>  <r_epik_Ionization_Penalty_Charging>  (1) 
0.10316865490585193

>  <r_epik_Ionization_Penalty_Neutral>  (1) 
0.12999078340349141

>  <r_epik_State_Penalty>  (1) 
0.23323069092056939

>  <r_glide_ring_energy>  (1) 
0

>  <r_i_docking_score>  (1) 
-3.0201937122958147

>  <r_i_glide_ecoul>  (1) 
-6.2012223865495981

>  <r_i_glide_eff_state_penalty>  (1) 
0.23323069092056939

>  <r_i_glide_einternal>  (1) 
6.6157389955547981

>  <r_i_glide_emodel>  (1) 
-37.549913651873673

>  <r_i_glide_emodel_strain>  (1) 
2.6632982677612347

>  <r_i_glide_energy>  (1) 
-34.341122583325649

>  <r_i_glide_erotb>  (1) 
0.82510599487301828

>  <r_i_glide_esite>  (1) 
-0.1676740734717615

>  <r_i_glide_evdw>  (1) 
-28.139900196776054

>  <r_i_glide_gscore>  (1) 
-3.2534244032163842

>  <r_i_glide_gscore_strain>  (1) 
0

>  <r_i_glide_hbond>  (1) 
-0.16

>  <r_i_glide_ligand_efficiency>  (1) 
-0.088829226832229838

>  <r_i_glide_ligand_efficiency_ln>  (1) 
-0.66724550461033572

>  <r_i_glide_ligand_efficiency_sa>  (1) 
-0.28777221154404631

>  <r_i_glide_lipo>  (1) 
-0.85042870087076128

>  <r_i_glide_metal>  (1) 
-0

>  <r_i_glide_rewards>  (1) 
-0.56324925592563679

>  <r_lp_Energy>  (1) 
20.579340999999999

>  <s_epik_Chemistry_Notes>  (1) 
This compound has an imine and may undergo hydrolysis. This compound contains an acetal/aminal-like group ( X-CH(R)-Y where X, Y are N, S, or O) that may be acid/base labile, releasing an aldehyde.

>  <s_epik_cmdline>  (1) 
J2VwaWtfcHl0aG9uJywgJy1waHQnLCAnMS4wJywgJy1waCcsICc3LjQnLCAnLXRuJywgJzgnLCAnLW1hJywgJzUwMCcsICctaW1hZScsICc8aW5maWxlLm1hZT4nLCAnLW9tYWUnLCAnPG91dGZpbGUubWFlPic=

>  <s_epik_input>  (1) 
W1NIXVMoPU8pKD1PKVtDQEBdMShbQ0gyXVtDSDNdKVtDQEBdKFtDSDNdKShbQ0BASF0xW09IXSlPW0NASF0oW0NAQEhdMltDSDNdKVtOSF1bQ0BASF0oRilbQ0BIXTJbQ0gyXVxbQ0hdPVtDSF1cQyhbQ0gyXVtOSDJdKT1OXEMoPU5cW0hdKVxbQ0gyXVtDSDJdW0NIMl1bTkhdW0NIMl1bT0hd

>  <s_glide_docking_method>  (1) 
confgen

>  <s_i_glide_gridfile>  (1) 
gpcr_drd2_6luq_protein_autoprepared_prepared

>  <s_lp_Force_Field>  (1) 
S-OPLS

>  <s_lp_Variant>  (1) 
DiffSBDD_10_num_sample_50-8

>  <s_m_source_file>  (1) 
generated__ligand_DiffSBDD_2026-05-06_prepared.sdf

>  <GenAI_Model>  (1) 
DiffSBDD

>  <Protein>  (1) 
generic_title2

$$$$
DiffSBDD_10_num_sample_50
     RDKit          3D

  0  0  0  0  0  0  0  0  0  0999 V3000
M  V30 BEGIN CTAB
M  V30 COUNTS 71 72 0 0 1
M  V30 BEGIN ATOM
M  V30 1 C 8.392645 4.916331 -17.833402 0 CFG=2
M  V30 2 C 11.284313 8.752406 -6.518312 0
M  V30 3 C 9.571871 7.838498 -9.987167 0
M  V30 4 C 8.319343 5.392490 -12.514125 0 CFG=1
M  V30 5 C 7.184392 5.092517 -16.886084 0 CFG=2
M  V30 6 N 9.896078 6.895098 -7.173902 0
M  V30 7 N 7.701911 3.713203 -14.051590 0
M  V30 8 C 7.022032 4.886987 -14.481014 0 CFG=1
M  V30 9 S 8.152502 5.445187 -19.621700 0
M  V30 10 C 10.639763 8.946257 -5.191068 0
M  V30 11 S 8.687029 3.629558 -20.578290 0 CHG=-1
M  V30 12 C 10.908162 4.316081 -18.093422 0
M  V30 13 O 12.234898 8.969321 -1.610781 0
M  V30 14 O 6.738543 5.686298 -19.943426 0
M  V30 15 C 7.514303 3.732192 -17.483864 0 CFG=2
M  V30 16 C 11.928368 7.592055 -10.959150 0
M  V30 17 C 8.839952 4.168422 -13.274735 0 CFG=2
M  V30 18 N 12.665398 9.332088 -3.832663 0
M  V30 19 N 11.553106 7.689991 -8.596536 0
M  V30 20 C 11.393756 9.897844 -4.260920 0
M  V30 21 C 7.020107 7.354397 -13.812353 0
M  V30 22 C 9.833717 5.107561 -17.334021 0
M  V30 23 C 5.907124 5.858379 -17.206995 0
M  V30 24 C 9.421484 6.405660 -12.125330 0
M  V30 25 C 11.038929 7.687177 -9.762540 0
M  V30 26 O 8.159164 2.782349 -16.654850 0
M  V30 27 C 10.912295 7.812444 -7.387329 0
M  V30 28 O 9.168981 6.450242 -19.969665 0
M  V30 29 F 9.237854 3.214570 -12.436610 0
M  V30 30 N 13.034842 8.531716 -10.702931 0
M  V30 31 C 12.523908 8.300397 -2.815418 0
M  V30 32 C 7.094936 5.892653 -13.326231 0 CFG=2
M  V30 33 O 7.675792 5.432153 -15.588996 0
M  V30 34 C 8.879928 7.304534 -11.029062 0
M  V30 35 H 12.091760 9.424646 -6.770875 0
M  V30 36 H 9.051195 8.419529 -9.239414 0
M  V30 37 H 7.911822 5.000901 -11.579074 0
M  V30 38 H 9.271111 6.979929 -6.384070 0
M  V30 39 H 8.001352 3.165650 -14.857363 0
M  V30 40 H 5.988537 4.647488 -14.731505 0
M  V30 41 H 10.460130 7.971409 -4.741559 0
M  V30 42 H 9.692870 9.369297 -5.491670 0
M  V30 43 H 10.995432 4.643362 -19.129015 0
M  V30 44 H 10.690956 3.247694 -18.092333 0
M  V30 45 H 11.884464 4.455090 -17.628774 0
M  V30 46 H 12.857430 9.679559 -1.505301 0
M  V30 47 H 6.863541 3.299018 -18.240840 0
M  V30 48 H 12.234841 6.569327 -11.091578 0
M  V30 49 H 11.405519 7.769296 -11.885453 0
M  V30 50 H 9.671031 4.431900 -13.929660 0
M  V30 51 H 13.130107 8.945611 -4.641958 0
M  V30 52 H 10.783692 10.169229 -3.400099 0
M  V30 53 H 11.581061 10.821050 -4.807143 0
M  V30 54 H 7.834846 7.619665 -14.478145 0
M  V30 55 H 6.092588 7.527291 -14.357505 0
M  V30 56 H 7.034947 8.052008 -12.979590 0
M  V30 57 H 10.071388 6.169313 -17.376834 0
M  V30 58 H 9.899488 4.826532 -16.283600 0
M  V30 59 H 5.352297 5.375460 -18.009893 0
M  V30 60 H 5.240694 5.894739 -16.346241 0
M  V30 61 H 6.143882 6.883139 -17.493989 0
M  V30 62 H 9.728166 6.969313 -12.998255 0
M  V30 63 H 10.266698 5.823944 -11.767831 0
M  V30 64 H 8.727389 2.265548 -17.208646 0
M  V30 65 H 12.697581 9.483937 -10.668735 0
M  V30 66 H 13.393916 8.346807 -9.775485 0
M  V30 67 H 13.464498 7.765369 -2.702871 0
M  V30 68 H 11.761556 7.559713 -3.053234 0
M  V30 69 H 6.211705 5.714914 -12.709761 0
M  V30 70 H 7.834521 7.510314 -11.091679 0
M  V30 71 H 9.572072 6.297779 -7.921785 0
M  V30 END ATOM
M  V30 BEGIN BOND
M  V30 1 1 5 1
M  V30 2 1 8 7
M  V30 3 1 9 1
M  V30 4 1 10 2
M  V30 5 1 11 9
M  V30 6 2 14 9
M  V30 7 1 15 1
M  V30 8 1 15 5
M  V30 9 1 17 4
M  V30 10 1 17 7
M  V30 11 1 20 10
M  V30 12 1 20 18
M  V30 13 1 1 22 CFG=1
M  V30 14 1 22 12
M  V30 15 1 23 5
M  V30 16 1 24 4
M  V30 17 1 25 3
M  V30 18 1 25 16
M  V30 19 2 25 19
M  V30 20 1 26 15
M  V30 21 2 27 2
M  V30 22 1 27 6
M  V30 23 1 27 19
M  V30 24 2 28 9
M  V30 25 1 29 17
M  V30 26 1 30 16
M  V30 27 1 31 13
M  V30 28 1 31 18
M  V30 29 1 32 4
M  V30 30 1 32 8
M  V30 31 1 32 21
M  V30 32 1 5 33 CFG=1
M  V30 33 1 33 8
M  V30 34 2 34 3
M  V30 35 1 34 24
M  V30 36 1 35 2
M  V30 37 1 36 3
M  V30 38 1 4 37 CFG=1
M  V30 39 1 38 6
M  V30 40 1 39 7
M  V30 41 1 8 40 CFG=3
M  V30 42 1 41 10
M  V30 43 1 42 10
M  V30 44 1 43 12
M  V30 45 1 44 12
M  V30 46 1 45 12
M  V30 47 1 46 13
M  V30 48 1 15 47 CFG=3
M  V30 49 1 48 16
M  V30 50 1 49 16
M  V30 51 1 17 50 CFG=3
M  V30 52 1 51 18
M  V30 53 1 52 20
M  V30 54 1 53 20
M  V30 55 1 54 21
M  V30 56 1 55 21
M  V30 57 1 56 21
M  V30 58 1 57 22
M  V30 59 1 58 22
M  V30 60 1 59 23
M  V30 61 1 60 23
M  V30 62 1 61 23
M  V30 63 1 62 24
M  V30 64 1 63 24
M  V30 65 1 64 26
M  V30 66 1 65 30
M  V30 67 1 66 30
M  V30 68 1 67 31
M  V30 69 1 68 31
M  V30 70 1 32 69 CFG=1
M  V30 71 1 70 34
M  V30 72 1 71 6
M  V30 END BOND
M  V30 END CTAB
M  END
>  <i_epik_Tot_Q>  (1) 
-1

>  <i_epik_Tot_abs_Q>  (1) 
1

>  <i_i_glide_confnum>  (1) 
4455

>  <i_i_glide_lignum>  (1) 
41

>  <i_i_glide_posenum>  (1) 
15

>  <i_i_glide_rotatable_bonds>  (1) 
15

>  <i_lp_mmshare_version>  (1) 
72125

>  <i_m_source_file_index>  (1) 
11

>  <i_f3d_flags>  (1) 
0

>  <num_sample>  (1) 
50

>  <b_lp_Chiralities_Consistent>  (1) 
1

>  <r_epik_Charging_Adjusted_Penalty>  (1) 
1.239197207418439

>  <r_epik_Ionization_Penalty>  (1) 
1.2496715491914541

>  <r_epik_Ionization_Penalty_Charging>  (1) 
1.1069707349969355e-11

>  <r_epik_Ionization_Penalty_Neutral>  (1) 
1.2496715491803843

>  <r_epik_State_Penalty>  (1) 
1.2391972074073692

>  <r_glide_ring_energy>  (1) 
0

>  <r_i_docking_score>  (1) 
-2.9983640505064058

>  <r_i_glide_ecoul>  (1) 
-3.576226057027089

>  <r_i_glide_eff_state_penalty>  (1) 
1.2391972074073692

>  <r_i_glide_einternal>  (1) 
32.681153600294039

>  <r_i_glide_emodel>  (1) 
-20.154856063155023

>  <r_i_glide_emodel_strain>  (1) 
3.1960872511779854

>  <r_i_glide_energy>  (1) 
-28.893789875456314

>  <r_i_glide_erotb>  (1) 
0.82803537691766171

>  <r_i_glide_esite>  (1) 
0

>  <r_i_glide_evdw>  (1) 
-25.317563818429225

>  <r_i_glide_gscore>  (1) 
-4.2375612579137751

>  <r_i_glide_gscore_strain>  (1) 
0

>  <r_i_glide_hbond>  (1) 
-0.32762152721833843

>  <r_i_glide_ligand_efficiency>  (1) 
-0.088187177956070756

>  <r_i_glide_ligand_efficiency_ln>  (1) 
-0.66242272001978209

>  <r_i_glide_ligand_efficiency_sa>  (1) 
-0.28569222242784442

>  <r_i_glide_lipo>  (1) 
-1.7080787695268709

>  <r_i_glide_metal>  (1) 
-0

>  <r_i_glide_rewards>  (1) 
-1.227584238610703

>  <r_lp_Energy>  (1) 
23.213093000000001

>  <s_epik_Chemistry_Notes>  (1) 
This compound has an imine and may undergo hydrolysis. This compound contains an acetal/aminal-like group ( X-CH(R)-Y where X, Y are N, S, or O) that may be acid/base labile, releasing an aldehyde.

>  <s_epik_cmdline>  (1) 
J2VwaWtfcHl0aG9uJywgJy1waHQnLCAnMS4wJywgJy1waCcsICc3LjQnLCAnLXRuJywgJzgnLCAnLW1hJywgJzUwMCcsICctaW1hZScsICc8aW5maWxlLm1hZT4nLCAnLW9tYWUnLCAnPG91dGZpbGUubWFlPic=

>  <s_epik_input>  (1) 
W1NIXVMoPU8pKD1PKVtDQEBdMShbQ0gyXVtDSDNdKVtDQEBdKFtDSDNdKShbQ0BASF0xW09IXSlPW0NASF0oW0NAQEhdMltDSDNdKVtOSF1bQ0BASF0oRilbQ0BIXTJbQ0gyXS9bQ0hdPVtDSF1cQyhbQ0gyXVtOSDJdKT1OL0MoPU4vW0hdKS9bQ0gyXVtDSDJdW0NIMl1bTkhdW0NIMl1bT0hd

>  <s_glide_docking_method>  (1) 
confgen

>  <s_i_glide_gridfile>  (1) 
gpcr_drd2_6luq_protein_autoprepared_prepared

>  <s_lp_Force_Field>  (1) 
S-OPLS

>  <s_lp_Variant>  (1) 
DiffSBDD_10_num_sample_50-21

>  <s_m_source_file>  (1) 
generated__ligand_DiffSBDD_2026-05-06_prepared.sdf

>  <GenAI_Model>  (1) 
DiffSBDD

>  <Protein>  (1) 
generic_title2

$$$$
DiffSBDD_10_num_sample_50
     RDKit          3D

  0  0  0  0  0  0  0  0  0  0999 V3000
M  V30 BEGIN CTAB
M  V30 COUNTS 72 73 0 0 1
M  V30 BEGIN ATOM
M  V30 1 C 13.443120 5.293830 -17.691441 0 CFG=2
M  V30 2 C 9.122582 6.927137 -12.691669 0
M  V30 3 C 5.705528 5.822313 -15.394272 0
M  V30 4 C 7.736669 4.416020 -18.102001 0 CFG=1
M  V30 5 C 12.376985 4.179353 -17.586305 0 CFG=2
M  V30 6 N 9.394481 4.563009 -13.091693 0
M  V30 7 N 9.554793 3.320325 -17.091709 0
M  V30 8 C 10.068787 3.744832 -18.359547 0 CFG=1
M  V30 9 S 15.237488 4.757948 -17.500058 0
M  V30 10 C 10.117426 7.020917 -11.557934 0
M  V30 11 S 15.435901 3.555102 -19.229738 0 CHG=-1
M  V30 12 C 13.652809 7.867072 -17.881873 0
M  V30 13 O 12.389792 8.169314 -9.622313 0
M  V30 14 O 16.134018 5.908391 -17.687558 0
M  V30 15 C 12.676802 5.069872 -16.400694 0 CFG=2
M  V30 16 C 6.031310 5.945820 -12.850663 0
M  V30 17 C 8.114861 3.217381 -17.216258 0 CFG=1
M  V30 18 N 10.350671 7.426105 -9.081129 0 CHG=1
M  V30 19 N 7.919380 5.769289 -14.396364 0
M  V30 20 C 9.434837 7.387724 -10.240761 0
M  V30 21 C 9.316095 5.851155 -19.672484 0
M  V30 22 C 13.281880 6.541027 -18.566160 0
M  V30 23 C 12.669838 2.679041 -17.601725 0
M  V30 24 C 7.465186 5.720012 -17.308403 0
M  V30 25 C 6.661885 5.839106 -14.239746 0
M  V30 26 O 11.584207 5.931087 -16.164767 0
M  V30 27 C 8.832830 5.789661 -13.354351 0
M  V30 28 O 15.414201 3.888192 -16.325838 0
M  V30 29 F 7.534697 3.181391 -16.018973 0
M  V30 30 N 6.094802 4.687551 -12.129456 0
M  V30 31 C 11.214289 8.621492 -8.986000 0
M  V30 32 C 8.921576 4.472438 -19.100433 0 CFG=2
M  V30 33 O 11.168960 4.600296 -18.251562 0
M  V30 34 C 6.049039 5.769323 -16.716518 0
M  V30 35 H 8.627077 7.845538 -12.971409 0
M  V30 36 H 4.664853 5.853994 -15.116730 0
M  V30 37 H 6.828514 4.178417 -18.658070 0
M  V30 38 H 10.204661 4.482737 -12.495588 0
M  V30 39 H 9.963323 2.455394 -16.770054 0
M  V30 40 H 10.370966 2.870482 -18.938191 0
M  V30 41 H 10.861618 7.766487 -11.824459 0
M  V30 42 H 10.634843 6.075350 -11.471177 0
M  V30 43 H 13.532999 8.694091 -18.581503 0
M  V30 44 H 13.006729 8.071118 -17.027995 0
M  V30 45 H 14.681790 7.889874 -17.529971 0
M  V30 46 H 12.922361 8.921034 -9.851527 0
M  V30 47 H 13.196908 4.710434 -15.517872 0
M  V30 48 H 6.527074 6.721512 -12.266867 0
M  V30 49 H 5.000205 6.264977 -12.938595 0
M  V30 50 H 7.865964 2.281800 -17.719349 0
M  V30 51 H 10.922407 6.594890 -9.057901 0
M  V30 52 H 8.665733 6.640542 -10.032048 0
M  V30 53 H 8.938509 8.353379 -10.337554 0
M  V30 54 H 9.639186 6.541197 -18.891989 0
M  V30 55 H 10.135089 5.757171 -20.386303 0
M  V30 56 H 8.478308 6.309651 -20.197655 0
M  V30 57 H 13.890087 6.406311 -19.461018 0
M  V30 58 H 12.254310 6.621197 -18.916431 0
M  V30 59 H 13.601422 2.441497 -17.095712 0
M  V30 60 H 11.892078 2.116533 -17.091649 0
M  V30 61 H 12.740097 2.321396 -18.628769 0
M  V30 62 H 7.456287 6.560405 -18.000205 0
M  V30 63 H 8.313069 5.921177 -16.670632 0
M  V30 64 H 10.945852 5.715673 -16.835018 0
M  V30 65 H 7.067203 4.408744 -12.088657 0
M  V30 66 H 5.807296 4.837415 -11.171930 0
M  V30 67 H 11.423570 8.875564 -7.946223 0
M  V30 68 H 10.788321 9.487283 -9.491620 0
M  V30 69 H 8.663251 3.833456 -19.946538 0
M  V30 70 H 5.251558 5.760855 -17.444901 0
M  V30 71 H 9.235977 3.785529 -13.715791 0
M  V30 72 H 9.747533 7.424388 -8.269323 0
M  V30 END ATOM
M  V30 BEGIN BOND
M  V30 1 1 5 1
M  V30 2 1 8 7
M  V30 3 1 9 1
M  V30 4 1 10 2
M  V30 5 1 11 9
M  V30 6 2 14 9
M  V30 7 1 15 1
M  V30 8 1 15 5
M  V30 9 1 17 4
M  V30 10 1 17 7
M  V30 11 1 20 10
M  V30 12 1 20 18
M  V30 13 1 1 22 CFG=3
M  V30 14 1 22 12
M  V30 15 1 23 5
M  V30 16 1 24 4
M  V30 17 1 25 3
M  V30 18 1 25 16
M  V30 19 2 25 19
M  V30 20 1 26 15
M  V30 21 2 27 2
M  V30 22 1 27 6
M  V30 23 1 27 19
M  V30 24 2 28 9
M  V30 25 1 29 17
M  V30 26 1 30 16
M  V30 27 1 31 13
M  V30 28 1 31 18
M  V30 29 1 32 4
M  V30 30 1 32 8
M  V30 31 1 32 21
M  V30 32 1 5 33 CFG=3
M  V30 33 1 33 8
M  V30 34 2 34 3
M  V30 35 1 34 24
M  V30 36 1 35 2
M  V30 37 1 36 3
M  V30 38 1 4 37 CFG=3
M  V30 39 1 38 6
M  V30 40 1 39 7
M  V30 41 1 8 40 CFG=3
M  V30 42 1 41 10
M  V30 43 1 42 10
M  V30 44 1 43 12
M  V30 45 1 44 12
M  V30 46 1 45 12
M  V30 47 1 46 13
M  V30 48 1 15 47 CFG=1
M  V30 49 1 48 16
M  V30 50 1 49 16
M  V30 51 1 17 50 CFG=3
M  V30 52 1 51 18
M  V30 53 1 52 20
M  V30 54 1 53 20
M  V30 55 1 54 21
M  V30 56 1 55 21
M  V30 57 1 56 21
M  V30 58 1 57 22
M  V30 59 1 58 22
M  V30 60 1 59 23
M  V30 61 1 60 23
M  V30 62 1 61 23
M  V30 63 1 62 24
M  V30 64 1 63 24
M  V30 65 1 64 26
M  V30 66 1 65 30
M  V30 67 1 66 30
M  V30 68 1 67 31
M  V30 69 1 68 31
M  V30 70 1 32 69 CFG=3
M  V30 71 1 70 34
M  V30 72 1 71 6
M  V30 73 1 72 18
M  V30 END BOND
M  V30 END CTAB
M  END
>  <i_epik_Tot_Q>  (1) 
0

>  <i_epik_Tot_abs_Q>  (1) 
2

>  <i_i_glide_confnum>  (1) 
3966

>  <i_i_glide_lignum>  (1) 
23

>  <i_i_glide_posenum>  (1) 
323

>  <i_i_glide_rotatable_bonds>  (1) 
15

>  <i_lp_mmshare_version>  (1) 
72125

>  <i_m_source_file_index>  (1) 
11

>  <i_f3d_flags>  (1) 
0

>  <num_sample>  (1) 
50

>  <b_lp_Chiralities_Consistent>  (1) 
1

>  <r_epik_Charging_Adjusted_Penalty>  (1) 
0.33639934582642134

>  <r_epik_Ionization_Penalty>  (1) 
0.23315943830934333

>  <r_epik_Ionization_Penalty_Charging>  (1) 
0.10316865490585193

>  <r_epik_Ionization_Penalty_Neutral>  (1) 
0.12999078340349141

>  <r_epik_State_Penalty>  (1) 
0.23323069092056939

>  <r_glide_ring_energy>  (1) 
0

>  <r_i_docking_score>  (1) 
-2.9982255902726629

>  <r_i_glide_ecoul>  (1) 
-4.9034374593075007

>  <r_i_glide_eff_state_penalty>  (1) 
0.23323069092056939

>  <r_i_glide_einternal>  (1) 
11.46581491351807

>  <r_i_glide_emodel>  (1) 
-37.014111419403683

>  <r_i_glide_emodel_strain>  (1) 
1.3135157856188471

>  <r_i_glide_energy>  (1) 
-34.136202543321119

>  <r_i_glide_erotb>  (1) 
0.82510599487301828

>  <r_i_glide_esite>  (1) 
-0.05679958244645307

>  <r_i_glide_evdw>  (1) 
-29.232765084013614

>  <r_i_glide_gscore>  (1) 
-3.2314562811932324

>  <r_i_glide_gscore_strain>  (1) 
0

>  <r_i_glide_hbond>  (1) 
-0.028066063928699991

>  <r_i_glide_ligand_efficiency>  (1) 
-0.088183105596254793

>  <r_i_glide_ligand_efficiency_ln>  (1) 
-0.66239213027047028

>  <r_i_glide_ligand_efficiency_sa>  (1) 
-0.28567902956292557

>  <r_i_glide_lipo>  (1) 
-0.77235753268595975

>  <r_i_glide_metal>  (1) 
-0

>  <r_i_glide_rewards>  (1) 
-1.002185223908332

>  <r_lp_Energy>  (1) 
24.577817

>  <s_epik_Chemistry_Notes>  (1) 
This compound has an imine and may undergo hydrolysis. This compound contains an acetal/aminal-like group ( X-CH(R)-Y where X, Y are N, S, or O) that may be acid/base labile, releasing an aldehyde.

>  <s_epik_cmdline>  (1) 
J2VwaWtfcHl0aG9uJywgJy1waHQnLCAnMS4wJywgJy1waCcsICc3LjQnLCAnLXRuJywgJzgnLCAnLW1hJywgJzUwMCcsICctaW1hZScsICc8aW5maWxlLm1hZT4nLCAnLW9tYWUnLCAnPG91dGZpbGUubWFlPic=

>  <s_epik_input>  (1) 
W1NIXVMoPU8pKD1PKVtDQEBdMShbQ0gyXVtDSDNdKVtDQEBdKFtDSDNdKShbQ0BASF0xW09IXSlPW0NASF0oW0NAQEhdMltDSDNdKVtOSF1bQ0BASF0oRilbQ0BIXTJbQ0gyXS9bQ0hdPVtDSF1cQyhbQ0gyXVtOSDJdKT1OXEMoPU5cW0hdKVxbQ0gyXVtDSDJdW0NIMl1bTkhdW0NIMl1bT0hd

>  <s_glide_docking_method>  (1) 
confgen

>  <s_i_glide_gridfile>  (1) 
gpcr_drd2_6luq_protein_autoprepared_prepared

>  <s_lp_Force_Field>  (1) 
S-OPLS

>  <s_lp_Variant>  (1) 
DiffSBDD_10_num_sample_50-3

>  <s_m_source_file>  (1) 
generated__ligand_DiffSBDD_2026-05-06_prepared.sdf

>  <GenAI_Model>  (1) 
DiffSBDD

>  <Protein>  (1) 
generic_title2

$$$$
DiffSBDD_10_num_sample_50
     RDKit          3D

  0  0  0  0  0  0  0  0  0  0999 V3000
M  V30 BEGIN CTAB
M  V30 COUNTS 71 72 0 0 1
M  V30 BEGIN ATOM
M  V30 1 C 13.694706 1.390258 -19.148482 0 CFG=2
M  V30 2 C 5.908717 5.505692 -13.473072 0
M  V30 3 C 7.663603 3.345734 -14.533486 0
M  V30 4 C 8.808058 3.295610 -18.038409 0 CFG=1
M  V30 5 C 12.489916 1.789527 -20.042996 0 CFG=2
M  V30 6 N 6.054922 4.902162 -11.138009 0
M  V30 7 N 9.519485 1.811234 -19.746680 0
M  V30 8 C 10.363004 2.966743 -19.832776 0 CFG=1
M  V30 9 S 15.268892 0.977189 -20.091851 0
M  V30 10 C 5.922607 7.007619 -13.254178 0
M  V30 11 S 15.812034 2.943422 -20.687567 0 CHG=-1
M  V30 12 C 14.720607 1.132102 -16.717156 0
M  V30 13 O 9.433918 7.808193 -10.279281 0
M  V30 14 O 16.307187 0.513055 -19.164380 0
M  V30 15 C 12.596399 0.392405 -19.466837 0 CFG=2
M  V30 16 C 6.694058 1.062711 -13.753798 0
M  V30 17 C 8.987647 1.811802 -18.402062 0 CFG=2
M  V30 18 N 7.976476 7.196675 -11.890642 0
M  V30 19 N 6.034451 3.205410 -12.729028 0
M  V30 20 C 7.384780 7.492855 -13.189156 0
M  V30 21 C 10.714476 5.132451 -18.467244 0
M  V30 22 C 13.925363 1.974143 -17.736631 0
M  V30 23 C 12.551637 2.071400 -21.547041 0
M  V30 24 C 9.092247 3.604190 -16.569145 0
M  V30 25 C 6.750069 2.597417 -13.610708 0
M  V30 26 O 11.730956 0.160623 -18.377141 0
M  V30 27 C 5.993991 4.587659 -12.479684 0
M  V30 28 O 14.971243 0.178042 -21.291417 0
M  V30 29 F 7.857414 1.114003 -18.328839 0
M  V30 30 N 5.374953 0.525889 -13.479862 0
M  V30 31 C 9.248005 7.855456 -11.672037 0
M  V30 32 C 9.709016 4.081627 -19.008928 0 CFG=2
M  V30 33 O 11.640752 2.694604 -19.320135 0
M  V30 34 C 8.206789 2.818862 -15.638209 0
M  V30 35 H 5.843419 5.173942 -14.502872 0
M  V30 36 H 7.860702 4.371389 -14.274722 0
M  V30 37 H 7.773042 3.570984 -18.249328 0
M  V30 38 H 5.932709 5.851832 -10.815994 0
M  V30 39 H 10.030332 0.951672 -19.904350 0
M  V30 40 H 10.433434 3.324133 -20.857394 0
M  V30 41 H 5.366268 7.302334 -12.363242 0
M  V30 42 H 5.423170 7.489317 -14.093678 0
M  V30 43 H 14.754207 1.672590 -15.778613 0
M  V30 44 H 14.270871 0.156434 -16.531421 0
M  V30 45 H 15.768500 0.987134 -16.957344 0
M  V30 46 H 8.544114 7.769306 -9.883376 0
M  V30 47 H 12.766404 -0.458806 -20.126820 0
M  V30 48 H 6.967651 0.691159 -14.733293 0
M  V30 49 H 7.405886 0.633021 -13.056969 0
M  V30 50 H 9.706359 1.345392 -17.735495 0
M  V30 51 H 7.339359 7.455939 -11.146625 0
M  V30 52 H 7.446093 8.565057 -13.339798 0
M  V30 53 H 7.970884 7.036502 -13.981939 0
M  V30 54 H 11.449090 4.696232 -17.791602 0
M  V30 55 H 11.255448 5.612509 -19.283557 0
M  V30 56 H 10.201430 5.929107 -17.929751 0
M  V30 57 H 14.408021 2.943960 -17.848050 0
M  V30 58 H 12.954561 2.162041 -17.278721 0
M  V30 59 H 13.068549 1.294473 -22.103628 0
M  V30 60 H 11.562103 2.108695 -21.994774 0
M  V30 61 H 13.044836 3.026919 -21.725218 0
M  V30 62 H 8.942164 4.670478 -16.371779 0
M  V30 63 H 10.128022 3.386834 -16.334417 0
M  V30 64 H 11.709982 0.964068 -17.877298 0
M  V30 65 H 5.394757 -0.491186 -13.491989 0
M  V30 66 H 5.121438 0.781128 -12.535131 0
M  V30 67 H 9.201847 8.895462 -11.982181 0
M  V30 68 H 10.065472 7.370857 -12.201019 0
M  V30 69 H 9.040837 4.611502 -19.692382 0
M  V30 70 H 8.017529 1.794490 -15.908767 0
M  V30 71 H 5.995328 4.186645 -10.428914 0
M  V30 END ATOM
M  V30 BEGIN BOND
M  V30 1 1 5 1
M  V30 2 1 8 7
M  V30 3 1 9 1
M  V30 4 1 10 2
M  V30 5 1 11 9
M  V30 6 2 14 9
M  V30 7 1 15 1
M  V30 8 1 15 5
M  V30 9 1 17 4
M  V30 10 1 17 7
M  V30 11 1 20 10
M  V30 12 1 20 18
M  V30 13 1 1 22 CFG=1
M  V30 14 1 22 12
M  V30 15 1 23 5
M  V30 16 1 24 4
M  V30 17 1 25 3
M  V30 18 1 25 16
M  V30 19 2 25 19
M  V30 20 1 26 15
M  V30 21 2 27 2
M  V30 22 1 27 6
M  V30 23 1 27 19
M  V30 24 2 28 9
M  V30 25 1 29 17
M  V30 26 1 30 16
M  V30 27 1 31 13
M  V30 28 1 31 18
M  V30 29 1 32 4
M  V30 30 1 32 8
M  V30 31 1 32 21
M  V30 32 1 5 33 CFG=1
M  V30 33 1 33 8
M  V30 34 2 34 3
M  V30 35 1 34 24
M  V30 36 1 35 2
M  V30 37 1 36 3
M  V30 38 1 4 37 CFG=3
M  V30 39 1 38 6
M  V30 40 1 39 7
M  V30 41 1 8 40 CFG=3
M  V30 42 1 41 10
M  V30 43 1 42 10
M  V30 44 1 43 12
M  V30 45 1 44 12
M  V30 46 1 45 12
M  V30 47 1 46 13
M  V30 48 1 15 47 CFG=3
M  V30 49 1 48 16
M  V30 50 1 49 16
M  V30 51 1 17 50 CFG=1
M  V30 52 1 51 18
M  V30 53 1 52 20
M  V30 54 1 53 20
M  V30 55 1 54 21
M  V30 56 1 55 21
M  V30 57 1 56 21
M  V30 58 1 57 22
M  V30 59 1 58 22
M  V30 60 1 59 23
M  V30 61 1 60 23
M  V30 62 1 61 23
M  V30 63 1 62 24
M  V30 64 1 63 24
M  V30 65 1 64 26
M  V30 66 1 65 30
M  V30 67 1 66 30
M  V30 68 1 67 31
M  V30 69 1 68 31
M  V30 70 1 32 69 CFG=3
M  V30 71 1 70 34
M  V30 72 1 71 6
M  V30 END BOND
M  V30 END CTAB
M  END
>  <i_epik_Tot_Q>  (1) 
-1

>  <i_epik_Tot_abs_Q>  (1) 
1

>  <i_i_glide_confnum>  (1) 
4368

>  <i_i_glide_lignum>  (1) 
42

>  <i_i_glide_posenum>  (1) 
367

>  <i_i_glide_rotatable_bonds>  (1) 
15

>  <i_lp_mmshare_version>  (1) 
72125

>  <i_m_source_file_index>  (1) 
11

>  <i_f3d_flags>  (1) 
0

>  <num_sample>  (1) 
50

>  <b_lp_Chiralities_Consistent>  (1) 
1

>  <r_epik_Charging_Adjusted_Penalty>  (1) 
1.239197207418439

>  <r_epik_Ionization_Penalty>  (1) 
1.2496715491914541

>  <r_epik_Ionization_Penalty_Charging>  (1) 
1.1069707349969355e-11

>  <r_epik_Ionization_Penalty_Neutral>  (1) 
1.2496715491803843

>  <r_epik_State_Penalty>  (1) 
1.2391972074073692

>  <r_glide_ring_energy>  (1) 
0

>  <r_i_docking_score>  (1) 
-2.9977563004916528

>  <r_i_glide_ecoul>  (1) 
-11.911177778935164

>  <r_i_glide_eff_state_penalty>  (1) 
1.2391972074073692

>  <r_i_glide_einternal>  (1) 
4.3423870707071508

>  <r_i_glide_emodel>  (1) 
-45.707697147007416

>  <r_i_glide_emodel_strain>  (1) 
2.9924133035171536

>  <r_i_glide_energy>  (1) 
-39.398869578939788

>  <r_i_glide_erotb>  (1) 
0.82803537691766171

>  <r_i_glide_esite>  (1) 
-0.15596190388917752

>  <r_i_glide_evdw>  (1) 
-27.487691800004622

>  <r_i_glide_gscore>  (1) 
-4.2369535078990221

>  <r_i_glide_gscore_strain>  (1) 
0

>  <r_i_glide_hbond>  (1) 
-0.40942807651976376

>  <r_i_glide_ligand_efficiency>  (1) 
-0.088169302955636852

>  <r_i_glide_ligand_efficiency_ln>  (1) 
-0.66228845099471267

>  <r_i_glide_ligand_efficiency_sa>  (1) 
-0.28563431436549086

>  <r_i_glide_lipo>  (1) 
-1.028212978308489

>  <r_i_glide_metal>  (1) 
-0

>  <r_i_glide_rewards>  (1) 
-0.31032466925874802

>  <r_lp_Energy>  (1) 
16.483426999999999

>  <s_epik_Chemistry_Notes>  (1) 
This compound has an imine and may undergo hydrolysis. This compound contains an acetal/aminal-like group ( X-CH(R)-Y where X, Y are N, S, or O) that may be acid/base labile, releasing an aldehyde.

>  <s_epik_cmdline>  (1) 
J2VwaWtfcHl0aG9uJywgJy1waHQnLCAnMS4wJywgJy1waCcsICc3LjQnLCAnLXRuJywgJzgnLCAnLW1hJywgJzUwMCcsICctaW1hZScsICc8aW5maWxlLm1hZT4nLCAnLW9tYWUnLCAnPG91dGZpbGUubWFlPic=

>  <s_epik_input>  (1) 
W1NIXVMoPU8pKD1PKVtDQEBdMShbQ0gyXVtDSDNdKVtDQEBdKFtDSDNdKShbQ0BASF0xW09IXSlPW0NASF0oW0NAQEhdMltDSDNdKVtOSF1bQ0BASF0oRilbQ0BIXTJbQ0gyXVxbQ0hdPVtDSF1cQyhbQ0gyXVtOSDJdKT1OL0MoPU4vW0hdKS9bQ0gyXVtDSDJdW0NIMl1bTkhdW0NIMl1bT0hd

>  <s_glide_docking_method>  (1) 
confgen

>  <s_i_glide_gridfile>  (1) 
gpcr_drd2_6luq_protein_autoprepared_prepared

>  <s_lp_Force_Field>  (1) 
S-OPLS

>  <s_lp_Variant>  (1) 
DiffSBDD_10_num_sample_50-22

>  <s_m_source_file>  (1) 
generated__ligand_DiffSBDD_2026-05-06_prepared.sdf

>  <GenAI_Model>  (1) 
DiffSBDD

>  <Protein>  (1) 
generic_title2

$$$$
DiffSBDD_44_num_sample_50
     RDKit          3D

  0  0  0  0  0  0  0  0  0  0999 V3000
M  V30 BEGIN CTAB
M  V30 COUNTS 61 64 0 0 1
M  V30 BEGIN ATOM
M  V30 1 C 14.058886 5.052505 -17.673311 0
M  V30 2 C 6.534993 5.223737 -13.216121 0 CFG=1
M  V30 3 C 8.063027 7.030242 -12.291667 0
M  V30 4 C 11.653934 4.435617 -17.219635 0 CFG=1
M  V30 5 C 14.059946 3.995505 -18.781495 0
M  V30 6 C 9.280226 4.775623 -10.632102 0
M  V30 7 C 12.640664 5.612603 -17.448933 0 CFG=1
M  V30 8 O 13.417230 7.769301 -16.621913 0
M  V30 9 N 9.330838 3.653799 -17.108194 0
M  V30 10 C 13.020583 2.893737 -18.514827 0 CFG=2
M  V30 11 C 5.789367 6.325254 -14.028194 0
M  V30 12 O 10.456981 6.948934 -11.632647 0
M  V30 13 C 10.171741 4.857005 -17.135395 0
M  V30 14 C 7.809958 4.653279 -15.402691 0 CFG=2
M  V30 15 O 7.552140 2.468430 -16.386155 0
M  V30 16 C 8.601305 4.626676 -11.767535 0
M  V30 17 C 9.150149 7.632005 -11.706734 0
M  V30 18 C 12.652272 6.628338 -16.286770 0
M  V30 19 C 9.723551 7.181989 -10.623458 0
M  V30 20 O 11.747685 3.502742 -18.301062 0
M  V30 21 C 9.278093 6.011499 -9.816134 0
M  V30 22 C 13.404456 1.937230 -17.368768 0
M  V30 23 F 12.976622 2.137829 -19.610962 0
M  V30 24 C 8.223993 3.496861 -16.347170 0
M  V30 25 C 6.903215 4.134773 -14.259553 0
M  V30 26 C 7.050136 5.754678 -16.172341 0
M  V30 27 C 7.777795 5.675477 -12.399163 0
M  V30 28 C 6.576409 6.877708 -15.237723 0
M  V30 29 C 5.525631 4.615787 -12.216334 0
M  V30 30 H 14.748320 5.854882 -17.937784 0
M  V30 31 H 14.437650 4.618573 -16.747192 0
M  V30 32 H 7.383347 7.703940 -12.775968 0
M  V30 33 H 11.907083 3.929421 -16.291322 0
M  V30 34 H 13.828925 4.480853 -19.730746 0
M  V30 35 H 15.054543 3.562740 -18.892136 0
M  V30 36 H 9.834839 3.939833 -10.235874 0
M  V30 37 H 12.328622 6.132143 -18.356403 0
M  V30 38 H 12.930317 8.309342 -17.230409 0
M  V30 39 H 9.601779 2.894618 -17.717264 0
M  V30 40 H 5.434862 7.132459 -13.386091 0
M  V30 41 H 4.883353 5.872330 -14.429440 0
M  V30 42 H 10.046675 5.532824 -16.298655 0
M  V30 43 H 9.903204 5.425858 -18.026193 0
M  V30 44 H 8.683305 5.057457 -14.897886 0
M  V30 45 H 8.626762 3.654379 -12.229436 0
M  V30 46 H 13.059597 6.174201 -15.382216 0
M  V30 47 H 11.650518 6.969299 -16.043046 0
M  V30 48 H 9.961449 5.887219 -8.976252 0
M  V30 49 H 8.283752 6.169295 -9.398702 0
M  V30 50 H 13.554819 2.449321 -16.419482 0
M  V30 51 H 12.630471 1.184927 -17.216571 0
M  V30 52 H 14.331309 1.410862 -17.597455 0
M  V30 53 H 5.974437 3.769302 -14.691667 0
M  V30 54 H 7.337212 3.251926 -13.793775 0
M  V30 55 H 7.670399 6.169291 -16.965675 0
M  V30 56 H 6.183325 5.325881 -16.674159 0
M  V30 57 H 7.434840 7.459219 -14.913130 0
M  V30 58 H 5.946949 7.572698 -15.794596 0
M  V30 59 H 4.642184 4.220874 -12.720024 0
M  V30 60 H 5.960342 3.789545 -11.652738 0
M  V30 61 H 5.190882 5.359987 -11.491864 0
M  V30 END ATOM
M  V30 BEGIN BOND
M  V30 1 1 5 1
M  V30 2 1 7 1
M  V30 3 1 7 4
M  V30 4 1 10 5
M  V30 5 1 11 2
M  V30 6 1 13 4
M  V30 7 1 13 9
M  V30 8 2 16 6
M  V30 9 1 17 3
M  V30 10 1 17 12
M  V30 11 1 18 7
M  V30 12 1 18 8
M  V30 13 1 19 12
M  V30 14 2 19 17
M  V30 15 1 20 4
M  V30 16 1 20 10
M  V30 17 1 21 6
M  V30 18 1 21 19
M  V30 19 1 22 10
M  V30 20 1 10 23 CFG=3
M  V30 21 1 24 9
M  V30 22 1 24 14
M  V30 23 2 24 15
M  V30 24 1 25 2
M  V30 25 1 25 14
M  V30 26 1 26 14
M  V30 27 1 27 2
M  V30 28 2 27 3
M  V30 29 1 27 16
M  V30 30 1 28 11
M  V30 31 1 28 26
M  V30 32 1 2 29 CFG=1
M  V30 33 1 30 1
M  V30 34 1 31 1
M  V30 35 1 32 3
M  V30 36 1 4 33 CFG=1
M  V30 37 1 34 5
M  V30 38 1 35 5
M  V30 39 1 36 6
M  V30 40 1 7 37 CFG=3
M  V30 41 1 38 8
M  V30 42 1 39 9
M  V30 43 1 40 11
M  V30 44 1 41 11
M  V30 45 1 42 13
M  V30 46 1 43 13
M  V30 47 1 14 44 CFG=1
M  V30 48 1 45 16
M  V30 49 1 46 18
M  V30 50 1 47 18
M  V30 51 1 48 21
M  V30 52 1 49 21
M  V30 53 1 50 22
M  V30 54 1 51 22
M  V30 55 1 52 22
M  V30 56 1 53 25
M  V30 57 1 54 25
M  V30 58 1 55 26
M  V30 59 1 56 26
M  V30 60 1 57 28
M  V30 61 1 58 28
M  V30 62 1 59 29
M  V30 63 1 60 29
M  V30 64 1 61 29
M  V30 END BOND
M  V30 END CTAB
M  END
>  <i_epik_Tot_Q>  (1) 
0

>  <i_epik_Tot_abs_Q>  (1) 
0

>  <i_i_glide_confnum>  (1) 
136

>  <i_i_glide_lignum>  (1) 
110

>  <i_i_glide_posenum>  (1) 
352

>  <i_i_glide_rotatable_bonds>  (1) 
7

>  <i_lp_mmshare_version>  (1) 
72125

>  <i_m_source_file_index>  (1) 
45

>  <i_f3d_flags>  (1) 
0

>  <num_sample>  (1) 
50

>  <b_lp_Chiralities_Consistent>  (1) 
1

>  <r_epik_Charging_Adjusted_Penalty>  (1) 
0

>  <r_epik_Ionization_Penalty>  (1) 
7.6933096193548639e-08

>  <r_epik_Ionization_Penalty_Charging>  (1) 
0

>  <r_epik_Ionization_Penalty_Neutral>  (1) 
7.6933096193548639e-08

>  <r_epik_State_Penalty>  (1) 
-0

>  <r_glide_ring_energy>  (1) 
0

>  <r_i_docking_score>  (1) 
-2.979253528706634

>  <r_i_glide_ecoul>  (1) 
-2.7882857548651936

>  <r_i_glide_eff_state_penalty>  (1) 
-0

>  <r_i_glide_einternal>  (1) 
6.2705407117756522

>  <r_i_glide_emodel>  (1) 
-34.076368430289776

>  <r_i_glide_emodel_strain>  (1) 
0.035228246670726548

>  <r_i_glide_energy>  (1) 
-32.711268150863489

>  <r_i_glide_erotb>  (1) 
0.71709703680073922

>  <r_i_glide_esite>  (1) 
0

>  <r_i_glide_evdw>  (1) 
-29.922982395998297

>  <r_i_glide_gscore>  (1) 
-2.979253528706634

>  <r_i_glide_gscore_strain>  (1) 
0

>  <r_i_glide_hbond>  (1) 
-0.053690132708111897

>  <r_i_glide_ligand_efficiency>  (1) 
-0.10273288030022876

>  <r_i_glide_ligand_efficiency_ln>  (1) 
-0.68217351072273491

>  <r_i_glide_ligand_efficiency_sa>  (1) 
-0.31562795669756299

>  <r_i_glide_lipo>  (1) 
-1.814952787205238

>  <r_i_glide_metal>  (1) 
-0

>  <r_i_glide_rewards>  (1) 
0.086684337435671166

>  <r_lp_Energy>  (1) 
41.397649999999999

>  <r_lp_tautomer_probability>  (1) 
1

>  <s_epik_cmdline>  (1) 
J2VwaWtfcHl0aG9uJywgJy1waHQnLCAnMS4wJywgJy1waCcsICc3LjQnLCAnLXRuJywgJzgnLCAnLW1hJywgJzUwMCcsICctaW1hZScsICc8aW5maWxlLm1hZT4nLCAnLW9tYWUnLCAnPG91dGZpbGUubWFlPic=

>  <s_epik_input>  (1) 
W0NIM11bQ0BdMShGKVtDSDJdW0NIMl1bQ0BIXShbQ0gyXVtPSF0pW0NASF0oTzEpW0NIMl1bTkhdQyg9TylbQ0BIXShbQ0gyXTIpW0NIMl1bQ0gyXVtDSDJdW0NAXTIoW0NIM10pQyg9W0NIXTMpW0NIXT1bQ0hdW0NIMl1DKE80KT1DMzQ=

>  <s_glide_docking_method>  (1) 
confgen

>  <s_i_glide_gridfile>  (1) 
gpcr_drd2_6luq_protein_autoprepared_prepared

>  <s_lp_Force_Field>  (1) 
S-OPLS

>  <s_lp_Variant>  (1) 
DiffSBDD_44_num_sample_50-1

>  <s_m_source_file>  (1) 
generated__ligand_DiffSBDD_2026-05-06_prepared.sdf

>  <GenAI_Model>  (1) 
DiffSBDD

>  <Protein>  (1) 
generic_title2

$$$$
DiffSBDD_47_num_sample_50
     RDKit          3D

  0  0  0  0  0  0  0  0  0  0999 V3000
M  V30 BEGIN CTAB
M  V30 COUNTS 61 63 0 0 1
M  V30 BEGIN ATOM
M  V30 1 C 10.735860 6.976010 -8.423286 0
M  V30 2 C 8.332093 2.021744 -17.097480 0
M  V30 3 O 7.912223 -0.332645 -17.055059 0
M  V30 4 N 9.806786 6.386174 -12.063619 0
M  V30 5 C 7.034812 6.426909 -16.814690 0
M  V30 6 O 9.829090 5.221818 -11.137843 0
M  V30 7 N 12.193364 8.525239 -9.209200 0
M  V30 8 C 8.797927 5.346671 -14.124356 0
M  V30 9 C 7.798483 0.892645 -16.461655 0
M  V30 10 C 5.573457 6.721529 -14.821865 0
M  V30 11 O 8.158154 7.443716 -13.312372 0
M  V30 12 C 7.034676 2.301089 -14.586567 0
M  V30 13 C 7.569010 3.446446 -15.263214 0
M  V30 14 C 9.441032 6.862052 -6.276916 0
M  V30 15 O 6.639789 -0.106475 -14.627346 0
M  V30 16 N 11.762831 7.823572 -8.133157 0
M  V30 17 F 7.231020 3.133017 -12.438208 0
M  V30 18 C 8.620513 6.225308 -12.854653 0 CFG=2
M  V30 19 C 6.351752 2.467622 -13.185134 0
M  V30 20 C 10.078859 6.088631 -7.428451 0
M  V30 21 C 8.217897 3.286998 -16.507775 0
M  V30 22 C 6.144047 1.213378 -12.308465 0
M  V30 23 N 11.443245 8.128330 -10.214149 0
M  V30 24 C 7.149990 1.014006 -15.213850 0
M  V30 25 C 7.852093 8.474569 -12.390944 0
M  V30 26 C 10.529703 7.170637 -9.743500 0
M  V30 27 C 6.499646 5.734880 -15.560518 0
M  V30 28 C 5.041778 3.308001 -13.200342 0
M  V30 29 C 9.515136 6.535215 -10.649533 0 CFG=1
M  V30 30 C 7.439910 4.857936 -14.662685 0 CFG=2
M  V30 31 H 8.829596 1.918825 -18.050818 0
M  V30 32 H 8.366321 -0.318921 -17.881501 0
M  V30 33 H 7.032693 7.501490 -16.663687 0
M  V30 34 H 6.399791 6.231859 -17.678943 0
M  V30 35 H 8.053178 6.159759 -17.076446 0
M  V30 36 H 9.435515 5.769359 -14.894063 0
M  V30 37 H 9.346353 4.469054 -13.773754 0
M  V30 38 H 6.104011 7.589375 -14.449273 0
M  V30 39 H 5.043874 6.278432 -13.984422 0
M  V30 40 H 4.830489 7.111566 -15.516593 0
M  V30 41 H 9.033270 6.171368 -5.542568 0
M  V30 42 H 8.633148 7.501865 -6.631702 0
M  V30 43 H 10.165232 7.490878 -5.760538 0
M  V30 44 H 6.190668 0.037985 -13.810260 0
M  V30 45 H 7.832661 5.812729 -12.221995 0
M  V30 46 H 10.819653 5.389096 -7.041870 0
M  V30 47 H 9.316319 5.482171 -7.918053 0
M  V30 48 H 8.630049 4.144362 -17.012336 0
M  V30 49 H 5.348513 0.566295 -12.677961 0
M  V30 50 H 5.834740 1.502553 -11.305021 0
M  V30 51 H 7.063466 0.635394 -12.199129 0
M  V30 52 H 7.834935 9.370633 -12.994649 0
M  V30 53 H 8.612798 8.676516 -11.642675 0
M  V30 54 H 6.887989 8.317581 -11.906563 0
M  V30 55 H 12.177146 7.945899 -7.222969 0
M  V30 56 H 5.830080 4.972100 -15.944479 0
M  V30 57 H 4.180617 2.707337 -13.491675 0
M  V30 58 H 5.023654 4.125453 -13.898644 0
M  V30 59 H 4.856192 3.769381 -12.228875 0
M  V30 60 H 8.496263 6.626849 -10.291019 0
M  V30 61 H 6.876793 4.836350 -13.757520 0
M  V30 END ATOM
M  V30 BEGIN BOND
M  V30 1 1 6 4
M  V30 2 2 9 2
M  V30 3 1 9 3
M  V30 4 1 13 12
M  V30 5 1 16 1
M  V30 6 1 16 7
M  V30 7 1 18 4
M  V30 8 1 18 8
M  V30 9 1 18 11
M  V30 10 1 19 12
M  V30 11 1 19 17
M  V30 12 1 20 1
M  V30 13 1 20 14
M  V30 14 1 21 2
M  V30 15 2 21 13
M  V30 16 1 22 19
M  V30 17 2 23 7
M  V30 18 1 24 9
M  V30 19 2 24 12
M  V30 20 1 24 15
M  V30 21 1 25 11
M  V30 22 2 26 1
M  V30 23 1 26 23
M  V30 24 1 27 5
M  V30 25 1 27 10
M  V30 26 1 28 19
M  V30 27 1 29 4
M  V30 28 1 29 6
M  V30 29 1 29 26
M  V30 30 1 30 8
M  V30 31 1 30 13
M  V30 32 1 30 27
M  V30 33 1 31 2
M  V30 34 1 32 3
M  V30 35 1 33 5
M  V30 36 1 34 5
M  V30 37 1 35 5
M  V30 38 1 36 8
M  V30 39 1 37 8
M  V30 40 1 38 10
M  V30 41 1 39 10
M  V30 42 1 40 10
M  V30 43 1 41 14
M  V30 44 1 42 14
M  V30 45 1 43 14
M  V30 46 1 44 15
M  V30 47 1 18 45 CFG=1
M  V30 48 1 46 20
M  V30 49 1 47 20
M  V30 50 1 48 21
M  V30 51 1 49 22
M  V30 52 1 50 22
M  V30 53 1 51 22
M  V30 54 1 52 25
M  V30 55 1 53 25
M  V30 56 1 54 25
M  V30 57 1 55 16
M  V30 58 1 56 27
M  V30 59 1 57 28
M  V30 60 1 58 28
M  V30 61 1 59 28
M  V30 62 1 29 60 CFG=3
M  V30 63 1 30 61 CFG=1
M  V30 END BOND
M  V30 END CTAB
M  END
>  <i_epik_Tot_Q>  (1) 
0

>  <i_epik_Tot_abs_Q>  (1) 
0

>  <i_i_glide_confnum>  (1) 
31

>  <i_i_glide_lignum>  (1) 
116

>  <i_i_glide_posenum>  (1) 
202

>  <i_i_glide_rotatable_bonds>  (1) 
11

>  <i_lp_mmshare_version>  (1) 
72125

>  <i_m_source_file_index>  (1) 
48

>  <i_f3d_flags>  (1) 
0

>  <num_sample>  (1) 
50

>  <b_lp_Chiralities_Consistent>  (1) 
1

>  <r_epik_Charging_Adjusted_Penalty>  (1) 
0.83298032901439623

>  <r_epik_Ionization_Penalty>  (1) 
0.0039877577423364898

>  <r_epik_Ionization_Penalty_Charging>  (1) 
0

>  <r_epik_Ionization_Penalty_Neutral>  (1) 
0.0039877577423364898

>  <r_epik_State_Penalty>  (1) 
0.83298032901439623

>  <r_glide_ring_energy>  (1) 
0

>  <r_i_docking_score>  (1) 
-2.9774801197856

>  <r_i_glide_ecoul>  (1) 
-0.5846578360561232

>  <r_i_glide_eff_state_penalty>  (1) 
0.83298032901439623

>  <r_i_glide_einternal>  (1) 
13.760543463115379

>  <r_i_glide_emodel>  (1) 
-19.704605758310421

>  <r_i_glide_emodel_strain>  (1) 
3.7599056070995758

>  <r_i_glide_energy>  (1) 
-22.137372961076586

>  <r_i_glide_erotb>  (1) 
0.55490112727109764

>  <r_i_glide_esite>  (1) 
-0.071903734058365684

>  <r_i_glide_evdw>  (1) 
-21.552715125020462

>  <r_i_glide_gscore>  (1) 
-3.8104604487999962

>  <r_i_glide_gscore_strain>  (1) 
0

>  <r_i_glide_hbond>  (1) 
0

>  <r_i_glide_ligand_efficiency>  (1) 
-0.099249337326186668

>  <r_i_glide_ligand_efficiency_ln>  (1) 
-0.67651592545961325

>  <r_i_glide_ligand_efficiency_sa>  (1) 
-0.30839076713430691

>  <r_i_glide_lipo>  (1) 
-1.7689831932078124

>  <r_i_glide_metal>  (1) 
-0

>  <r_i_glide_rewards>  (1) 
-1.3591402171454741

>  <r_lp_Energy>  (1) 
29.114134

>  <r_lp_tautomer_probability>  (1) 
0.17382617382613486

>  <s_epik_Chemistry_Notes>  (1) 
This compound contains an acetal/aminal-like group ( X-CH(R)-Y where X, Y are N, S, or O) that may be acid/base labile, releasing an aldehyde. This compound has a N-S or N-O group and may undergo hydrolysis at high or low pH.

>  <s_epik_cmdline>  (1) 
J2VwaWtfcHl0aG9uJywgJy1waHQnLCAnMS4wJywgJy1waCcsICc3LjQnLCAnLXRuJywgJzgnLCAnLW1hJywgJzUwMCcsICctaW1hZScsICc8aW5maWxlLm1hZT4nLCAnLW9tYWUnLCAnPG91dGZpbGUubWFlPic=

>  <s_epik_input>  (1) 
W0NIM11bQ0gyXUMxPU5OPU5bQ0BIXTFbQ0BASF0yT04yW0NAQEhdKE9bQ0gzXSlbQ0gyXVtDQEBIXShbQ0hdKFtDSDNdKVtDSDNdKUMoQyhDKEYpKFtDSDNdKVtDSDNdKT1DM1tPSF0pPVtDSF1bQ0gyXUMzPU8=

>  <s_glide_docking_method>  (1) 
confgen

>  <s_i_glide_gridfile>  (1) 
gpcr_drd2_6luq_protein_autoprepared_prepared

>  <s_lp_Force_Field>  (1) 
S-OPLS

>  <s_lp_Variant>  (1) 
DiffSBDD_47_num_sample_50-3

>  <s_m_source_file>  (1) 
generated__ligand_DiffSBDD_2026-05-06_prepared.sdf

>  <GenAI_Model>  (1) 
DiffSBDD

>  <Protein>  (1) 
generic_title2

$$$$
DiffSBDD_22_num_sample_50
     RDKit          3D

  0  0  0  0  0  0  0  0  0  0999 V3000
M  V30 BEGIN CTAB
M  V30 COUNTS 53 56 0 0 1
M  V30 BEGIN ATOM
M  V30 1 C 13.435549 4.962593 -17.044796 0
M  V30 2 C 8.575219 4.194398 -16.798080 0
M  V30 3 O 8.234841 3.857101 -15.667027 0
M  V30 4 C 12.602190 4.845512 -19.276140 0 CFG=1
M  V30 5 C 13.820666 5.903327 -15.923428 0
M  V30 6 C 10.051126 4.334895 -17.173058 0
M  V30 7 C 11.411363 8.169301 -20.179095 0
M  V30 8 S 9.410943 6.535335 -21.083231 0
M  V30 9 C 10.910315 6.723795 -20.063102 0 CFG=1
M  V30 10 C 12.185778 3.354869 -19.055903 0 CFG=2
M  V30 11 C 13.741841 3.648404 -17.091667 0
M  V30 12 O 13.057778 1.425770 -17.756655 0
M  V30 13 C 12.022182 5.708852 -20.426095 0
M  V30 14 C 9.304212 2.709454 -19.543128 0 CFG=2
M  V30 15 C 7.529840 4.485184 -17.891398 0 CFG=1
M  V30 16 C 7.980833 2.160810 -18.981971 0
M  V30 17 S 10.565435 2.973597 -18.246362 0 CHG=1
M  V30 18 C 9.148471 3.804494 -20.606556 0
M  V30 19 C 12.652112 6.776533 -15.452064 0
M  V30 20 C 7.947158 5.581669 -18.899071 0
M  V30 21 C 13.339278 2.730403 -18.229839 0 CFG=1
M  V30 22 C 6.952680 3.220271 -18.558375 0
M  V30 23 C 8.480008 5.176159 -20.304576 0 CFG=1
M  V30 24 O 12.725306 5.573949 -18.056531 0
M  V30 25 H 13.637217 4.757910 -19.616456 0
M  V30 26 H 14.216821 5.323516 -15.091667 0
M  V30 27 H 14.634253 6.538503 -16.274428 0
M  V30 28 H 10.659428 4.312974 -16.268804 0
M  V30 29 H 10.235126 5.291911 -17.632647 0
M  V30 30 H 12.267215 8.344378 -19.525675 0
M  V30 31 H 10.634839 8.877962 -19.891669 0
M  V30 32 H 11.711760 8.407957 -21.199988 0
M  V30 33 H 10.634223 6.618140 -19.025132 0
M  V30 34 H 12.170375 2.840292 -20.017190 0
M  V30 35 H 14.304690 3.201855 -16.284185 0
M  V30 36 H 12.634837 1.481563 -16.911100 0
M  V30 37 H 12.859476 6.298391 -20.803987 0
M  V30 38 H 11.779412 5.104660 -21.295678 0
M  V30 39 H 9.733555 1.864834 -20.084179 0
M  V30 40 H 6.702368 4.926670 -17.333941 0
M  V30 41 H 7.512657 1.518898 -19.729658 0
M  V30 42 H 8.194082 1.502445 -18.138268 0
M  V30 43 H 10.107850 3.937363 -21.085924 0
M  V30 44 H 8.561169 3.354430 -21.408964 0
M  V30 45 H 12.968680 7.444021 -14.650485 0
M  V30 46 H 11.831088 6.169301 -15.072401 0
M  V30 47 H 12.265082 7.392197 -16.264830 0
M  V30 48 H 7.054716 6.182512 -19.082078 0
M  V30 49 H 8.598070 6.306253 -18.417037 0
M  V30 50 H 14.216291 2.630431 -18.871073 0
M  V30 51 H 6.234839 2.743401 -17.891668 0
M  V30 52 H 6.363846 3.517298 -19.427165 0
M  V30 53 H 7.571915 5.143654 -20.909409 0
M  V30 END ATOM
M  V30 BEGIN BOND
M  V30 1 2 3 2
M  V30 2 1 5 1
M  V30 3 1 6 2
M  V30 4 1 9 7
M  V30 5 1 9 8
M  V30 6 1 10 4
M  V30 7 2 11 1
M  V30 8 1 13 4
M  V30 9 1 13 9
M  V30 10 1 15 2
M  V30 11 1 16 14
M  V30 12 1 17 6 CFG=1
M  V30 13 1 17 10
M  V30 14 1 17 14
M  V30 15 1 18 14
M  V30 16 1 19 5
M  V30 17 1 20 15
M  V30 18 1 21 10
M  V30 19 1 21 11
M  V30 20 1 21 12
M  V30 21 1 22 15
M  V30 22 1 22 16
M  V30 23 1 23 8
M  V30 24 1 23 18
M  V30 25 1 23 20
M  V30 26 1 24 1
M  V30 27 1 24 4
M  V30 28 1 4 25 CFG=3
M  V30 29 1 26 5
M  V30 30 1 27 5
M  V30 31 1 28 6
M  V30 32 1 29 6
M  V30 33 1 30 7
M  V30 34 1 31 7
M  V30 35 1 32 7
M  V30 36 1 9 33 CFG=1
M  V30 37 1 10 34 CFG=3
M  V30 38 1 35 11
M  V30 39 1 36 12
M  V30 40 1 37 13
M  V30 41 1 38 13
M  V30 42 1 14 39 CFG=3
M  V30 43 1 15 40 CFG=1
M  V30 44 1 41 16
M  V30 45 1 42 16
M  V30 46 1 43 18
M  V30 47 1 44 18
M  V30 48 1 45 19
M  V30 49 1 46 19
M  V30 50 1 47 19
M  V30 51 1 48 20
M  V30 52 1 49 20
M  V30 53 1 21 50 CFG=3
M  V30 54 1 51 22
M  V30 55 1 52 22
M  V30 56 1 23 53 CFG=3
M  V30 END BOND
M  V30 END CTAB
M  END
>  <i_epik_Tot_Q>  (1) 
1

>  <i_epik_Tot_abs_Q>  (1) 
1

>  <i_i_glide_confnum>  (1) 
1

>  <i_i_glide_lignum>  (1) 
60

>  <i_i_glide_posenum>  (1) 
164

>  <i_i_glide_rotatable_bonds>  (1) 
2

>  <i_lp_mmshare_version>  (1) 
72125

>  <i_m_source_file_index>  (1) 
23

>  <i_f3d_flags>  (1) 
0

>  <num_sample>  (1) 
50

>  <b_lp_Chiralities_Consistent>  (1) 
1

>  <r_epik_Charging_Adjusted_Penalty>  (1) 
0.074119830427950756

>  <r_epik_Ionization_Penalty>  (1) 
0.0741198432157502

>  <r_epik_Ionization_Penalty_Charging>  (1) 
0

>  <r_epik_Ionization_Penalty_Neutral>  (1) 
0.0741198432157502

>  <r_epik_State_Penalty>  (1) 
0.074119830427950756

>  <r_glide_ring_energy>  (1) 
0

>  <r_i_docking_score>  (1) 
-2.9491423960933267

>  <r_i_glide_ecoul>  (1) 
-1.8092990677105893

>  <r_i_glide_eff_state_penalty>  (1) 
0.074119830427950756

>  <r_i_glide_einternal>  (1) 
0.63806247706375885

>  <r_i_glide_emodel>  (1) 
-23.63072096256699

>  <r_i_glide_emodel_strain>  (1) 
0.18421852036140507

>  <r_i_glide_energy>  (1) 
-20.103892082661581

>  <r_i_glide_erotb>  (1) 
0

>  <r_i_glide_esite>  (1) 
0

>  <r_i_glide_evdw>  (1) 
-18.294593014950991

>  <r_i_glide_gscore>  (1) 
-3.0232622265212776

>  <r_i_glide_gscore_strain>  (1) 
0

>  <r_i_glide_hbond>  (1) 
0

>  <r_i_glide_ligand_efficiency>  (1) 
-0.12288093317055528

>  <r_i_glide_ligand_efficiency_ln>  (1) 
-0.70586510271164316

>  <r_i_glide_ligand_efficiency_sa>  (1) 
-0.35444994612841346

>  <r_i_glide_lipo>  (1) 
-0.81047590606712838

>  <r_i_glide_metal>  (1) 
-0

>  <r_i_glide_rewards>  (1) 
-1.0266618095500113

>  <r_lp_Energy>  (1) 
36.408808000000001

>  <s_epik_cmdline>  (1) 
J2VwaWtfcHl0aG9uJywgJy1waHQnLCAnMS4wJywgJy1waCcsICc3LjQnLCAnLXRuJywgJzgnLCAnLW1hJywgJzUwMCcsICctaW1hZScsICc8aW5maWxlLm1hZT4nLCAnLW9tYWUnLCAnPG91dGZpbGUubWFlPic=

>  <s_epik_input>  (1) 
W0NIM11bQ0gyXUMoTzEpPVtDSF1bQ0BASF0oW09IXSlbQ0BIXShbQ0BIXTEyKVtTK10zW0NASF00W0NIMl1bQ0gyXVtDQEBIXShDKD1PKVtDSDJdMylbQ0gyXVtDQEhdKFtDSDJdNClTW0NASF0oW0NIM10pW0NIMl0y

>  <s_glide_docking_method>  (1) 
confgen

>  <s_i_glide_gridfile>  (1) 
gpcr_drd2_6luq_protein_autoprepared_prepared

>  <s_lp_Force_Field>  (1) 
S-OPLS

>  <s_lp_Variant>  (1) 
DiffSBDD_22_num_sample_50-1

>  <s_m_source_file>  (1) 
generated__ligand_DiffSBDD_2026-05-06_prepared.sdf

>  <GenAI_Model>  (1) 
DiffSBDD

>  <Protein>  (1) 
generic_title2

$$$$
DiffSBDD_10_num_sample_50
     RDKit          3D

  0  0  0  0  0  0  0  0  0  0999 V3000
M  V30 BEGIN CTAB
M  V30 COUNTS 73 74 0 0 1
M  V30 BEGIN ATOM
M  V30 1 C 6.868211 6.154164 -20.836230 0 CFG=2
M  V30 2 C 9.128483 5.946407 -10.997175 0
M  V30 3 C 6.782407 5.982635 -15.004688 0
M  V30 4 C 9.798874 4.255658 -16.716519 0 CFG=1
M  V30 5 C 7.924096 5.021870 -20.779472 0 CFG=2
M  V30 6 N 7.146938 4.569314 -10.854420 0
M  V30 7 N 10.447125 4.928689 -18.906746 0
M  V30 8 C 9.377361 3.999067 -19.084681 0 CFG=1
M  V30 9 S 5.832380 6.263143 -22.404697 0
M  V30 10 C 9.430495 5.962529 -9.509987 0
M  V30 11 S 4.634800 4.569299 -22.068639 0 CHG=-1
M  V30 12 C 5.437891 7.960007 -19.565089 0
M  V30 13 O 10.235540 6.969405 -5.491738 0
M  V30 14 O 4.941292 7.432134 -22.368583 0
M  V30 15 C 8.326549 6.432435 -21.158965 0 CFG=2
M  V30 16 C 5.763903 6.575974 -12.724929 0
M  V30 17 C 10.334420 5.433658 -17.550083 0 CFG=2
M  V30 18 N 10.372223 7.319824 -7.643589 0 CHG=1
M  V30 19 N 7.878812 5.335253 -12.929393 0
M  V30 20 C 9.852742 7.357278 -9.023766 0
M  V30 21 C 7.802057 2.668980 -17.542777 0
M  V30 22 C 6.140125 6.594029 -19.553657 0
M  V30 23 C 7.986098 3.829092 -21.730700 0
M  V30 24 C 8.929326 4.659387 -15.502489 0
M  V30 25 C 6.897089 5.912724 -13.510718 0
M  V30 26 O 9.029679 7.110052 -20.144286 0
M  V30 27 C 8.085273 5.304569 -11.554109 0
M  V30 28 O 6.654726 6.026016 -23.600916 0
M  V30 29 F 11.513757 5.876897 -17.118107 0
M  V30 30 N 6.216676 7.699519 -11.891678 0 CHG=1
M  V30 31 C 9.368261 7.092282 -6.593729 0
M  V30 32 C 9.210618 3.261874 -17.746402 0 CFG=2
M  V30 33 O 8.178245 4.658601 -19.407122 0
M  V30 34 C 7.671171 5.436503 -15.875082 0
M  V30 35 H 9.813411 6.491524 -11.631947 0
M  V30 36 H 5.917977 6.512669 -15.377173 0
M  V30 37 H 10.678264 3.768825 -16.292103 0
M  V30 38 H 7.221295 4.428018 -9.856046 0
M  V30 39 H 10.406949 5.692858 -19.572816 0
M  V30 40 H 9.635800 3.282599 -19.860317 0
M  V30 41 H 10.231400 5.249160 -9.320145 0
M  V30 42 H 8.563380 5.615779 -8.947675 0
M  V30 43 H 5.249364 8.291109 -18.544835 0
M  V30 44 H 6.042520 8.722036 -20.057116 0
M  V30 45 H 4.464612 7.914501 -20.051273 0
M  V30 46 H 9.872764 6.325582 -4.896941 0
M  V30 47 H 8.655042 6.654103 -22.171729 0
M  V30 48 H 5.034900 6.979588 -13.423188 0
M  V30 49 H 5.230092 5.846325 -12.117459 0
M  V30 50 H 9.638418 6.267351 -17.543419 0
M  V30 51 H 10.817126 8.202841 -7.441046 0
M  V30 52 H 9.034839 8.073584 -9.089688 0
M  V30 53 H 10.650207 7.739180 -9.662165 0
M  V30 54 H 7.018211 3.422338 -17.561074 0
M  V30 55 H 7.572046 1.953783 -18.333335 0
M  V30 56 H 7.734245 2.136759 -16.593446 0
M  V30 57 H 5.414120 5.823207 -19.293872 0
M  V30 58 H 6.856659 6.614504 -18.736738 0
M  V30 59 H 7.626014 4.060542 -22.726517 0
M  V30 60 H 9.010133 3.480269 -21.852667 0
M  V30 61 H 7.378708 3.012690 -21.339656 0
M  V30 62 H 9.551869 5.265247 -14.843515 0
M  V30 63 H 8.636252 3.766806 -14.950575 0
M  V30 64 H 8.640514 6.841478 -19.325386 0
M  V30 65 H 5.420882 8.269752 -11.648622 0
M  V30 66 H 6.634817 7.393140 -11.003510 0
M  V30 67 H 8.807180 6.169850 -6.738458 0
M  V30 68 H 8.679116 7.931287 -6.483523 0
M  V30 69 H 9.900598 2.417577 -17.785878 0
M  V30 70 H 7.488673 5.548614 -16.930491 0
M  V30 71 H 6.441932 4.023522 -11.327838 0
M  V30 72 H 11.066983 6.591063 -7.572621 0
M  V30 73 H 6.892207 8.253572 -12.395400 0
M  V30 END ATOM
M  V30 BEGIN BOND
M  V30 1 1 5 1
M  V30 2 1 8 7
M  V30 3 1 9 1
M  V30 4 1 10 2
M  V30 5 1 11 9
M  V30 6 2 14 9
M  V30 7 1 15 1
M  V30 8 1 15 5
M  V30 9 1 17 4
M  V30 10 1 17 7
M  V30 11 1 20 10
M  V30 12 1 20 18
M  V30 13 1 1 22 CFG=1
M  V30 14 1 22 12
M  V30 15 1 23 5
M  V30 16 1 24 4
M  V30 17 1 25 3
M  V30 18 1 25 16
M  V30 19 2 25 19
M  V30 20 1 26 15
M  V30 21 2 27 2
M  V30 22 1 27 6
M  V30 23 1 27 19
M  V30 24 2 28 9
M  V30 25 1 29 17
M  V30 26 1 30 16
M  V30 27 1 31 13
M  V30 28 1 31 18
M  V30 29 1 32 4
M  V30 30 1 32 8
M  V30 31 1 32 21
M  V30 32 1 5 33 CFG=1
M  V30 33 1 33 8
M  V30 34 2 34 3
M  V30 35 1 34 24
M  V30 36 1 35 2
M  V30 37 1 36 3
M  V30 38 1 4 37 CFG=1
M  V30 39 1 38 6
M  V30 40 1 39 7
M  V30 41 1 8 40 CFG=3
M  V30 42 1 41 10
M  V30 43 1 42 10
M  V30 44 1 43 12
M  V30 45 1 44 12
M  V30 46 1 45 12
M  V30 47 1 46 13
M  V30 48 1 15 47 CFG=3
M  V30 49 1 48 16
M  V30 50 1 49 16
M  V30 51 1 17 50 CFG=3
M  V30 52 1 51 18
M  V30 53 1 52 20
M  V30 54 1 53 20
M  V30 55 1 54 21
M  V30 56 1 55 21
M  V30 57 1 56 21
M  V30 58 1 57 22
M  V30 59 1 58 22
M  V30 60 1 59 23
M  V30 61 1 60 23
M  V30 62 1 61 23
M  V30 63 1 62 24
M  V30 64 1 63 24
M  V30 65 1 64 26
M  V30 66 1 65 30
M  V30 67 1 66 30
M  V30 68 1 67 31
M  V30 69 1 68 31
M  V30 70 1 32 69 CFG=3
M  V30 71 1 70 34
M  V30 72 1 71 6
M  V30 73 1 72 18
M  V30 74 1 73 30
M  V30 END BOND
M  V30 END CTAB
M  END
>  <i_epik_Tot_Q>  (1) 
1

>  <i_epik_Tot_abs_Q>  (1) 
3

>  <i_i_glide_confnum>  (1) 
543

>  <i_i_glide_lignum>  (1) 
35

>  <i_i_glide_posenum>  (1) 
336

>  <i_i_glide_rotatable_bonds>  (1) 
15

>  <i_lp_mmshare_version>  (1) 
72125

>  <i_m_source_file_index>  (1) 
11

>  <i_f3d_flags>  (1) 
0

>  <num_sample>  (1) 
50

>  <b_lp_Chiralities_Consistent>  (1) 
1

>  <r_epik_Charging_Adjusted_Penalty>  (1) 
2.168687317063887

>  <r_epik_Ionization_Penalty>  (1) 
1.1047352072338965

>  <r_epik_Ionization_Penalty_Charging>  (1) 
1.0999234457570315

>  <r_epik_Ionization_Penalty_Neutral>  (1) 
0.0048117614768649203

>  <r_epik_State_Penalty>  (1) 
1.0687638713068555

>  <r_glide_ring_energy>  (1) 
0

>  <r_i_docking_score>  (1) 
-2.9459440650064934

>  <r_i_glide_ecoul>  (1) 
-9.1126738809233814

>  <r_i_glide_eff_state_penalty>  (1) 
1.0687638713068555

>  <r_i_glide_einternal>  (1) 
17.393189734528285

>  <r_i_glide_emodel>  (1) 
-40.847208489293948

>  <r_i_glide_emodel_strain>  (1) 
2.1135301102422659

>  <r_i_glide_energy>  (1) 
-37.208363739819248

>  <r_i_glide_erotb>  (1) 
0.82219216958862984

>  <r_i_glide_esite>  (1) 
-0.19908016144597665

>  <r_i_glide_evdw>  (1) 
-28.09568985889587

>  <r_i_glide_gscore>  (1) 
-4.0147079363133491

>  <r_i_glide_gscore_strain>  (1) 
0

>  <r_i_glide_hbond>  (1) 
-0.16875801671628518

>  <r_i_glide_ligand_efficiency>  (1) 
-0.086645413676661565

>  <r_i_glide_ligand_efficiency_ln>  (1) 
-0.65084167489206168

>  <r_i_glide_ligand_efficiency_sa>  (1) 
-0.28069750467348231

>  <r_i_glide_lipo>  (1) 
-0.97485455334329507

>  <r_i_glide_metal>  (1) 
-0

>  <r_i_glide_rewards>  (1) 
-0.72252179931312077

>  <r_lp_Energy>  (1) 
30.519554999999997

>  <s_epik_Chemistry_Notes>  (1) 
This compound has an imine and may undergo hydrolysis. This compound contains an acetal/aminal-like group ( X-CH(R)-Y where X, Y are N, S, or O) that may be acid/base labile, releasing an aldehyde.

>  <s_epik_cmdline>  (1) 
J2VwaWtfcHl0aG9uJywgJy1waHQnLCAnMS4wJywgJy1waCcsICc3LjQnLCAnLXRuJywgJzgnLCAnLW1hJywgJzUwMCcsICctaW1hZScsICc8aW5maWxlLm1hZT4nLCAnLW9tYWUnLCAnPG91dGZpbGUubWFlPic=

>  <s_epik_input>  (1) 
W1NIXVMoPU8pKD1PKVtDQEBdMShbQ0gyXVtDSDNdKVtDQEBdKFtDSDNdKShbQ0BASF0xW09IXSlPW0NASF0oW0NAQEhdMltDSDNdKVtOSF1bQ0BASF0oRilbQ0BIXTJbQ0gyXS9bQ0hdPVtDSF1cQyhbQ0gyXVtOSDJdKT1OXEMoPU5cW0hdKVxbQ0gyXVtDSDJdW0NIMl1bTkhdW0NIMl1bT0hd

>  <s_glide_docking_method>  (1) 
confgen

>  <s_i_glide_gridfile>  (1) 
gpcr_drd2_6luq_protein_autoprepared_prepared

>  <s_lp_Force_Field>  (1) 
S-OPLS

>  <s_lp_Variant>  (1) 
DiffSBDD_10_num_sample_50-15

>  <s_m_source_file>  (1) 
generated__ligand_DiffSBDD_2026-05-06_prepared.sdf

>  <GenAI_Model>  (1) 
DiffSBDD

>  <Protein>  (1) 
generic_title2

$$$$
DiffSBDD_29_num_sample_50
     RDKit          3D

  0  0  0  0  0  0  0  0  0  0999 V3000
M  V30 BEGIN CTAB
M  V30 COUNTS 64 67 0 0 1
M  V30 BEGIN ATOM
M  V30 1 C 9.836077 6.570024 -9.991116 0
M  V30 2 O 6.634843 6.958875 -16.407252 0
M  V30 3 C 7.730398 5.407957 -19.578481 0
M  V30 4 C 10.212065 6.995833 -11.382131 0
M  V30 5 O 7.769354 4.132066 -16.040250 0
M  V30 6 N 6.516770 6.927450 -12.660389 0 CFG=2 CHG=1
M  V30 7 C 8.241824 5.001332 -18.188506 0
M  V30 8 C 5.710280 7.021036 -19.183143 0
M  V30 9 C 3.815928 6.723191 -17.525240 0
M  V30 10 C 9.917944 6.586899 -7.604050 0
M  V30 11 C 7.881513 7.446466 -12.374470 0
M  V30 12 C 6.010956 6.011040 -11.598604 0
M  V30 13 C 7.034885 3.146118 -15.323226 0
M  V30 14 C 6.065279 5.761922 -16.902487 0 CFG=1
M  V30 15 C 8.820767 5.698632 -9.929082 0
M  V30 16 C 6.984636 4.870698 -11.278670 0
M  V30 17 C 8.926268 6.327034 -12.124226 0 CFG=2
M  V30 18 C 5.126538 6.114003 -18.075807 0 CFG=2
M  V30 19 C 10.447312 7.027344 -8.822020 0
M  V30 20 C 6.227629 7.415810 -15.122645 0
M  V30 21 N 8.271239 5.209368 -8.791605 0
M  V30 22 C 7.123462 4.641341 -17.209199 0 CFG=2
M  V30 23 C 7.192001 6.836174 -19.563023 0
M  V30 24 N 8.364321 5.337026 -11.165707 0
M  V30 25 C 8.814503 5.701742 -7.638095 0
M  V30 26 N 12.519863 8.595675 -8.895274 0
M  V30 27 C 6.404363 6.353689 -14.019192 0
M  V30 28 C 11.590778 7.915030 -8.861953 0
M  V30 29 C 7.917486 2.450506 -14.289108 0
M  V30 30 H 6.993072 4.703320 -19.966401 0
M  V30 31 H 8.575295 5.371086 -20.266878 0
M  V30 32 H 10.244164 8.080594 -11.490892 0
M  V30 33 H 11.161315 6.569239 -11.701105 0
M  V30 34 H 8.877137 4.122664 -18.307542 0
M  V30 35 H 8.887788 5.768612 -17.760499 0
M  V30 36 H 5.104515 6.879999 -20.079647 0
M  V30 37 H 5.564533 8.066368 -18.908633 0
M  V30 38 H 3.986661 7.712446 -17.101459 0
M  V30 39 H 3.056857 6.839262 -18.291637 0
M  V30 40 H 3.372367 6.108698 -16.741992 0
M  V30 41 H 10.330760 6.920447 -6.663469 0
M  V30 42 H 7.800935 8.079508 -11.491633 0
M  V30 43 H 8.226904 8.110876 -13.164342 0
M  V30 44 H 5.036810 5.604338 -11.868267 0
M  V30 45 H 5.831605 6.569352 -10.691501 0
M  V30 46 H 6.208401 3.621180 -14.805996 0
M  V30 47 H 6.634771 2.387854 -15.996204 0
M  V30 48 H 5.408870 5.369303 -16.139639 0
M  V30 49 H 6.960554 4.143093 -12.088242 0
M  V30 50 H 6.650864 4.325401 -10.395008 0
M  V30 51 H 9.221383 5.841570 -13.054640 0
M  V30 52 H 4.886753 5.173685 -18.565828 0
M  V30 53 H 5.199730 7.778656 -15.144471 0
M  V30 54 H 6.855544 8.282097 -14.926392 0
M  V30 55 H 6.633260 3.798289 -17.689951 0
M  V30 56 H 7.360393 7.303424 -20.534635 0
M  V30 57 H 7.817844 7.374185 -18.861515 0
M  V30 58 H 8.364304 5.369315 -6.720780 0
M  V30 59 H 7.284702 5.747755 -14.219625 0
M  V30 60 H 5.545050 5.683590 -14.040072 0
M  V30 61 H 7.318186 1.833282 -13.618813 0
M  V30 62 H 8.634791 1.790009 -14.777308 0
M  V30 63 H 8.463648 3.171790 -13.679568 0
M  V30 64 H 5.894299 7.723021 -12.628165 0
M  V30 END ATOM
M  V30 BEGIN BOND
M  V30 1 1 4 1
M  V30 2 1 7 3
M  V30 3 1 11 6
M  V30 4 1 12 6
M  V30 5 1 13 5
M  V30 6 1 14 2
M  V30 7 1 15 1
M  V30 8 1 16 12
M  V30 9 1 17 4
M  V30 10 1 17 11
M  V30 11 1 18 8
M  V30 12 1 18 9
M  V30 13 1 18 14
M  V30 14 2 19 1
M  V30 15 1 19 10
M  V30 16 1 20 2
M  V30 17 2 21 15
M  V30 18 1 22 5
M  V30 19 1 22 7
M  V30 20 1 22 14
M  V30 21 1 23 3
M  V30 22 1 23 8
M  V30 23 1 24 15
M  V30 24 1 24 16
M  V30 25 1 24 17
M  V30 26 2 25 10
M  V30 27 1 25 21
M  V30 28 1 27 6
M  V30 29 1 27 20
M  V30 30 1 28 19
M  V30 31 3 28 26
M  V30 32 1 29 13
M  V30 33 1 30 3
M  V30 34 1 31 3
M  V30 35 1 32 4
M  V30 36 1 33 4
M  V30 37 1 34 7
M  V30 38 1 35 7
M  V30 39 1 36 8
M  V30 40 1 37 8
M  V30 41 1 38 9
M  V30 42 1 39 9
M  V30 43 1 40 9
M  V30 44 1 41 10
M  V30 45 1 42 11
M  V30 46 1 43 11
M  V30 47 1 44 12
M  V30 48 1 45 12
M  V30 49 1 46 13
M  V30 50 1 47 13
M  V30 51 1 14 48 CFG=1
M  V30 52 1 49 16
M  V30 53 1 50 16
M  V30 54 1 17 51 CFG=3
M  V30 55 1 18 52 CFG=3
M  V30 56 1 53 20
M  V30 57 1 54 20
M  V30 58 1 22 55 CFG=3
M  V30 59 1 56 23
M  V30 60 1 57 23
M  V30 61 1 58 25
M  V30 62 1 59 27
M  V30 63 1 60 27
M  V30 64 1 61 29
M  V30 65 1 62 29
M  V30 66 1 63 29
M  V30 67 1 6 64 CFG=3
M  V30 END BOND
M  V30 END CTAB
M  END
>  <i_epik_Tot_Q>  (1) 
1

>  <i_epik_Tot_abs_Q>  (1) 
1

>  <i_i_glide_confnum>  (1) 
13

>  <i_i_glide_lignum>  (1) 
73

>  <i_i_glide_posenum>  (1) 
351

>  <i_i_glide_rotatable_bonds>  (1) 
6

>  <i_lp_mmshare_version>  (1) 
72125

>  <i_m_source_file_index>  (1) 
30

>  <i_f3d_flags>  (1) 
0

>  <num_sample>  (1) 
50

>  <b_lp_Chiralities_Consistent>  (1) 
1

>  <r_epik_Charging_Adjusted_Penalty>  (1) 
1.0026227849201053

>  <r_epik_Ionization_Penalty>  (1) 
0.50131159217577048

>  <r_epik_Ionization_Penalty_Charging>  (1) 
0.50131139246005263

>  <r_epik_Ionization_Penalty_Neutral>  (1) 
1.9971571790720627e-07

>  <r_epik_State_Penalty>  (1) 
0.50131139246005263

>  <r_glide_ring_energy>  (1) 
0.31448414249904627

>  <r_i_docking_score>  (1) 
-2.9389267127138994

>  <r_i_glide_ecoul>  (1) 
-0.76934805358887237

>  <r_i_glide_eff_state_penalty>  (1) 
0.50131139246005263

>  <r_i_glide_einternal>  (1) 
4.5947630706765983

>  <r_i_glide_emodel>  (1) 
-37.800633287547576

>  <r_i_glide_emodel_strain>  (1) 
0.010511983760281396

>  <r_i_glide_energy>  (1) 
-32.903262648356403

>  <r_i_glide_erotb>  (1) 
0.6137117962777916

>  <r_i_glide_esite>  (1) 
-0.057524517427536663

>  <r_i_glide_evdw>  (1) 
-32.133914594767532

>  <r_i_glide_gscore>  (1) 
-3.4402381051739521

>  <r_i_glide_gscore_strain>  (1) 
0

>  <r_i_glide_hbond>  (1) 
0

>  <r_i_glide_ligand_efficiency>  (1) 
-0.10134230043841032

>  <r_i_glide_ligand_efficiency_ln>  (1) 
-0.67293969246022001

>  <r_i_glide_ligand_efficiency_sa>  (1) 
-0.31135565479063831

>  <r_i_glide_lipo>  (1) 
-1.7729293570528177

>  <r_i_glide_metal>  (1) 
-0

>  <r_i_glide_rewards>  (1) 
-0.5013980891946821

>  <r_lp_Energy>  (1) 
44.156497999999999

>  <s_epik_cmdline>  (1) 
J2VwaWtfcHl0aG9uJywgJy1waHQnLCAnMS4wJywgJy1waCcsICc3LjQnLCAnLXRuJywgJzgnLCAnLW1hJywgJzUwMCcsICctaW1hZScsICc8aW5maWxlLm1hZT4nLCAnLW9tYWUnLCAnPG91dGZpbGUubWFlPic=

>  <s_epik_input>  (1) 
TiNDYzFbY0hdW2NIXW5jKGMxMilOM1tDQEhdKFtDSDJdMilbQ0gyXU4oW0NIMl1bQ0gyXTMpW0NIMl1bQ0gyXU9bQ0BIXTRbQ0BASF0oW0NIM10pW0NIMl1bQ0gyXVtDSDJdW0NIMl1bQ0BIXTRPW0NIMl1bQ0gzXQ==

>  <s_glide_docking_method>  (1) 
confgen

>  <s_i_glide_gridfile>  (1) 
gpcr_drd2_6luq_protein_autoprepared_prepared

>  <s_lp_Force_Field>  (1) 
S-OPLS

>  <s_lp_Variant>  (1) 
DiffSBDD_29_num_sample_50-3

>  <s_m_source_file>  (1) 
generated__ligand_DiffSBDD_2026-05-06_prepared.sdf

>  <GenAI_Model>  (1) 
DiffSBDD

>  <Protein>  (1) 
generic_title2

$$$$
DiffSBDD_10_num_sample_50
     RDKit          3D

  0  0  0  0  0  0  0  0  0  0999 V3000
M  V30 BEGIN CTAB
M  V30 COUNTS 71 72 0 0 1
M  V30 BEGIN ATOM
M  V30 1 C 7.318086 0.671337 -19.048325 0 CFG=2
M  V30 2 C 8.680142 4.691549 -13.349699 0
M  V30 3 C 5.780837 6.982380 -15.933396 0
M  V30 4 C 6.789541 5.882539 -19.481769 0 CFG=1
M  V30 5 C 7.729619 1.587891 -20.224772 0 CFG=2
M  V30 6 N 7.259181 3.020222 -14.352508 0
M  V30 7 N 5.936796 4.109894 -20.886805 0
M  V30 8 C 7.342139 3.924485 -20.752253 0 CFG=1
M  V30 9 S 8.247846 -0.962221 -18.945166 0
M  V30 10 C 9.264813 3.783390 -12.291384 0
M  V30 11 S 10.098762 -0.230752 -18.216178 0 CHG=-1
M  V30 12 C 5.820666 0.402227 -16.932615 0
M  V30 13 O 9.034861 6.569101 -8.994926 0
M  V30 14 O 7.677383 -1.811789 -17.891645 0
M  V30 15 C 6.457537 0.756794 -20.297128 0 CFG=2
M  V30 16 C 6.020556 6.413079 -13.437719 0
M  V30 17 C 5.522107 5.112258 -19.919038 0 CFG=2
M  V30 18 N 8.178695 4.961020 -10.375255 0
M  V30 19 N 7.241956 5.179272 -15.192848 0
M  V30 20 C 9.432696 4.481284 -10.937519 0
M  V30 21 C 9.326799 5.098211 -19.634926 0
M  V30 22 C 6.880517 1.224303 -17.682879 0
M  V30 23 C 8.947440 1.348565 -21.119627 0
M  V30 24 C 6.956367 5.890166 -17.946971 0
M  V30 25 C 6.416668 6.113395 -14.891866 0
M  V30 26 O 5.244687 1.475237 -20.136781 0
M  V30 27 C 7.766859 4.298769 -14.255649 0
M  V30 28 O 8.468700 -1.535942 -20.281692 0
M  V30 29 F 4.634844 5.926873 -20.484432 0
M  V30 30 N 5.434853 5.269314 -12.757988 0
M  V30 31 C 8.372221 5.330605 -8.981960 0
M  V30 32 C 7.938195 5.248139 -20.287077 0 CFG=2
M  V30 33 O 7.628424 2.950059 -19.792487 0
M  V30 34 C 6.013956 6.884651 -17.270106 0
M  V30 35 H 9.030766 5.713407 -13.353790 0
M  V30 36 H 5.094796 7.726661 -15.555730 0
M  V30 37 H 6.718253 6.920350 -19.812305 0
M  V30 38 H 7.615908 2.265548 -13.783068 0
M  V30 39 H 5.457056 3.228419 -20.704812 0
M  V30 40 H 7.754141 3.650101 -21.719748 0
M  V30 41 H 10.234819 3.446661 -12.645244 0
M  V30 42 H 8.658352 2.886456 -12.168710 0
M  V30 43 H 5.434827 0.969030 -16.087461 0
M  V30 44 H 4.981040 0.149253 -17.578235 0
M  V30 45 H 6.216311 -0.520255 -16.513774 0
M  V30 46 H 8.344345 7.233338 -9.091515 0
M  V30 47 H 6.392771 -0.087396 -20.980590 0
M  V30 48 H 6.901460 6.745110 -12.889006 0
M  V30 49 H 5.311007 7.239637 -13.401534 0
M  V30 50 H 5.035080 4.620280 -19.077149 0
M  V30 51 H 7.834219 5.761711 -10.884892 0
M  V30 52 H 10.135605 5.308845 -11.028073 0
M  V30 53 H 9.834911 3.752388 -10.239184 0
M  V30 54 H 9.293839 4.497452 -18.725231 0
M  V30 55 H 10.024877 4.616054 -20.318884 0
M  V30 56 H 9.739463 6.073043 -19.373758 0
M  V30 57 H 7.765056 1.342613 -17.057394 0
M  V30 58 H 6.476715 2.226792 -17.817876 0
M  V30 59 H 8.910784 0.377729 -21.604186 0
M  V30 60 H 9.019779 2.073962 -21.924453 0
M  V30 61 H 9.863700 1.419541 -20.535461 0
M  V30 62 H 7.971154 6.169655 -17.670035 0
M  V30 63 H 6.790797 4.872733 -17.595077 0
M  V30 64 H 4.585742 0.868700 -19.831374 0
M  V30 65 H 6.079298 4.492630 -12.858412 0
M  V30 66 H 5.382566 5.460286 -11.766435 0
M  V30 67 H 8.949372 4.582987 -8.436375 0
M  V30 68 H 7.418222 5.440958 -8.476253 0
M  V30 69 H 8.062150 5.847329 -21.190874 0
M  V30 70 H 5.498026 7.565272 -17.932197 0
M  V30 71 H 6.637263 2.755805 -15.103381 0
M  V30 END ATOM
M  V30 BEGIN BOND
M  V30 1 1 5 1
M  V30 2 1 8 7
M  V30 3 1 9 1
M  V30 4 1 10 2
M  V30 5 1 11 9
M  V30 6 2 14 9
M  V30 7 1 15 1
M  V30 8 1 15 5
M  V30 9 1 17 4
M  V30 10 1 17 7
M  V30 11 1 20 10
M  V30 12 1 20 18
M  V30 13 1 1 22 CFG=1
M  V30 14 1 22 12
M  V30 15 1 23 5
M  V30 16 1 24 4
M  V30 17 1 25 3
M  V30 18 1 25 16
M  V30 19 2 25 19
M  V30 20 1 26 15
M  V30 21 2 27 2
M  V30 22 1 27 6
M  V30 23 1 27 19
M  V30 24 2 28 9
M  V30 25 1 29 17
M  V30 26 1 30 16
M  V30 27 1 31 13
M  V30 28 1 31 18
M  V30 29 1 32 4
M  V30 30 1 32 8
M  V30 31 1 32 21
M  V30 32 1 5 33 CFG=1
M  V30 33 1 33 8
M  V30 34 2 34 3
M  V30 35 1 34 24
M  V30 36 1 35 2
M  V30 37 1 36 3
M  V30 38 1 4 37 CFG=3
M  V30 39 1 38 6
M  V30 40 1 39 7
M  V30 41 1 8 40 CFG=3
M  V30 42 1 41 10
M  V30 43 1 42 10
M  V30 44 1 43 12
M  V30 45 1 44 12
M  V30 46 1 45 12
M  V30 47 1 46 13
M  V30 48 1 15 47 CFG=3
M  V30 49 1 48 16
M  V30 50 1 49 16
M  V30 51 1 17 50 CFG=1
M  V30 52 1 51 18
M  V30 53 1 52 20
M  V30 54 1 53 20
M  V30 55 1 54 21
M  V30 56 1 55 21
M  V30 57 1 56 21
M  V30 58 1 57 22
M  V30 59 1 58 22
M  V30 60 1 59 23
M  V30 61 1 60 23
M  V30 62 1 61 23
M  V30 63 1 62 24
M  V30 64 1 63 24
M  V30 65 1 64 26
M  V30 66 1 65 30
M  V30 67 1 66 30
M  V30 68 1 67 31
M  V30 69 1 68 31
M  V30 70 1 32 69 CFG=3
M  V30 71 1 70 34
M  V30 72 1 71 6
M  V30 END BOND
M  V30 END CTAB
M  END
>  <i_epik_Tot_Q>  (1) 
-1

>  <i_epik_Tot_abs_Q>  (1) 
1

>  <i_i_glide_confnum>  (1) 
3498

>  <i_i_glide_lignum>  (1) 
43

>  <i_i_glide_posenum>  (1) 
391

>  <i_i_glide_rotatable_bonds>  (1) 
15

>  <i_lp_mmshare_version>  (1) 
72125

>  <i_m_source_file_index>  (1) 
11

>  <i_f3d_flags>  (1) 
0

>  <num_sample>  (1) 
50

>  <b_lp_Chiralities_Consistent>  (1) 
1

>  <r_epik_Charging_Adjusted_Penalty>  (1) 
1.239197207418439

>  <r_epik_Ionization_Penalty>  (1) 
1.2496715491914541

>  <r_epik_Ionization_Penalty_Charging>  (1) 
1.1069707349969355e-11

>  <r_epik_Ionization_Penalty_Neutral>  (1) 
1.2496715491803843

>  <r_epik_State_Penalty>  (1) 
1.2391972074073692

>  <r_glide_ring_energy>  (1) 
0

>  <r_i_docking_score>  (1) 
-2.9388362503917085

>  <r_i_glide_ecoul>  (1) 
-6.9033539795114853

>  <r_i_glide_eff_state_penalty>  (1) 
1.2391972074073692

>  <r_i_glide_einternal>  (1) 
12.896862209582956

>  <r_i_glide_emodel>  (1) 
-36.597094283844001

>  <r_i_glide_emodel_strain>  (1) 
1.5690667782526759

>  <r_i_glide_energy>  (1) 
-35.104642261662832

>  <r_i_glide_erotb>  (1) 
0.82803537691766171

>  <r_i_glide_esite>  (1) 
-0.10927960044774548

>  <r_i_glide_evdw>  (1) 
-28.201288282151349

>  <r_i_glide_gscore>  (1) 
-4.1780334577990779

>  <r_i_glide_gscore_strain>  (1) 
0

>  <r_i_glide_hbond>  (1) 
-0.16

>  <r_i_glide_ligand_efficiency>  (1) 
-0.08643636030563849

>  <r_i_glide_ligand_efficiency_ln>  (1) 
-0.64927135927620871

>  <r_i_glide_ligand_efficiency_sa>  (1) 
-0.2800202529056191

>  <r_i_glide_lipo>  (1) 
-1.8243114657459216

>  <r_i_glide_metal>  (1) 
-0

>  <r_i_glide_rewards>  (1) 
-0.4669102574887819

>  <r_lp_Energy>  (1) 
20.991564

>  <s_epik_Chemistry_Notes>  (1) 
This compound has an imine and may undergo hydrolysis. This compound contains an acetal/aminal-like group ( X-CH(R)-Y where X, Y are N, S, or O) that may be acid/base labile, releasing an aldehyde.

>  <s_epik_cmdline>  (1) 
J2VwaWtfcHl0aG9uJywgJy1waHQnLCAnMS4wJywgJy1waCcsICc3LjQnLCAnLXRuJywgJzgnLCAnLW1hJywgJzUwMCcsICctaW1hZScsICc8aW5maWxlLm1hZT4nLCAnLW9tYWUnLCAnPG91dGZpbGUubWFlPic=

>  <s_epik_input>  (1) 
W1NIXVMoPU8pKD1PKVtDQEBdMShbQ0gyXVtDSDNdKVtDQEBdKFtDSDNdKShbQ0BASF0xW09IXSlPW0NASF0oW0NAQEhdMltDSDNdKVtOSF1bQ0BASF0oRilbQ0BIXTJbQ0gyXS9bQ0hdPVtDSF1cQyhbQ0gyXVtOSDJdKT1OXEMoPU5cW0hdKVxbQ0gyXVtDSDJdW0NIMl1bTkhdW0NIMl1bT0hd

>  <s_glide_docking_method>  (1) 
confgen

>  <s_i_glide_gridfile>  (1) 
gpcr_drd2_6luq_protein_autoprepared_prepared

>  <s_lp_Force_Field>  (1) 
S-OPLS

>  <s_lp_Variant>  (1) 
DiffSBDD_10_num_sample_50-23

>  <s_m_source_file>  (1) 
generated__ligand_DiffSBDD_2026-05-06_prepared.sdf

>  <GenAI_Model>  (1) 
DiffSBDD

>  <Protein>  (1) 
generic_title2

$$$$
DiffSBDD_10_num_sample_50
     RDKit          3D

  0  0  0  0  0  0  0  0  0  0999 V3000
M  V30 BEGIN CTAB
M  V30 COUNTS 71 72 0 0 1
M  V30 BEGIN ATOM
M  V30 1 C 6.335097 5.358860 -19.519838 0 CFG=2
M  V30 2 C 10.862746 8.711560 -7.343892 0
M  V30 3 C 9.293615 7.570331 -11.277275 0
M  V30 4 C 7.339022 5.402991 -13.661094 0 CFG=1
M  V30 5 C 6.907323 4.462846 -18.391144 0 CFG=2
M  V30 6 N 12.908008 8.403256 -8.591920 0
M  V30 7 N 8.407574 4.668758 -15.695124 0
M  V30 8 C 6.999311 4.667045 -15.925998 0 CFG=1
M  V30 9 S 5.595926 4.463438 -21.007126 0
M  V30 10 C 11.503303 8.800180 -5.978622 0
M  V30 11 S 6.830995 5.244934 -22.537086 0 CHG=-1
M  V30 12 C 5.794546 7.741803 -20.377484 0
M  V30 13 O 12.205531 6.554586 -1.917610 0
M  V30 14 O 5.832586 3.013955 -20.968930 0
M  V30 15 C 7.829753 5.157988 -19.368116 0 CFG=2
M  V30 16 C 10.022521 6.190232 -9.208340 0
M  V30 17 C 8.602717 4.737055 -14.257557 0 CFG=1
M  V30 18 N 11.848705 7.590009 -3.891667 0
M  V30 19 N 10.884703 8.451223 -9.713323 0
M  V30 20 C 11.217620 7.516463 -5.195874 0
M  V30 21 C 5.928515 6.911116 -15.293542 0
M  V30 22 C 5.647677 6.707429 -19.252357 0
M  V30 23 C 6.870599 2.937795 -18.321601 0
M  V30 24 C 7.541980 6.725395 -12.884695 0
M  V30 25 C 10.121386 7.481095 -10.045882 0
M  V30 26 O 8.544802 6.169309 -18.691789 0
M  V30 27 C 11.540423 8.527041 -8.494427 0
M  V30 28 O 4.234840 4.969287 -21.244625 0
M  V30 29 F 9.739319 5.369300 -13.990836 0
M  V30 30 N 9.034838 6.278806 -8.153125 0
M  V30 31 C 11.598159 6.363725 -3.168314 0
M  V30 32 C 6.318250 5.489699 -14.818976 0 CFG=2
M  V30 33 O 6.634843 5.179931 -17.174400 0
M  V30 34 C 8.399786 6.627006 -11.639391 0
M  V30 35 H 9.784778 8.801080 -7.371802 0
M  V30 36 H 9.440980 8.455896 -11.877743 0
M  V30 37 H 6.932825 4.690091 -12.941096 0
M  V30 38 H 13.502292 8.579461 -7.796521 0
M  V30 39 H 8.839462 5.484672 -16.103593 0
M  V30 40 H 6.637329 3.643622 -15.828117 0
M  V30 41 H 11.087773 9.666439 -5.462842 0
M  V30 42 H 12.575393 8.972785 -6.061928 0
M  V30 43 H 5.369760 8.699987 -20.077815 0
M  V30 44 H 6.844552 7.906256 -20.621843 0
M  V30 45 H 5.283485 7.430640 -21.287790 0
M  V30 46 H 12.238251 5.714963 -1.481728 0
M  V30 47 H 8.399099 4.579509 -20.093389 0
M  V30 48 H 9.834833 5.320906 -9.835628 0
M  V30 49 H 10.980168 5.993055 -8.726052 0
M  V30 50 H 8.707498 3.725301 -13.864773 0
M  V30 51 H 11.496111 8.372606 -3.361109 0
M  V30 52 H 11.605522 6.655220 -5.743301 0
M  V30 53 H 10.141305 7.369250 -5.091667 0
M  V30 54 H 6.791927 7.473258 -15.646004 0
M  V30 55 H 5.200644 6.873340 -16.104175 0
M  V30 56 H 5.454996 7.484173 -14.496807 0
M  V30 57 H 4.592018 6.523992 -19.052911 0
M  V30 58 H 6.050844 7.160515 -18.348844 0
M  V30 59 H 7.364157 2.504698 -19.190094 0
M  V30 60 H 7.423385 2.556819 -17.465348 0
M  V30 61 H 5.843430 2.574407 -18.286264 0
M  V30 62 H 6.571606 7.086130 -12.542118 0
M  V30 63 H 7.948706 7.498589 -13.536142 0
M  V30 64 H 7.979487 6.464202 -17.992220 0
M  V30 65 H 8.171765 6.689413 -8.520950 0
M  V30 66 H 8.788867 5.360517 -7.817595 0
M  V30 67 H 12.055699 5.520953 -3.684526 0
M  V30 68 H 10.531219 6.169295 -3.048632 0
M  V30 69 H 5.403182 4.971738 -14.534485 0
M  V30 70 H 8.254835 5.750506 -11.029911 0
M  V30 71 H 13.364405 8.441924 -9.491683 0
M  V30 END ATOM
M  V30 BEGIN BOND
M  V30 1 1 5 1
M  V30 2 1 8 7
M  V30 3 1 9 1
M  V30 4 1 10 2
M  V30 5 1 11 9
M  V30 6 2 14 9
M  V30 7 1 15 1
M  V30 8 1 15 5
M  V30 9 1 17 4
M  V30 10 1 17 7
M  V30 11 1 20 10
M  V30 12 1 20 18
M  V30 13 1 1 22 CFG=1
M  V30 14 1 22 12
M  V30 15 1 23 5
M  V30 16 1 24 4
M  V30 17 1 25 3
M  V30 18 1 25 16
M  V30 19 2 25 19
M  V30 20 1 26 15
M  V30 21 2 27 2
M  V30 22 1 27 6
M  V30 23 1 27 19
M  V30 24 2 28 9
M  V30 25 1 29 17
M  V30 26 1 30 16
M  V30 27 1 31 13
M  V30 28 1 31 18
M  V30 29 1 32 4
M  V30 30 1 32 8
M  V30 31 1 32 21
M  V30 32 1 5 33 CFG=1
M  V30 33 1 33 8
M  V30 34 2 34 3
M  V30 35 1 34 24
M  V30 36 1 35 2
M  V30 37 1 36 3
M  V30 38 1 4 37 CFG=1
M  V30 39 1 38 6
M  V30 40 1 39 7
M  V30 41 1 8 40 CFG=3
M  V30 42 1 41 10
M  V30 43 1 42 10
M  V30 44 1 43 12
M  V30 45 1 44 12
M  V30 46 1 45 12
M  V30 47 1 46 13
M  V30 48 1 15 47 CFG=3
M  V30 49 1 48 16
M  V30 50 1 49 16
M  V30 51 1 17 50 CFG=1
M  V30 52 1 51 18
M  V30 53 1 52 20
M  V30 54 1 53 20
M  V30 55 1 54 21
M  V30 56 1 55 21
M  V30 57 1 56 21
M  V30 58 1 57 22
M  V30 59 1 58 22
M  V30 60 1 59 23
M  V30 61 1 60 23
M  V30 62 1 61 23
M  V30 63 1 62 24
M  V30 64 1 63 24
M  V30 65 1 64 26
M  V30 66 1 65 30
M  V30 67 1 66 30
M  V30 68 1 67 31
M  V30 69 1 68 31
M  V30 70 1 32 69 CFG=1
M  V30 71 1 70 34
M  V30 72 1 71 6
M  V30 END BOND
M  V30 END CTAB
M  END
>  <i_epik_Tot_Q>  (1) 
-1

>  <i_epik_Tot_abs_Q>  (1) 
1

>  <i_i_glide_confnum>  (1) 
5197

>  <i_i_glide_lignum>  (1) 
40

>  <i_i_glide_posenum>  (1) 
293

>  <i_i_glide_rotatable_bonds>  (1) 
15

>  <i_lp_mmshare_version>  (1) 
72125

>  <i_m_source_file_index>  (1) 
11

>  <i_f3d_flags>  (1) 
0

>  <num_sample>  (1) 
50

>  <b_lp_Chiralities_Consistent>  (1) 
1

>  <r_epik_Charging_Adjusted_Penalty>  (1) 
1.239197207418439

>  <r_epik_Ionization_Penalty>  (1) 
1.2496715491914541

>  <r_epik_Ionization_Penalty_Charging>  (1) 
1.1069707349969355e-11

>  <r_epik_Ionization_Penalty_Neutral>  (1) 
1.2496715491803843

>  <r_epik_State_Penalty>  (1) 
1.2391972074073692

>  <r_glide_ring_energy>  (1) 
1.6974229991783112

>  <r_i_docking_score>  (1) 
-2.9181134013966492

>  <r_i_glide_ecoul>  (1) 
-4.4444940810375497

>  <r_i_glide_eff_state_penalty>  (1) 
1.2391972074073692

>  <r_i_glide_einternal>  (1) 
8.575516877115728

>  <r_i_glide_emodel>  (1) 
-42.082990368866433

>  <r_i_glide_emodel_strain>  (1) 
6.6823800407258886

>  <r_i_glide_energy>  (1) 
-43.776367481384206

>  <r_i_glide_erotb>  (1) 
0.82803537691766171

>  <r_i_glide_esite>  (1) 
-0.077435863767960036

>  <r_i_glide_evdw>  (1) 
-39.331873400346659

>  <r_i_glide_gscore>  (1) 
-4.1573106088040186

>  <r_i_glide_gscore_strain>  (1) 
0.67059501018147216

>  <r_i_glide_hbond>  (1) 
-0.18746540984357282

>  <r_i_glide_ligand_efficiency>  (1) 
-0.085826864746960274

>  <r_i_glide_ligand_efficiency_ln>  (1) 
-0.64469310067697427

>  <r_i_glide_ligand_efficiency_sa>  (1) 
-0.27804572390089893

>  <r_i_glide_lipo>  (1) 
-2.0821002369207497

>  <r_i_glide_metal>  (1) 
-0

>  <r_i_glide_rewards>  (1) 
-0.67567170319790337

>  <r_lp_Energy>  (1) 
23.962672999999999

>  <s_epik_Chemistry_Notes>  (1) 
This compound has an imine and may undergo hydrolysis. This compound contains an acetal/aminal-like group ( X-CH(R)-Y where X, Y are N, S, or O) that may be acid/base labile, releasing an aldehyde.

>  <s_epik_cmdline>  (1) 
J2VwaWtfcHl0aG9uJywgJy1waHQnLCAnMS4wJywgJy1waCcsICc3LjQnLCAnLXRuJywgJzgnLCAnLW1hJywgJzUwMCcsICctaW1hZScsICc8aW5maWxlLm1hZT4nLCAnLW9tYWUnLCAnPG91dGZpbGUubWFlPic=

>  <s_epik_input>  (1) 
W1NIXVMoPU8pKD1PKVtDQEBdMShbQ0gyXVtDSDNdKVtDQEBdKFtDSDNdKShbQ0BASF0xW09IXSlPW0NASF0oW0NAQEhdMltDSDNdKVtOSF1bQ0BASF0oRilbQ0BIXTJbQ0gyXVxbQ0hdPVtDSF1cQyhbQ0gyXVtOSDJdKT1OXEMoPU5cW0hdKVxbQ0gyXVtDSDJdW0NIMl1bTkhdW0NIMl1bT0hd

>  <s_glide_docking_method>  (1) 
confgen

>  <s_i_glide_gridfile>  (1) 
gpcr_drd2_6luq_protein_autoprepared_prepared

>  <s_lp_Force_Field>  (1) 
S-OPLS

>  <s_lp_Variant>  (1) 
DiffSBDD_10_num_sample_50-20

>  <s_m_source_file>  (1) 
generated__ligand_DiffSBDD_2026-05-06_prepared.sdf

>  <GenAI_Model>  (1) 
DiffSBDD

>  <Protein>  (1) 
generic_title2

$$$$
DiffSBDD_10_num_sample_50
     RDKit          3D

  0  0  0  0  0  0  0  0  0  0999 V3000
M  V30 BEGIN CTAB
M  V30 COUNTS 72 73 0 0 1
M  V30 BEGIN ATOM
M  V30 1 C 11.834818 8.126515 -5.556478 0 CFG=2
M  V30 2 C 7.492316 1.360419 -15.475008 0
M  V30 3 C 8.641636 3.316873 -12.464386 0
M  V30 4 C 9.815174 5.625939 -9.604403 0 CFG=1
M  V30 5 C 11.293357 9.079717 -6.650119 0 CFG=2
M  V30 6 N 6.151592 1.726460 -13.493760 0
M  V30 7 N 8.957479 6.565067 -7.614579 0
M  V30 8 C 10.162530 7.231194 -7.998796 0 CFG=1
M  V30 9 S 12.648892 8.969298 -4.071052 0
M  V30 10 C 7.209713 -0.120267 -15.602889 0
M  V30 11 S 11.034847 10.169301 -3.570040 0 CHG=-1
M  V30 12 C 11.295895 6.169356 -3.845448 0
M  V30 13 O 4.234904 -1.327379 -18.154037 0
M  V30 14 O 12.935695 8.096801 -2.923783 0
M  V30 15 C 12.634839 8.569321 -6.840090 0 CFG=2
M  V30 16 C 8.228691 5.598710 -13.713660 0
M  V30 17 C 8.771229 5.427151 -8.508806 0 CFG=1
M  V30 18 N 6.195438 -1.782951 -17.187401 0 CHG=1
M  V30 19 N 7.278732 3.507059 -14.480047 0
M  V30 20 C 6.801541 -0.443115 -17.048375 0
M  V30 21 C 9.805952 8.170519 -10.330369 0
M  V30 22 C 11.273085 6.730784 -5.257977 0
M  V30 23 C 11.434880 10.576615 -6.579106 0
M  V30 24 C 9.433523 5.310326 -11.058275 0
M  V30 25 C 7.992773 4.095347 -13.602287 0
M  V30 26 O 12.826629 7.859221 -8.030858 0
M  V30 27 C 6.988572 2.151079 -14.511629 0
M  V30 28 O 13.765577 9.769315 -4.573203 0
M  V30 29 F 7.542584 5.369288 -9.001636 0
M  V30 30 N 7.099438 6.388689 -13.247544 0
M  V30 31 C 4.740598 -1.833527 -16.934633 0
M  V30 32 C 10.379791 7.033268 -9.481959 0 CFG=2
M  V30 33 O 10.284388 8.589793 -7.600390 0
M  V30 34 C 9.266179 3.846802 -11.376669 0
M  V30 35 H 8.142439 1.789759 -16.224081 0
M  V30 36 H 8.580151 2.244393 -12.558382 0
M  V30 37 H 10.579158 4.983600 -9.186061 0
M  V30 38 H 5.857471 0.763280 -13.408638 0
M  V30 39 H 8.132198 7.150076 -7.748215 0
M  V30 40 H 10.943986 6.628605 -7.578643 0
M  V30 41 H 6.433894 -0.428959 -14.901083 0
M  V30 42 H 8.117993 -0.657844 -15.332177 0
M  V30 43 H 10.580016 5.371797 -3.837681 0
M  V30 44 H 12.235389 5.715856 -3.577865 0
M  V30 45 H 11.033191 6.853178 -3.050927 0
M  V30 46 H 3.320183 -1.087684 -18.044270 0
M  V30 47 H 13.458846 9.275779 -6.785158 0
M  V30 48 H 9.196676 5.931914 -13.370756 0
M  V30 49 H 8.293238 5.815154 -14.780167 0
M  V30 50 H 8.929653 4.497335 -7.964090 0
M  V30 51 H 6.676949 -2.417619 -16.559557 0
M  V30 52 H 7.692333 -0.409067 -17.675779 0
M  V30 53 H 6.122157 0.315153 -17.441797 0
M  V30 54 H 8.869955 8.569115 -9.962333 0
M  V30 55 H 10.533582 8.969243 -10.283085 0
M  V30 56 H 9.692440 7.921784 -11.384173 0
M  V30 57 H 10.212687 6.763410 -5.484721 0
M  V30 58 H 11.770786 5.991033 -5.883928 0
M  V30 59 H 12.141525 10.928426 -5.841028 0
M  V30 60 H 11.834840 11.023072 -7.480306 0
M  V30 61 H 10.492928 10.969311 -6.289693 0
M  V30 62 H 10.236477 5.686515 -11.688049 0
M  V30 63 H 8.515610 5.859542 -11.238813 0
M  V30 64 H 12.320957 8.304694 -8.696864 0
M  V30 65 H 7.031005 6.320117 -12.240681 0
M  V30 66 H 7.259681 7.364967 -13.447250 0
M  V30 67 H 4.438699 -1.226548 -16.078249 0
M  V30 68 H 4.415921 -2.862421 -16.791017 0
M  V30 69 H 11.435288 6.973611 -9.735826 0
M  V30 70 H 9.688205 3.169415 -10.655069 0
M  V30 71 H 5.794644 2.366360 -12.800214 0
M  V30 72 H 6.326252 -2.102422 -18.135806 0
M  V30 END ATOM
M  V30 BEGIN BOND
M  V30 1 1 5 1
M  V30 2 1 8 7
M  V30 3 1 9 1
M  V30 4 1 10 2
M  V30 5 1 11 9
M  V30 6 2 14 9
M  V30 7 1 15 1
M  V30 8 1 15 5
M  V30 9 1 17 4
M  V30 10 1 17 7
M  V30 11 1 20 10
M  V30 12 1 20 18
M  V30 13 1 1 22 CFG=1
M  V30 14 1 22 12
M  V30 15 1 23 5
M  V30 16 1 24 4
M  V30 17 1 25 3
M  V30 18 1 25 16
M  V30 19 2 25 19
M  V30 20 1 26 15
M  V30 21 2 27 2
M  V30 22 1 27 6
M  V30 23 1 27 19
M  V30 24 2 28 9
M  V30 25 1 29 17
M  V30 26 1 30 16
M  V30 27 1 31 13
M  V30 28 1 31 18
M  V30 29 1 32 4
M  V30 30 1 32 8
M  V30 31 1 32 21
M  V30 32 1 5 33 CFG=3
M  V30 33 1 33 8
M  V30 34 2 34 3
M  V30 35 1 34 24
M  V30 36 1 35 2
M  V30 37 1 36 3
M  V30 38 1 4 37 CFG=1
M  V30 39 1 38 6
M  V30 40 1 39 7
M  V30 41 1 8 40 CFG=1
M  V30 42 1 41 10
M  V30 43 1 42 10
M  V30 44 1 43 12
M  V30 45 1 44 12
M  V30 46 1 45 12
M  V30 47 1 46 13
M  V30 48 1 15 47 CFG=1
M  V30 49 1 48 16
M  V30 50 1 49 16
M  V30 51 1 17 50 CFG=1
M  V30 52 1 51 18
M  V30 53 1 52 20
M  V30 54 1 53 20
M  V30 55 1 54 21
M  V30 56 1 55 21
M  V30 57 1 56 21
M  V30 58 1 57 22
M  V30 59 1 58 22
M  V30 60 1 59 23
M  V30 61 1 60 23
M  V30 62 1 61 23
M  V30 63 1 62 24
M  V30 64 1 63 24
M  V30 65 1 64 26
M  V30 66 1 65 30
M  V30 67 1 66 30
M  V30 68 1 67 31
M  V30 69 1 68 31
M  V30 70 1 32 69 CFG=1
M  V30 71 1 70 34
M  V30 72 1 71 6
M  V30 73 1 72 18
M  V30 END BOND
M  V30 END CTAB
M  END
>  <i_epik_Tot_Q>  (1) 
0

>  <i_epik_Tot_abs_Q>  (1) 
2

>  <i_i_glide_confnum>  (1) 
351

>  <i_i_glide_lignum>  (1) 
21

>  <i_i_glide_posenum>  (1) 
20

>  <i_i_glide_rotatable_bonds>  (1) 
15

>  <i_lp_mmshare_version>  (1) 
72125

>  <i_m_source_file_index>  (1) 
11

>  <i_f3d_flags>  (1) 
0

>  <num_sample>  (1) 
50

>  <b_lp_Chiralities_Consistent>  (1) 
1

>  <r_epik_Charging_Adjusted_Penalty>  (1) 
0.33639934582642134

>  <r_epik_Ionization_Penalty>  (1) 
0.23315943830934333

>  <r_epik_Ionization_Penalty_Charging>  (1) 
0.10316865490585193

>  <r_epik_Ionization_Penalty_Neutral>  (1) 
0.12999078340349141

>  <r_epik_State_Penalty>  (1) 
0.23323069092056939

>  <r_glide_ring_energy>  (1) 
0

>  <r_i_docking_score>  (1) 
-2.91216209725305

>  <r_i_glide_ecoul>  (1) 
-8.1481729328406303

>  <r_i_glide_eff_state_penalty>  (1) 
0.23323069092056939

>  <r_i_glide_einternal>  (1) 
16.505447379074624

>  <r_i_glide_emodel>  (1) 
-0.52723952167785981

>  <r_i_glide_emodel_strain>  (1) 
6.4457280177703069

>  <r_i_glide_energy>  (1) 
-8.4970479117964892

>  <r_i_glide_erotb>  (1) 
0.82510599487301828

>  <r_i_glide_esite>  (1) 
-0.14139421857527013

>  <r_i_glide_evdw>  (1) 
-0.34887497895585817

>  <r_i_glide_gscore>  (1) 
-3.1453927881736194

>  <r_i_glide_gscore_strain>  (1) 
0.61143200444257673

>  <r_i_glide_hbond>  (1) 
-0.482029110625879

>  <r_i_glide_ligand_efficiency>  (1) 
-0.085651826389795585

>  <r_i_glide_ligand_efficiency_ln>  (1) 
-0.64337829066322627

>  <r_i_glide_ligand_efficiency_sa>  (1) 
-0.27747866757335199

>  <r_i_glide_lipo>  (1) 
-1.6575062919539334

>  <r_i_glide_metal>  (1) 
-0

>  <r_i_glide_rewards>  (1) 
-1.0613314774602451

>  <r_lp_Energy>  (1) 
25.793744999999998

>  <s_epik_Chemistry_Notes>  (1) 
This compound has an imine and may undergo hydrolysis. This compound contains an acetal/aminal-like group ( X-CH(R)-Y where X, Y are N, S, or O) that may be acid/base labile, releasing an aldehyde.

>  <s_epik_cmdline>  (1) 
J2VwaWtfcHl0aG9uJywgJy1waHQnLCAnMS4wJywgJy1waCcsICc3LjQnLCAnLXRuJywgJzgnLCAnLW1hJywgJzUwMCcsICctaW1hZScsICc8aW5maWxlLm1hZT4nLCAnLW9tYWUnLCAnPG91dGZpbGUubWFlPic=

>  <s_epik_input>  (1) 
W1NIXVMoPU8pKD1PKVtDQEBdMShbQ0gyXVtDSDNdKVtDQEBdKFtDSDNdKShbQ0BASF0xW09IXSlPW0NASF0oW0NAQEhdMltDSDNdKVtOSF1bQ0BASF0oRilbQ0BIXTJbQ0gyXS9bQ0hdPVtDSF1cQyhbQ0gyXVtOSDJdKT1OL0MoPU4vW0hdKS9bQ0gyXVtDSDJdW0NIMl1bTkhdW0NIMl1bT0hd

>  <s_glide_docking_method>  (1) 
confgen

>  <s_i_glide_gridfile>  (1) 
gpcr_drd2_6luq_protein_autoprepared_prepared

>  <s_lp_Force_Field>  (1) 
S-OPLS

>  <s_lp_Variant>  (1) 
DiffSBDD_10_num_sample_50-1

>  <s_m_source_file>  (1) 
generated__ligand_DiffSBDD_2026-05-06_prepared.sdf

>  <GenAI_Model>  (1) 
DiffSBDD

>  <Protein>  (1) 
generic_title2

$$$$
DiffSBDD_28_num_sample_50
     RDKit          3D

  0  0  0  0  0  0  0  0  0  0999 V3000
M  V30 BEGIN CTAB
M  V30 COUNTS 71 73 0 0 1
M  V30 BEGIN ATOM
M  V30 1 N 9.123971 5.358033 -11.770803 0 CFG=2 CHG=1
M  V30 2 C 9.116385 4.088759 -16.797358 0
M  V30 3 C 11.383057 8.665164 -6.094292 0 CFG=2
M  V30 4 C 9.957173 6.170237 -12.682292 0
M  V30 5 N 6.216409 -0.198019 -17.359057 0
M  V30 6 O 7.963316 4.969275 -7.830253 0 CHG=-1
M  V30 7 C 8.100971 4.536344 -12.507923 0 CFG=1
M  V30 8 N 7.123520 5.459802 -10.691627 0
M  V30 9 F 5.748286 -0.630661 -15.091635 0
M  V30 10 C 12.466205 7.990543 -8.146716 0
M  V30 11 O 5.835002 3.909395 -11.751664 0
M  V30 12 C 12.343806 9.138091 -7.161470 0
M  V30 13 C 11.155792 7.197494 -8.009078 0 CFG=1
M  V30 14 C 10.327266 7.953446 -6.942947 0
M  V30 15 O 7.034894 4.413635 -15.688893 0
M  V30 16 N 7.085088 1.342148 -15.922056 0
M  V30 17 N 5.071557 -1.686199 -18.904178 0
M  V30 18 C 7.166568 0.793218 -17.145681 0
M  V30 19 C 7.971162 3.645038 -15.898278 0
M  V30 20 C 8.611768 3.112729 -12.821059 0
M  V30 21 C 7.347643 -0.777022 -19.608545 0 CFG=2
M  V30 22 C 7.748810 2.238695 -13.777994 0
M  V30 23 F 7.172358 -2.057391 -21.690382 0
M  V30 24 C 9.114931 6.312937 -9.382918 0 CFG=1
M  V30 25 F 8.483981 -1.314212 -19.157081 0
M  V30 26 O 8.004131 1.152487 -17.970475 0
M  V30 27 O 9.834832 4.182521 -8.691969 0
M  V30 28 C 8.060850 2.227117 -15.298268 0 CFG=1
M  V30 29 C 10.912228 9.846068 -5.247439 0
M  V30 30 C 8.384922 6.161624 -10.756666 0 CFG=1
M  V30 31 C 5.484442 -2.134711 -20.124092 0
M  V30 32 C 8.966054 5.050341 -8.557450 0
M  V30 33 C 6.860049 4.570105 -11.617447 0
M  V30 34 C 5.213090 -0.546088 -16.309973 0
M  V30 35 C 6.106009 -0.923320 -18.600453 0
M  V30 36 C 6.642958 -1.693937 -20.510559 0
M  V30 37 C 10.473577 7.031481 -9.380922 0
M  V30 38 H 10.072130 3.829381 -16.344581 0
M  V30 39 H 9.045931 3.601808 -17.770381 0
M  V30 40 H 9.085205 5.167847 -16.948099 0
M  V30 41 H 11.834876 7.915866 -5.445315 0
M  V30 42 H 9.344956 6.969675 -13.091658 0
M  V30 43 H 10.809842 6.623240 -12.180857 0
M  V30 44 H 10.329904 5.572307 -13.512918 0
M  V30 45 H 7.837289 5.063998 -13.422771 0
M  V30 46 H 6.481901 5.646427 -9.929388 0
M  V30 47 H 13.319570 7.369436 -7.891599 0
M  V30 48 H 12.637437 8.365903 -9.157163 0
M  V30 49 H 13.302089 9.473839 -6.762007 0
M  V30 50 H 11.834842 9.957228 -7.677720 0
M  V30 51 H 11.402777 6.213454 -7.605734 0
M  V30 52 H 9.669491 8.686984 -7.413131 0
M  V30 53 H 9.699943 7.283446 -6.352518 0
M  V30 54 H 6.373681 0.954760 -15.315604 0
M  V30 55 H 8.660245 2.568716 -11.891649 0
M  V30 56 H 9.657453 3.165020 -13.091686 0
M  V30 57 H 7.473263 0.197286 -20.082487 0
M  V30 58 H 6.693001 2.462400 -13.630321 0
M  V30 59 H 7.862024 1.207015 -13.438361 0
M  V30 60 H 8.634831 7.028025 -8.745015 0
M  V30 61 H 9.032279 1.769764 -15.491810 0
M  V30 62 H 11.084190 10.807561 -5.731978 0
M  V30 63 H 9.851422 9.769574 -5.091767 0
M  V30 64 H 11.411976 9.868755 -4.279176 0
M  V30 65 H 8.181053 7.156913 -11.152277 0
M  V30 66 H 4.850564 -2.808379 -20.681690 0
M  V30 67 H 4.400776 0.173023 -16.269848 0
M  V30 68 H 4.761025 -1.529297 -16.448852 0
M  V30 69 H 11.158348 6.569319 -10.063044 0
M  V30 70 H 10.311123 8.029255 -9.791885 0
M  V30 71 H 9.704801 4.713997 -11.247487 0
M  V30 END ATOM
M  V30 BEGIN BOND
M  V30 1 1 4 1
M  V30 2 1 7 1
M  V30 3 1 12 3
M  V30 4 1 12 10
M  V30 5 1 13 10
M  V30 6 1 14 3
M  V30 7 1 14 13
M  V30 8 1 18 5
M  V30 9 1 18 16
M  V30 10 1 19 2
M  V30 11 2 19 15
M  V30 12 1 20 7
M  V30 13 1 22 20
M  V30 14 1 25 21
M  V30 15 2 26 18
M  V30 16 1 28 16
M  V30 17 1 28 19
M  V30 18 1 28 22
M  V30 19 1 29 3
M  V30 20 1 30 1
M  V30 21 1 30 8
M  V30 22 1 30 24
M  V30 23 1 31 17
M  V30 24 1 32 6
M  V30 25 1 32 24
M  V30 26 2 32 27
M  V30 27 1 33 7
M  V30 28 1 33 8
M  V30 29 2 33 11
M  V30 30 1 34 5
M  V30 31 1 34 9
M  V30 32 1 35 5
M  V30 33 2 35 17
M  V30 34 1 35 21
M  V30 35 1 36 21
M  V30 36 1 36 23
M  V30 37 2 36 31
M  V30 38 1 37 13
M  V30 39 1 37 24
M  V30 40 1 38 2
M  V30 41 1 39 2
M  V30 42 1 40 2
M  V30 43 1 3 41 CFG=1
M  V30 44 1 42 4
M  V30 45 1 43 4
M  V30 46 1 44 4
M  V30 47 1 7 45 CFG=3
M  V30 48 1 46 8
M  V30 49 1 47 10
M  V30 50 1 48 10
M  V30 51 1 49 12
M  V30 52 1 50 12
M  V30 53 1 13 51 CFG=1
M  V30 54 1 52 14
M  V30 55 1 53 14
M  V30 56 1 54 16
M  V30 57 1 55 20
M  V30 58 1 56 20
M  V30 59 1 21 57 CFG=3
M  V30 60 1 58 22
M  V30 61 1 59 22
M  V30 62 1 24 60 CFG=1
M  V30 63 1 28 61 CFG=1
M  V30 64 1 62 29
M  V30 65 1 63 29
M  V30 66 1 64 29
M  V30 67 1 30 65 CFG=3
M  V30 68 1 66 31
M  V30 69 1 67 34
M  V30 70 1 68 34
M  V30 71 1 69 37
M  V30 72 1 70 37
M  V30 73 1 1 71 CFG=1
M  V30 END BOND
M  V30 END CTAB
M  END
>  <i_epik_Tot_Q>  (1) 
0

>  <i_epik_Tot_abs_Q>  (1) 
2

>  <i_i_glide_confnum>  (1) 
2331

>  <i_i_glide_lignum>  (1) 
69

>  <i_i_glide_posenum>  (1) 
265

>  <i_i_glide_rotatable_bonds>  (1) 
13

>  <i_lp_mmshare_version>  (1) 
72125

>  <i_m_source_file_index>  (1) 
29

>  <i_f3d_flags>  (1) 
0

>  <num_sample>  (1) 
50

>  <b_lp_Chiralities_Consistent>  (1) 
1

>  <r_epik_Charging_Adjusted_Penalty>  (1) 
0.054083419880676768

>  <r_epik_Ionization_Penalty>  (1) 
0.12983459298085004

>  <r_epik_Ionization_Penalty_Charging>  (1) 
0.054083419880676768

>  <r_epik_Ionization_Penalty_Neutral>  (1) 
0.075751173100173264

>  <r_epik_State_Penalty>  (1) 
-0

>  <r_glide_ring_energy>  (1) 
0

>  <r_i_docking_score>  (1) 
-2.9117093085961159

>  <r_i_glide_ecoul>  (1) 
-3.3846853837719184

>  <r_i_glide_eff_state_penalty>  (1) 
-0

>  <r_i_glide_einternal>  (1) 
10.460375538629069

>  <r_i_glide_emodel>  (1) 
-24.349557084635769

>  <r_i_glide_emodel_strain>  (1) 
4.0425029937584611

>  <r_i_glide_energy>  (1) 
-29.352323830799151

>  <r_i_glide_erotb>  (1) 
0.66137813184917615

>  <r_i_glide_esite>  (1) 
-0.21406922686388891

>  <r_i_glide_evdw>  (1) 
-25.967638447027234

>  <r_i_glide_gscore>  (1) 
-2.9117093085961159

>  <r_i_glide_gscore_strain>  (1) 
0.010625748439615279

>  <r_i_glide_hbond>  (1) 
-0.0053480143644543668

>  <r_i_glide_ligand_efficiency>  (1) 
-0.078694846178273409

>  <r_i_glide_ligand_efficiency_ln>  (1) 
-0.63148148888348732

>  <r_i_glide_ligand_efficiency_sa>  (1) 
-0.26222868604715971

>  <r_i_glide_lipo>  (1) 
-1.9174941365488953

>  <r_i_glide_metal>  (1) 
-0

>  <r_i_glide_rewards>  (1) 
0.35928291880947982

>  <r_lp_Energy>  (1) 
31.855165999999997

>  <r_lp_tautomer_probability>  (1) 
1

>  <s_epik_Chemistry_Notes>  (1) 
This compound has an imine and may undergo hydrolysis. This compound contains an acetal/aminal-like group ( X-CH(R)-Y where X, Y are N, S, or O) that may be acid/base labile, releasing an aldehyde.

>  <s_epik_cmdline>  (1) 
J2VwaWtfcHl0aG9uJywgJy1waHQnLCAnMS4wJywgJy1waCcsICc3LjQnLCAnLXRuJywgJzgnLCAnLW1hJywgJzUwMCcsICctaW1hZScsICc8aW5maWxlLm1hZT4nLCAnLW9tYWUnLCAnPG91dGZpbGUubWFlPic=

>  <s_epik_input>  (1) 
W0NIM11bQ0BASF0xW0NIMl1bQ0gyXVtDQEBIXShbQ0gyXTEpW0NIMl1bQ0BIXShDKD1PKVtPSF0pW0NAQEhdMltOSF1DKD1PKVtDQEBIXShOMltDSDNdKVtDSDJdW0NIMl1bQ0BIXShDKD1PKVtDSDNdKVtOSF1DKD1PKU4oW0NIMl1GKUMoW0NASF0zRik9TltDSF09QzNG

>  <s_glide_docking_method>  (1) 
confgen

>  <s_i_glide_gridfile>  (1) 
gpcr_drd2_6luq_protein_autoprepared_prepared

>  <s_lp_Force_Field>  (1) 
S-OPLS

>  <s_lp_Variant>  (1) 
DiffSBDD_28_num_sample_50-1

>  <s_m_source_file>  (1) 
generated__ligand_DiffSBDD_2026-05-06_prepared.sdf

>  <GenAI_Model>  (1) 
DiffSBDD

>  <Protein>  (1) 
generic_title2

$$$$
DiffSBDD_29_num_sample_50
     RDKit          3D

  0  0  0  0  0  0  0  0  0  0999 V3000
M  V30 BEGIN CTAB
M  V30 COUNTS 64 67 0 0 1
M  V30 BEGIN ATOM
M  V30 1 C 9.706016 6.569422 -10.278256 0
M  V30 2 O 6.625834 6.852575 -16.829798 0
M  V30 3 C 6.911712 5.907739 -20.367759 0
M  V30 4 C 10.098607 7.102600 -11.624041 0
M  V30 5 O 7.352185 4.150564 -16.992199 0
M  V30 6 N 6.491561 6.795372 -13.070855 0 CFG=2 CHG=1
M  V30 7 C 7.587301 5.196204 -19.185160 0
M  V30 8 C 5.296078 7.658618 -19.287693 0
M  V30 9 C 3.505014 7.047266 -17.609089 0
M  V30 10 C 9.680741 6.453224 -7.889537 0
M  V30 11 C 7.799977 7.404257 -12.719976 0
M  V30 12 C 6.033087 5.861297 -12.008770 0
M  V30 13 C 7.838696 2.826349 -17.195560 0
M  V30 14 C 5.774312 5.882410 -17.425091 0 CFG=1
M  V30 15 C 8.792685 5.586108 -10.311954 0
M  V30 16 C 7.053370 4.737392 -11.760886 0
M  V30 17 C 8.917951 6.358881 -12.460283 0 CFG=2
M  V30 18 C 4.741967 6.542788 -18.376675 0 CFG=2
M  V30 19 C 10.190369 7.043005 -9.055598 0
M  V30 20 C 6.272862 7.310753 -15.527913 0
M  V30 21 N 8.259585 4.969304 -9.231258 0
M  V30 22 C 6.625683 4.754849 -18.065765 0 CFG=2
M  V30 23 C 6.603573 7.374354 -20.052082 0
M  V30 24 N 8.408664 5.263275 -11.584825 0
M  V30 25 C 8.710702 5.427441 -8.027489 0
M  V30 26 N 11.943641 8.969023 -8.939127 0
M  V30 27 C 6.453635 6.224655 -14.444338 0
M  V30 28 C 11.168147 8.114810 -8.989340 0
M  V30 29 C 6.735330 1.765950 -17.070409 0
M  V30 30 H 6.027060 5.372043 -20.713775 0
M  V30 31 H 7.612538 5.890526 -21.203556 0
M  V30 32 H 10.059676 8.189016 -11.685103 0
M  V30 33 H 11.089254 6.742050 -11.903517 0
M  V30 34 H 8.090261 4.319796 -19.589978 0
M  V30 35 H 8.379831 5.818850 -18.768562 0
M  V30 36 H 4.522868 7.902778 -20.017224 0
M  V30 37 H 5.434838 8.568908 -18.704818 0
M  V30 38 H 3.731963 7.898533 -16.972226 0
M  V30 39 H 2.731317 7.386472 -18.291667 0
M  V30 40 H 3.067683 6.265454 -16.987408 0
M  V30 41 H 10.004961 6.779857 -6.912373 0
M  V30 42 H 7.636097 7.991561 -11.814746 0
M  V30 43 H 8.117312 8.121374 -13.472471 0
M  V30 44 H 5.055553 5.444722 -12.256941 0
M  V30 45 H 5.889142 6.432163 -11.091152 0
M  V30 46 H 8.364348 2.724718 -18.143503 0
M  V30 47 H 8.583661 2.639799 -16.421576 0
M  V30 48 H 5.205901 5.385933 -16.644294 0
M  V30 49 H 7.075453 4.072138 -12.624119 0
M  V30 50 H 6.730944 4.114764 -10.926596 0
M  V30 51 H 9.294267 5.945200 -13.396629 0
M  V30 52 H 4.367827 5.769136 -19.043351 0
M  V30 53 H 5.263403 7.712374 -15.494338 0
M  V30 54 H 6.927499 8.157414 -15.328324 0
M  V30 55 H 5.932046 4.027026 -18.486513 0
M  V30 56 H 6.584441 7.944884 -20.981437 0
M  V30 57 H 7.448015 7.769196 -19.491785 0
M  V30 58 H 8.283189 4.969312 -7.154905 0
M  V30 59 H 7.359385 5.648767 -14.636159 0
M  V30 60 H 5.627933 5.515923 -14.509747 0
M  V30 61 H 7.158111 0.764868 -17.158364 0
M  V30 62 H 6.238639 1.823403 -16.102253 0
M  V30 63 H 5.977778 1.864782 -17.847286 0
M  V30 64 H 5.815038 7.545529 -13.057833 0
M  V30 END ATOM
M  V30 BEGIN BOND
M  V30 1 1 4 1
M  V30 2 1 7 3
M  V30 3 1 11 6
M  V30 4 1 12 6
M  V30 5 1 13 5
M  V30 6 1 14 2
M  V30 7 1 15 1
M  V30 8 1 16 12
M  V30 9 1 17 4
M  V30 10 1 17 11
M  V30 11 1 18 8
M  V30 12 1 18 9
M  V30 13 1 18 14
M  V30 14 2 19 1
M  V30 15 1 19 10
M  V30 16 1 20 2
M  V30 17 2 21 15
M  V30 18 1 22 5
M  V30 19 1 22 7
M  V30 20 1 22 14
M  V30 21 1 23 3
M  V30 22 1 23 8
M  V30 23 1 24 15
M  V30 24 1 24 16
M  V30 25 1 24 17
M  V30 26 2 25 10
M  V30 27 1 25 21
M  V30 28 1 27 6
M  V30 29 1 27 20
M  V30 30 1 28 19
M  V30 31 3 28 26
M  V30 32 1 29 13
M  V30 33 1 30 3
M  V30 34 1 31 3
M  V30 35 1 32 4
M  V30 36 1 33 4
M  V30 37 1 34 7
M  V30 38 1 35 7
M  V30 39 1 36 8
M  V30 40 1 37 8
M  V30 41 1 38 9
M  V30 42 1 39 9
M  V30 43 1 40 9
M  V30 44 1 41 10
M  V30 45 1 42 11
M  V30 46 1 43 11
M  V30 47 1 44 12
M  V30 48 1 45 12
M  V30 49 1 46 13
M  V30 50 1 47 13
M  V30 51 1 14 48 CFG=1
M  V30 52 1 49 16
M  V30 53 1 50 16
M  V30 54 1 17 51 CFG=3
M  V30 55 1 18 52 CFG=3
M  V30 56 1 53 20
M  V30 57 1 54 20
M  V30 58 1 22 55 CFG=3
M  V30 59 1 56 23
M  V30 60 1 57 23
M  V30 61 1 58 25
M  V30 62 1 59 27
M  V30 63 1 60 27
M  V30 64 1 61 29
M  V30 65 1 62 29
M  V30 66 1 63 29
M  V30 67 1 6 64 CFG=3
M  V30 END BOND
M  V30 END CTAB
M  END
>  <i_epik_Tot_Q>  (1) 
1

>  <i_epik_Tot_abs_Q>  (1) 
1

>  <i_i_glide_confnum>  (1) 
13

>  <i_i_glide_lignum>  (1) 
73

>  <i_i_glide_posenum>  (1) 
351

>  <i_i_glide_rotatable_bonds>  (1) 
6

>  <i_lp_mmshare_version>  (1) 
72125

>  <i_m_source_file_index>  (1) 
30

>  <i_f3d_flags>  (1) 
0

>  <num_sample>  (1) 
50

>  <b_lp_Chiralities_Consistent>  (1) 
1

>  <r_epik_Charging_Adjusted_Penalty>  (1) 
1.0026227849201053

>  <r_epik_Ionization_Penalty>  (1) 
0.50131159217577048

>  <r_epik_Ionization_Penalty_Charging>  (1) 
0.50131139246005263

>  <r_epik_Ionization_Penalty_Neutral>  (1) 
1.9971571790720627e-07

>  <r_epik_State_Penalty>  (1) 
0.50131139246005263

>  <r_glide_ring_energy>  (1) 
0.31448414249904627

>  <r_i_docking_score>  (1) 
-2.9038738261925552

>  <r_i_glide_ecoul>  (1) 
-0.52396078712178884

>  <r_i_glide_eff_state_penalty>  (1) 
0.50131139246005263

>  <r_i_glide_einternal>  (1) 
28.203187901135145

>  <r_i_glide_emodel>  (1) 
-26.850368277943392

>  <r_i_glide_emodel_strain>  (1) 
0.0032551795836326392

>  <r_i_glide_energy>  (1) 
-33.823368315615845

>  <r_i_glide_erotb>  (1) 
0.6137117962777916

>  <r_i_glide_esite>  (1) 
0

>  <r_i_glide_evdw>  (1) 
-33.299407528494058

>  <r_i_glide_gscore>  (1) 
-3.4051852186526079

>  <r_i_glide_gscore_strain>  (1) 
0

>  <r_i_glide_hbond>  (1) 
0

>  <r_i_glide_ligand_efficiency>  (1) 
-0.10013358021353638

>  <r_i_glide_ligand_efficiency_ln>  (1) 
-0.66491347031134096

>  <r_i_glide_ligand_efficiency_sa>  (1) 
-0.30764208330621134

>  <r_i_glide_lipo>  (1) 
-1.7404508507808409

>  <r_i_glide_metal>  (1) 
-0

>  <r_i_glide_rewards>  (1) 
-0.53488166965658723

>  <r_lp_Energy>  (1) 
44.156497999999999

>  <s_epik_cmdline>  (1) 
J2VwaWtfcHl0aG9uJywgJy1waHQnLCAnMS4wJywgJy1waCcsICc3LjQnLCAnLXRuJywgJzgnLCAnLW1hJywgJzUwMCcsICctaW1hZScsICc8aW5maWxlLm1hZT4nLCAnLW9tYWUnLCAnPG91dGZpbGUubWFlPic=

>  <s_epik_input>  (1) 
TiNDYzFbY0hdW2NIXW5jKGMxMilOM1tDQEhdKFtDSDJdMilbQ0gyXU4oW0NIMl1bQ0gyXTMpW0NIMl1bQ0gyXU9bQ0BIXTRbQ0BASF0oW0NIM10pW0NIMl1bQ0gyXVtDSDJdW0NIMl1bQ0BIXTRPW0NIMl1bQ0gzXQ==

>  <s_glide_docking_method>  (1) 
confgen

>  <s_i_glide_gridfile>  (1) 
gpcr_drd2_6luq_protein_autoprepared_prepared

>  <s_lp_Force_Field>  (1) 
S-OPLS

>  <s_lp_Variant>  (1) 
DiffSBDD_29_num_sample_50-3

>  <s_m_source_file>  (1) 
generated__ligand_DiffSBDD_2026-05-06_prepared.sdf

>  <GenAI_Model>  (1) 
DiffSBDD

>  <Protein>  (1) 
generic_title2

$$$$
DiffSBDD_10_num_sample_50
     RDKit          3D

  0  0  0  0  0  0  0  0  0  0999 V3000
M  V30 BEGIN CTAB
M  V30 COUNTS 71 72 0 0 1
M  V30 BEGIN ATOM
M  V30 1 C 10.453949 7.365989 -8.827790 0 CFG=2
M  V30 2 C 5.906400 2.240062 -19.320122 0
M  V30 3 C 7.487670 3.953769 -16.794604 0
M  V30 4 C 7.714110 5.095753 -13.404661 0 CFG=1
M  V30 5 C 9.156607 6.559967 -9.158316 0 CFG=2
M  V30 6 N 8.299236 1.943746 -19.469376 0
M  V30 7 N 7.130597 6.569336 -11.768377 0
M  V30 8 C 7.842492 5.578662 -11.034849 0 CFG=1
M  V30 9 S 10.874033 7.383182 -6.980354 0
M  V30 10 C 5.689815 2.618511 -20.776566 0
M  V30 11 S 11.834844 9.250689 -6.691732 0 CHG=-1
M  V30 12 C 12.453299 8.671828 -9.866748 0
M  V30 13 O 6.660668 7.193287 -20.266620 0
M  V30 14 O 9.649544 7.482493 -6.178068 0
M  V30 15 C 9.207964 8.099300 -9.033987 0 CFG=2
M  V30 16 C 7.588256 1.977726 -15.060398 0
M  V30 17 C 7.655281 6.595186 -13.107343 0 CFG=2
M  V30 18 N 6.136922 5.014635 -20.584113 0
M  V30 19 N 7.229291 1.606635 -17.439605 0
M  V30 20 C 5.118881 4.036408 -20.931446 0
M  V30 21 C 9.434852 3.769049 -11.872247 0
M  V30 22 C 11.619194 7.387768 -9.796797 0
M  V30 23 C 8.710714 5.519976 -8.121481 0
M  V30 24 C 8.610017 4.733475 -14.595926 0
M  V30 25 C 7.434845 2.456987 -16.503364 0
M  V30 26 O 9.034839 8.721122 -10.291687 0
M  V30 27 C 7.104256 1.945789 -18.780931 0
M  V30 28 O 11.834825 6.310963 -6.691661 0
M  V30 29 F 6.834451 7.255282 -13.922613 0
M  V30 30 N 6.869216 0.738758 -14.812694 0
M  V30 31 C 5.607310 6.359029 -20.681625 0
M  V30 32 C 8.065212 4.437877 -12.041969 0 CFG=2
M  V30 33 O 9.088445 6.048070 -10.520071 0
M  V30 34 C 7.975680 4.926302 -15.967467 0
M  V30 35 H 5.026176 2.213160 -18.696183 0
M  V30 36 H 7.095176 4.238838 -17.758026 0
M  V30 37 H 6.697449 4.777548 -13.644798 0
M  V30 38 H 8.345383 2.149667 -20.455893 0
M  V30 39 H 7.084567 7.448117 -11.267517 0
M  V30 40 H 7.188132 5.246737 -10.233221 0
M  V30 41 H 4.992999 1.894786 -21.199239 0
M  V30 42 H 6.606255 2.519545 -21.358640 0
M  V30 43 H 13.070786 8.681887 -10.764158 0
M  V30 44 H 11.822980 9.560764 -9.890294 0
M  V30 45 H 13.136079 8.753829 -9.023805 0
M  V30 46 H 7.049039 7.589580 -21.032312 0
M  V30 47 H 8.714774 8.611015 -8.209187 0
M  V30 48 H 8.634808 1.781452 -14.838540 0
M  V30 49 H 7.172328 2.696992 -14.362023 0
M  V30 50 H 8.634821 7.074835 -13.108528 0
M  V30 51 H 6.472367 4.853155 -19.645523 0
M  V30 52 H 4.239759 4.162257 -20.297362 0
M  V30 53 H 4.802563 4.198123 -21.963080 0
M  V30 54 H 10.240876 4.436419 -12.172934 0
M  V30 55 H 9.589385 3.493297 -10.829024 0
M  V30 56 H 9.508186 2.853264 -12.457577 0
M  V30 57 H 12.234785 6.569305 -9.492011 0
M  V30 58 H 11.255017 7.162752 -10.798755 0
M  V30 59 H 8.177918 5.987091 -7.298505 0
M  V30 60 H 8.057381 4.749719 -8.517566 0
M  V30 61 H 9.579724 4.995590 -7.726912 0
M  V30 62 H 9.034842 3.769295 -14.478427 0
M  V30 63 H 9.495473 5.369469 -14.572610 0
M  V30 64 H 8.088601 8.672737 -10.390026 0
M  V30 65 H 5.886066 0.872485 -14.999799 0
M  V30 66 H 7.186686 0.041877 -15.473738 0
M  V30 67 H 4.751182 6.488655 -20.016652 0
M  V30 68 H 5.303621 6.599201 -21.701682 0
M  V30 69 H 7.301156 3.686963 -11.839759 0
M  V30 70 H 7.926947 5.949902 -16.307430 0
M  V30 71 H 9.168025 1.686341 -19.024141 0
M  V30 END ATOM
M  V30 BEGIN BOND
M  V30 1 1 5 1
M  V30 2 1 8 7
M  V30 3 1 9 1
M  V30 4 1 10 2
M  V30 5 1 11 9
M  V30 6 2 14 9
M  V30 7 1 15 1
M  V30 8 1 15 5
M  V30 9 1 17 4
M  V30 10 1 17 7
M  V30 11 1 20 10
M  V30 12 1 20 18
M  V30 13 1 1 22 CFG=3
M  V30 14 1 22 12
M  V30 15 1 23 5
M  V30 16 1 24 4
M  V30 17 1 25 3
M  V30 18 1 25 16
M  V30 19 2 25 19
M  V30 20 1 26 15
M  V30 21 2 27 2
M  V30 22 1 27 6
M  V30 23 1 27 19
M  V30 24 2 28 9
M  V30 25 1 29 17
M  V30 26 1 30 16
M  V30 27 1 31 13
M  V30 28 1 31 18
M  V30 29 1 32 4
M  V30 30 1 32 8
M  V30 31 1 32 21
M  V30 32 1 5 33 CFG=3
M  V30 33 1 33 8
M  V30 34 2 34 3
M  V30 35 1 34 24
M  V30 36 1 35 2
M  V30 37 1 36 3
M  V30 38 1 4 37 CFG=3
M  V30 39 1 38 6
M  V30 40 1 39 7
M  V30 41 1 8 40 CFG=1
M  V30 42 1 41 10
M  V30 43 1 42 10
M  V30 44 1 43 12
M  V30 45 1 44 12
M  V30 46 1 45 12
M  V30 47 1 46 13
M  V30 48 1 15 47 CFG=1
M  V30 49 1 48 16
M  V30 50 1 49 16
M  V30 51 1 17 50 CFG=1
M  V30 52 1 51 18
M  V30 53 1 52 20
M  V30 54 1 53 20
M  V30 55 1 54 21
M  V30 56 1 55 21
M  V30 57 1 56 21
M  V30 58 1 57 22
M  V30 59 1 58 22
M  V30 60 1 59 23
M  V30 61 1 60 23
M  V30 62 1 61 23
M  V30 63 1 62 24
M  V30 64 1 63 24
M  V30 65 1 64 26
M  V30 66 1 65 30
M  V30 67 1 66 30
M  V30 68 1 67 31
M  V30 69 1 68 31
M  V30 70 1 32 69 CFG=1
M  V30 71 1 70 34
M  V30 72 1 71 6
M  V30 END BOND
M  V30 END CTAB
M  END
>  <i_epik_Tot_Q>  (1) 
-1

>  <i_epik_Tot_abs_Q>  (1) 
1

>  <i_i_glide_confnum>  (1) 
1069

>  <i_i_glide_lignum>  (1) 
41

>  <i_i_glide_posenum>  (1) 
36

>  <i_i_glide_rotatable_bonds>  (1) 
15

>  <i_lp_mmshare_version>  (1) 
72125

>  <i_m_source_file_index>  (1) 
11

>  <i_f3d_flags>  (1) 
0

>  <num_sample>  (1) 
50

>  <b_lp_Chiralities_Consistent>  (1) 
1

>  <r_epik_Charging_Adjusted_Penalty>  (1) 
1.239197207418439

>  <r_epik_Ionization_Penalty>  (1) 
1.2496715491914541

>  <r_epik_Ionization_Penalty_Charging>  (1) 
1.1069707349969355e-11

>  <r_epik_Ionization_Penalty_Neutral>  (1) 
1.2496715491803843

>  <r_epik_State_Penalty>  (1) 
1.2391972074073692

>  <r_glide_ring_energy>  (1) 
0

>  <r_i_docking_score>  (1) 
-2.8963640061510123

>  <r_i_glide_ecoul>  (1) 
-7.7519413580702929

>  <r_i_glide_eff_state_penalty>  (1) 
1.2391972074073692

>  <r_i_glide_einternal>  (1) 
11.416142941104813

>  <r_i_glide_emodel>  (1) 
-29.592935551368207

>  <r_i_glide_emodel_strain>  (1) 
1.3272920327309095

>  <r_i_glide_energy>  (1) 
-26.090475138223418

>  <r_i_glide_erotb>  (1) 
0.82803537691766171

>  <r_i_glide_esite>  (1) 
-0.080462019185119818

>  <r_i_glide_evdw>  (1) 
-18.338533780153124

>  <r_i_glide_gscore>  (1) 
-4.1355612135583817

>  <r_i_glide_gscore_strain>  (1) 
0

>  <r_i_glide_hbond>  (1) 
-0.20173752179455826

>  <r_i_glide_ligand_efficiency>  (1) 
-0.085187176651500357

>  <r_i_glide_ligand_efficiency_ln>  (1) 
-0.63988804921734022

>  <r_i_glide_ligand_efficiency_sa>  (1) 
-0.27597338279771028

>  <r_i_glide_lipo>  (1) 
-1.4698246747799204

>  <r_i_glide_metal>  (1) 
-0

>  <r_i_glide_rewards>  (1) 
-1.1318544819982446

>  <r_lp_Energy>  (1) 
23.213093000000001

>  <s_epik_Chemistry_Notes>  (1) 
This compound has an imine and may undergo hydrolysis. This compound contains an acetal/aminal-like group ( X-CH(R)-Y where X, Y are N, S, or O) that may be acid/base labile, releasing an aldehyde.

>  <s_epik_cmdline>  (1) 
J2VwaWtfcHl0aG9uJywgJy1waHQnLCAnMS4wJywgJy1waCcsICc3LjQnLCAnLXRuJywgJzgnLCAnLW1hJywgJzUwMCcsICctaW1hZScsICc8aW5maWxlLm1hZT4nLCAnLW9tYWUnLCAnPG91dGZpbGUubWFlPic=

>  <s_epik_input>  (1) 
W1NIXVMoPU8pKD1PKVtDQEBdMShbQ0gyXVtDSDNdKVtDQEBdKFtDSDNdKShbQ0BASF0xW09IXSlPW0NASF0oW0NAQEhdMltDSDNdKVtOSF1bQ0BASF0oRilbQ0BIXTJbQ0gyXS9bQ0hdPVtDSF1cQyhbQ0gyXVtOSDJdKT1OL0MoPU4vW0hdKS9bQ0gyXVtDSDJdW0NIMl1bTkhdW0NIMl1bT0hd

>  <s_glide_docking_method>  (1) 
confgen

>  <s_i_glide_gridfile>  (1) 
gpcr_drd2_6luq_protein_autoprepared_prepared

>  <s_lp_Force_Field>  (1) 
S-OPLS

>  <s_lp_Variant>  (1) 
DiffSBDD_10_num_sample_50-21

>  <s_m_source_file>  (1) 
generated__ligand_DiffSBDD_2026-05-06_prepared.sdf

>  <GenAI_Model>  (1) 
DiffSBDD

>  <Protein>  (1) 
generic_title2

$$$$
DiffSBDD_41_num_sample_50
     RDKit          3D

  0  0  0  0  0  0  0  0  0  0999 V3000
M  V30 BEGIN CTAB
M  V30 COUNTS 104 109 0 0 1
M  V30 BEGIN ATOM
M  V30 1 C 5.434844 5.450925 -11.595514 0
M  V30 2 C 8.708589 5.422174 -15.438082 0
M  V30 3 C 9.057089 4.997789 -13.996687 0
M  V30 4 C 8.177964 5.282487 -9.240416 0
M  V30 5 C 6.153602 6.519823 -11.936409 0
M  V30 6 O 9.516651 3.710650 -16.906198 0
M  V30 7 C 10.102161 3.340764 -20.621255 0
M  V30 8 N 7.505710 2.102214 -18.373261 0
M  V30 9 O 4.788715 6.097013 -19.139713 0
M  V30 10 C 7.019627 2.299769 -15.898994 0 CFG=2
M  V30 11 C 8.991936 5.782870 -8.020671 0
M  V30 12 O 7.814821 2.204240 -14.723195 0
M  V30 13 C 8.714223 0.541244 -16.922627 0
M  V30 14 C 7.014392 6.102054 -20.367736 0 CFG=1
M  V30 15 C 7.449141 -0.795562 -20.318502 0
M  V30 16 C 5.658897 5.294731 -21.353770 0 CFG=2
M  V30 17 C 7.145642 2.522191 -13.505797 0
M  V30 18 C 6.774810 4.021794 -13.264690 0 CFG=1
M  V30 19 C 6.843787 6.114976 -21.894132 0
M  V30 20 C 5.654882 4.074456 -12.184597 0
M  V30 21 C 4.931044 7.069974 -18.120594 0
M  V30 22 C 11.470602 4.918875 -19.101712 0
M  V30 23 O 8.864744 3.711537 -20.032285 0
M  V30 24 C 4.492608 4.727433 -22.148114 0
M  V30 25 C 9.710283 4.825061 -16.434663 0
M  V30 26 C 6.516118 0.132570 -19.530567 0
M  V30 27 N 7.172841 2.208210 -20.701292 0 CHG=1
M  V30 28 N 10.786193 5.566960 -16.737347 0
M  V30 29 C 11.205719 3.464255 -19.554025 0
M  V30 30 C 7.282795 6.464487 -12.920133 0 CFG=2
M  V30 31 S 8.349413 6.927765 -19.483439 0 CHG=-1
M  V30 32 C 7.942296 5.036882 -12.925323 0 CFG=2
M  V30 33 O 8.161973 7.538080 -12.691582 0
M  V30 34 C 9.619558 7.186519 -8.207042 0
M  V30 35 F 3.435242 6.826222 -22.494404 0
M  V30 36 C 6.234728 1.087227 -16.312128 0
M  V30 37 C 7.078983 1.532643 -19.528102 0
M  V30 38 C 7.726884 3.572682 -20.825351 0 CFG=1
M  V30 39 C 10.199621 7.309368 -9.600491 0
M  V30 40 C 9.834910 6.511142 -10.612575 0
M  V30 41 C 3.904472 5.757998 -23.132562 0
M  V30 42 C 7.506694 1.439358 -17.056009 0 CFG=2
M  V30 43 F 4.834913 6.145323 -23.999078 0
M  V30 44 N 8.888769 5.509250 -10.503266 0
M  V30 45 C 8.619441 4.552629 -11.579681 0
M  V30 46 C 5.515937 6.433483 -20.315850 0 CFG=1
M  V30 47 C 11.862992 5.087298 -17.614869 0
M  V30 48 C 6.656319 4.593549 -20.376366 0 CFG=1
M  V30 49 H 4.637626 5.550778 -10.872853 0
M  V30 50 H 8.634827 6.501009 -15.491668 0
M  V30 51 H 7.721737 5.078833 -15.727204 0
M  V30 52 H 9.434837 3.986890 -13.995296 0
M  V30 53 H 9.898685 5.607232 -13.664331 0
M  V30 54 H 7.208491 5.769292 -9.285544 0
M  V30 55 H 7.954257 4.226666 -9.102046 0
M  V30 56 H 5.937514 7.479906 -11.491670 0
M  V30 57 H 10.048059 2.312790 -20.982278 0
M  V30 58 H 10.319539 3.982687 -21.475931 0
M  V30 59 H 7.914497 3.032498 -18.415661 0
M  V30 60 H 6.635035 3.287610 -16.115804 0
M  V30 61 H 9.804934 5.075089 -7.858240 0
M  V30 62 H 8.376010 5.761988 -7.121407 0
M  V30 63 H 8.448441 -0.415436 -16.471657 0
M  V30 64 H 9.187884 0.354047 -17.886047 0
M  V30 65 H 9.434837 1.042866 -16.291681 0
M  V30 66 H 7.091627 -1.824395 -20.283498 0
M  V30 67 H 7.515984 -0.502360 -21.366022 0
M  V30 68 H 8.455417 -0.782365 -19.900570 0
M  V30 69 H 7.770132 2.155515 -12.691942 0
M  V30 70 H 6.241541 1.912078 -13.467085 0
M  V30 71 H 6.293295 4.378999 -14.173028 0
M  V30 72 H 6.613503 7.086242 -22.339847 0
M  V30 73 H 7.594386 5.595345 -22.485630 0
M  V30 74 H 5.851859 3.384241 -11.363574 0
M  V30 75 H 4.713946 3.769318 -12.642712 0
M  V30 76 H 4.308970 6.798947 -17.268574 0
M  V30 77 H 5.962700 7.133148 -17.775144 0
M  V30 78 H 4.616218 8.054040 -18.467969 0
M  V30 79 H 12.270033 5.321860 -19.725067 0
M  V30 80 H 10.615497 5.549036 -19.318054 0
M  V30 81 H 4.803609 3.835980 -22.693212 0
M  V30 82 H 3.723186 4.404652 -21.451412 0
M  V30 83 H 8.001610 3.694813 -21.871827 0
M  V30 84 H 6.373505 -0.270140 -18.531364 0
M  V30 85 H 10.885255 6.481651 -16.323116 0
M  V30 86 H 10.944700 2.831404 -18.708000 0
M  V30 87 H 12.134059 3.045477 -19.942400 0
M  V30 88 H 6.832181 6.664653 -13.892526 0
M  V30 89 H 8.442653 7.467118 -11.786126 0
M  V30 90 H 10.408731 7.336356 -7.470862 0
M  V30 91 H 8.887011 7.977136 -8.050491 0
M  V30 92 H 6.250050 0.210306 -15.668238 0
M  V30 93 H 5.312012 1.235524 -16.858995 0
M  V30 94 H 5.526981 0.148916 -19.992055 0
M  V30 95 H 10.944277 8.075261 -9.757035 0
M  V30 96 H 10.271839 6.597906 -11.597200 0
M  V30 97 H 3.077890 5.369304 -23.725217 0
M  V30 98 H 8.012149 3.769317 -11.140350 0
M  V30 99 H 9.561460 4.045325 -11.791945 0
M  V30 100 H 5.225175 7.410246 -20.714337 0
M  V30 101 H 12.292815 4.167892 -17.212204 0
M  V30 102 H 12.653841 5.834615 -17.549430 0
M  V30 103 H 6.187863 4.270026 -19.444555 0
M  V30 104 H 6.893754 1.715711 -21.537760 0
M  V30 END ATOM
M  V30 BEGIN BOND
M  V30 1 1 3 2
M  V30 2 2 5 1
M  V30 3 1 11 4
M  V30 4 1 12 10
M  V30 5 1 17 12
M  V30 6 1 18 17
M  V30 7 1 19 14
M  V30 8 1 19 16
M  V30 9 1 20 1
M  V30 10 1 20 18
M  V30 11 1 21 9
M  V30 12 1 23 7
M  V30 13 1 16 24 CFG=3
M  V30 14 1 25 2
M  V30 15 2 25 6
M  V30 16 1 26 15
M  V30 17 1 28 25
M  V30 18 1 29 7
M  V30 19 1 29 22
M  V30 20 1 30 5
M  V30 21 1 14 31 CFG=3
M  V30 22 1 32 3
M  V30 23 1 32 18
M  V30 24 1 32 30
M  V30 25 1 33 30
M  V30 26 1 34 11
M  V30 27 1 36 10
M  V30 28 1 37 8
M  V30 29 1 37 26
M  V30 30 2 37 27
M  V30 31 1 38 23
M  V30 32 1 38 27
M  V30 33 1 39 34
M  V30 34 2 40 39
M  V30 35 1 41 24
M  V30 36 1 41 35
M  V30 37 1 42 8
M  V30 38 1 42 10
M  V30 39 1 42 13 CFG=1
M  V30 40 1 42 36
M  V30 41 1 43 41
M  V30 42 1 44 4
M  V30 43 1 44 40
M  V30 44 1 32 45 CFG=1
M  V30 45 1 45 44
M  V30 46 1 46 9
M  V30 47 1 46 14
M  V30 48 1 46 16
M  V30 49 1 47 22
M  V30 50 1 47 28
M  V30 51 1 48 14
M  V30 52 1 48 16
M  V30 53 1 48 38
M  V30 54 1 49 1
M  V30 55 1 50 2
M  V30 56 1 51 2
M  V30 57 1 52 3
M  V30 58 1 53 3
M  V30 59 1 54 4
M  V30 60 1 55 4
M  V30 61 1 56 5
M  V30 62 1 57 7
M  V30 63 1 58 7
M  V30 64 1 59 8
M  V30 65 1 10 60 CFG=3
M  V30 66 1 61 11
M  V30 67 1 62 11
M  V30 68 1 63 13
M  V30 69 1 64 13
M  V30 70 1 65 13
M  V30 71 1 66 15
M  V30 72 1 67 15
M  V30 73 1 68 15
M  V30 74 1 69 17
M  V30 75 1 70 17
M  V30 76 1 18 71 CFG=3
M  V30 77 1 72 19
M  V30 78 1 73 19
M  V30 79 1 74 20
M  V30 80 1 75 20
M  V30 81 1 76 21
M  V30 82 1 77 21
M  V30 83 1 78 21
M  V30 84 1 79 22
M  V30 85 1 80 22
M  V30 86 1 81 24
M  V30 87 1 82 24
M  V30 88 1 38 83 CFG=3
M  V30 89 1 84 26
M  V30 90 1 85 28
M  V30 91 1 86 29
M  V30 92 1 87 29
M  V30 93 1 30 88 CFG=3
M  V30 94 1 89 33
M  V30 95 1 90 34
M  V30 96 1 91 34
M  V30 97 1 92 36
M  V30 98 1 93 36
M  V30 99 1 94 26
M  V30 100 1 95 39
M  V30 101 1 96 40
M  V30 102 1 97 41
M  V30 103 1 98 45
M  V30 104 1 99 45
M  V30 105 1 46 100 CFG=3
M  V30 106 1 101 47
M  V30 107 1 102 47
M  V30 108 1 48 103 CFG=1
M  V30 109 1 104 27
M  V30 END BOND
M  V30 END CTAB
M  END
>  <i_epik_Tot_Q>  (1) 
0

>  <i_epik_Tot_abs_Q>  (1) 
2

>  <i_i_glide_confnum>  (1) 
99

>  <i_i_glide_lignum>  (1) 
103

>  <i_i_glide_posenum>  (1) 
183

>  <i_i_glide_rotatable_bonds>  (1) 
8

>  <i_lp_mmshare_version>  (1) 
72125

>  <i_m_source_file_index>  (1) 
42

>  <i_f3d_flags>  (1) 
0

>  <num_sample>  (1) 
50

>  <b_lp_Chiralities_Consistent>  (1) 
1

>  <r_epik_Charging_Adjusted_Penalty>  (1) 
2.5071679655586419

>  <r_epik_Ionization_Penalty>  (1) 
1.2556275080584867

>  <r_epik_Ionization_Penalty_Charging>  (1) 
1.2536750394976632

>  <r_epik_Ionization_Penalty_Neutral>  (1) 
0.0019524685608233448

>  <r_epik_State_Penalty>  (1) 
1.2534929260609784

>  <r_glide_ring_energy>  (1) 
0

>  <r_i_docking_score>  (1) 
-2.8927028350118764

>  <r_i_glide_ecoul>  (1) 
-1.5509235028215977

>  <r_i_glide_eff_state_penalty>  (1) 
1.2534929260609784

>  <r_i_glide_einternal>  (1) 
9.7583849115044252

>  <r_i_glide_emodel>  (1) 
-32.660373425021071

>  <r_i_glide_emodel_strain>  (1) 
4.9720257979501952

>  <r_i_glide_energy>  (1) 
-35.422141000505796

>  <r_i_glide_erotb>  (1) 
0.0044950300395880287

>  <r_i_glide_esite>  (1) 
-0.043452833383792661

>  <r_i_glide_evdw>  (1) 
-33.871217497684199

>  <r_i_glide_gscore>  (1) 
-4.146195761072855

>  <r_i_glide_gscore_strain>  (1) 
0.24300644948754879

>  <r_i_glide_hbond>  (1) 
0

>  <r_i_glide_ligand_efficiency>  (1) 
-0.060264642396080759

>  <r_i_glide_ligand_efficiency_ln>  (1) 
-0.59383770625239229

>  <r_i_glide_ligand_efficiency_sa>  (1) 
-0.21901624543516635

>  <r_i_glide_lipo>  (1) 
-1.7922296028447988

>  <r_i_glide_metal>  (1) 
-0

>  <r_i_glide_rewards>  (1) 
-0.63181540406395098

>  <r_lp_Energy>  (1) 
119.38507999999999

>  <s_epik_Chemistry_Notes>  (1) 
This compound has an imine and may undergo hydrolysis. This compound contains an acetal/aminal-like group ( X-CH(R)-Y where X, Y are N, S, or O) that may be acid/base labile, releasing an aldehyde.

>  <s_epik_cmdline>  (1) 
J2VwaWtfcHl0aG9uJywgJy1waHQnLCAnMS4wJywgJy1waCcsICc3LjQnLCAnLXRuJywgJzgnLCAnLW1hJywgJzUwMCcsICctaW1hZScsICc8aW5maWxlLm1hZT4nLCAnLW9tYWUnLCAnPG91dGZpbGUubWFlPic=

>  <s_epik_input>  (1) 
W0NIXTE9W0NIXVtDSDJdW0NIMl1bQ0gyXU4xW0NIMl1bQ0BdMjNbQ0BIXShbQ0gyXVtDSF09W0NIXVtDQEhdM1tPSF0pW0NIMl1PW0NASF00W0NAQF0oW0NIM10pKFtDSDJdNClbTkhdW0NASF0oW0NIMl1bQ0gzXSkvTj1DKFtDQEBIXTVbQ0BdKFtDSDJdW0NIXShGKUYpKFtDSDJdW0NAXTU2W1NIXSlbQ0BIXTZPW0NIM10pL09bQ0gyXVtDSDJdW0NIMl1bQ0gyXVtOSF1DKD1PKVtDSDJdW0NIMl0y

>  <s_glide_docking_method>  (1) 
confgen

>  <s_i_glide_gridfile>  (1) 
gpcr_drd2_6luq_protein_autoprepared_prepared

>  <s_lp_Force_Field>  (1) 
S-OPLS

>  <s_lp_Variant>  (1) 
DiffSBDD_41_num_sample_50-3

>  <s_m_source_file>  (1) 
generated__ligand_DiffSBDD_2026-05-06_prepared.sdf

>  <GenAI_Model>  (1) 
DiffSBDD

>  <Protein>  (1) 
generic_title2

$$$$
DiffSBDD_42_num_sample_50
     RDKit          3D

  0  0  0  0  0  0  0  0  0  0999 V3000
M  V30 BEGIN CTAB
M  V30 COUNTS 62 65 0 0 1
M  V30 BEGIN ATOM
M  V30 1 C 12.442535 5.661775 -17.120197 0 CFG=2
M  V30 2 S 5.434821 7.369302 -18.124421 0
M  V30 3 C 7.116658 -2.080176 -17.935431 0
M  V30 4 O 5.330548 4.797381 -19.891012 0
M  V30 5 C 12.592392 5.376222 -18.619975 0
M  V30 6 O 5.034899 7.564363 -19.769926 0
M  V30 7 O 4.326141 6.562697 -17.446169 0
M  V30 8 C 5.867886 -2.204382 -20.041229 0
M  V30 9 C 8.089710 4.475904 -17.424545 0 CFG=2
M  V30 10 N 6.371179 0.021221 -19.052555 0
M  V30 11 O 6.868885 6.419994 -18.298544 0
M  V30 12 C 12.715180 2.848591 -18.658366 0
M  V30 13 C 10.647999 4.093466 -17.894487 0 CFG=1
M  V30 14 F 6.690886 -5.598437 -18.901278 0
M  V30 15 C 5.643909 0.741751 -19.994238 0
M  V30 16 C 11.387950 4.033013 -20.401241 0
M  V30 17 C 7.783453 3.022465 -17.023296 0
M  V30 18 C 11.195683 4.874758 -16.676661 0
M  V30 19 N 6.301248 2.879055 -19.126661 0
M  V30 20 C 5.582561 2.076741 -20.026526 0
M  V30 21 C 6.612503 -4.247326 -18.934823 0
M  V30 22 C 7.066136 0.708174 -17.953946 0
M  V30 23 C 6.765989 5.041189 -17.961670 0 CFG=1
M  V30 24 C 6.452002 -1.415427 -19.008880 0
M  V30 25 C 5.952132 -3.609500 -19.997189 0
M  V30 26 C 7.301573 2.218069 -18.241093 0 CFG=2
M  V30 27 C 9.289612 4.660335 -18.398275 0
M  V30 28 F 12.234835 6.969289 -16.966222 0
M  V30 29 C 13.698494 5.336633 -16.291578 0
M  V30 30 C 6.079004 4.226253 -19.091841 0
M  V30 31 C 11.819002 4.080225 -18.919242 0
M  V30 32 C 7.191861 -3.486301 -17.908054 0
M  V30 33 H 7.563454 -1.522118 -17.130900 0
M  V30 34 H 13.634654 5.331590 -18.937920 0
M  V30 35 H 12.137842 6.198428 -19.175540 0
M  V30 36 H 5.033071 6.696857 -20.155991 0
M  V30 37 H 5.361303 -1.742280 -20.868390 0
M  V30 38 H 8.317331 5.021945 -16.509586 0
M  V30 39 H 12.986709 2.748729 -17.608538 0
M  V30 40 H 12.205264 1.926021 -18.938495 0
M  V30 41 H 13.639659 2.897582 -19.234742 0
M  V30 42 H 10.469980 3.060659 -17.599009 0
M  V30 43 H 5.089144 0.143460 -20.690349 0
M  V30 44 H 10.808131 4.910959 -20.688657 0
M  V30 45 H 12.256065 3.997966 -21.060538 0
M  V30 46 H 10.782707 3.151195 -20.614344 0
M  V30 47 H 7.013821 3.005727 -16.251184 0
M  V30 48 H 8.647994 2.545390 -16.563942 0
M  V30 49 H 10.456434 5.544801 -16.239433 0
M  V30 50 H 11.459292 4.169282 -15.891677 0
M  V30 51 H 4.982415 2.624551 -20.738475 0
M  V30 52 H 6.477563 0.590999 -17.043033 0
M  V30 53 H 8.057951 0.291869 -17.780336 0
M  V30 54 H 6.097059 4.992397 -17.107603 0
M  V30 55 H 5.508124 -4.199249 -20.785178 0
M  V30 56 H 8.166451 2.182847 -18.904718 0
M  V30 57 H 9.023814 4.203290 -19.349183 0
M  V30 58 H 9.413080 5.722551 -18.614221 0
M  V30 59 H 13.947000 4.277284 -16.312410 0
M  V30 60 H 14.564484 5.886786 -16.660796 0
M  V30 61 H 13.557111 5.618355 -15.247897 0
M  V30 62 H 7.695849 -3.981335 -17.091690 0
M  V30 END ATOM
M  V30 BEGIN BOND
M  V30 1 1 5 1
M  V30 2 1 2 6 CFG=3
M  V30 3 2 7 2
M  V30 4 1 11 2
M  V30 5 1 15 10
M  V30 6 1 17 9
M  V30 7 1 18 1
M  V30 8 1 18 13
M  V30 9 2 20 15
M  V30 10 1 20 19
M  V30 11 1 21 14
M  V30 12 1 22 10
M  V30 13 1 23 9
M  V30 14 1 23 11
M  V30 15 2 24 3
M  V30 16 1 24 8
M  V30 17 1 24 10
M  V30 18 2 25 8
M  V30 19 1 25 21
M  V30 20 1 26 17
M  V30 21 1 26 19
M  V30 22 1 26 22
M  V30 23 1 27 9
M  V30 24 1 27 13
M  V30 25 1 1 28 CFG=3
M  V30 26 1 29 1
M  V30 27 2 30 4
M  V30 28 1 30 19
M  V30 29 1 30 23
M  V30 30 1 31 5
M  V30 31 1 31 12
M  V30 32 1 31 13
M  V30 33 1 31 16
M  V30 34 1 32 3
M  V30 35 2 32 21
M  V30 36 1 33 3
M  V30 37 1 34 5
M  V30 38 1 35 5
M  V30 39 1 36 6
M  V30 40 1 37 8
M  V30 41 1 9 38 CFG=1
M  V30 42 1 39 12
M  V30 43 1 40 12
M  V30 44 1 41 12
M  V30 45 1 13 42 CFG=1
M  V30 46 1 43 15
M  V30 47 1 44 16
M  V30 48 1 45 16
M  V30 49 1 46 16
M  V30 50 1 47 17
M  V30 51 1 48 17
M  V30 52 1 49 18
M  V30 53 1 50 18
M  V30 54 1 51 20
M  V30 55 1 52 22
M  V30 56 1 53 22
M  V30 57 1 23 54 CFG=1
M  V30 58 1 55 25
M  V30 59 1 26 56 CFG=3
M  V30 60 1 57 27
M  V30 61 1 58 27
M  V30 62 1 59 29
M  V30 63 1 60 29
M  V30 64 1 61 29
M  V30 65 1 62 32
M  V30 END BOND
M  V30 END CTAB
M  END
>  <i_epik_Tot_Q>  (1) 
0

>  <i_epik_Tot_abs_Q>  (1) 
0

>  <i_i_glide_confnum>  (1) 
164

>  <i_i_glide_lignum>  (1) 
105

>  <i_i_glide_posenum>  (1) 
343

>  <i_i_glide_rotatable_bonds>  (1) 
6

>  <i_lp_mmshare_version>  (1) 
72125

>  <i_m_source_file_index>  (1) 
43

>  <i_f3d_flags>  (1) 
0

>  <num_sample>  (1) 
50

>  <b_lp_Chiralities_Consistent>  (1) 
1

>  <r_epik_Charging_Adjusted_Penalty>  (1) 
7.4277235651080948e-06

>  <r_epik_Ionization_Penalty>  (1) 
7.4296713957726515e-06

>  <r_epik_Ionization_Penalty_Charging>  (1) 
7.4277235651080948e-06

>  <r_epik_Ionization_Penalty_Neutral>  (1) 
1.9478306645570326e-09

>  <r_epik_State_Penalty>  (1) 
-0

>  <r_glide_ring_energy>  (1) 
1.0716255147833267

>  <r_i_docking_score>  (1) 
-2.8923132538979024

>  <r_i_glide_ecoul>  (1) 
-2.1530841485820034

>  <r_i_glide_eff_state_penalty>  (1) 
-0

>  <r_i_glide_einternal>  (1) 
0.87325937842309465

>  <r_i_glide_emodel>  (1) 
-31.728653195016321

>  <r_i_glide_emodel_strain>  (1) 
0.88213156852368968

>  <r_i_glide_energy>  (1) 
-28.800123378981166

>  <r_i_glide_erotb>  (1) 
0.45981395595686525

>  <r_i_glide_esite>  (1) 
-0.0048277991744031653

>  <r_i_glide_evdw>  (1) 
-26.647039230399162

>  <r_i_glide_gscore>  (1) 
-2.8923132538979024

>  <r_i_glide_gscore_strain>  (1) 
0

>  <r_i_glide_hbond>  (1) 
0

>  <r_i_glide_ligand_efficiency>  (1) 
-0.09038478918430945

>  <r_i_glide_ligand_efficiency_ln>  (1) 
-0.64766777902934414

>  <r_i_glide_ligand_efficiency_sa>  (1) 
-0.28695381886619359

>  <r_i_glide_lipo>  (1) 
-0.73957886112324944

>  <r_i_glide_metal>  (1) 
-0

>  <r_i_glide_rewards>  (1) 
-0.95240596574985648

>  <r_lp_Energy>  (1) 
34.324670999999995

>  <r_lp_tautomer_probability>  (1) 
1

>  <s_epik_Chemistry_Notes>  (1) 
This compound has an imine and may undergo hydrolysis.

>  <s_epik_cmdline>  (1) 
J2VwaWtfcHl0aG9uJywgJy1waHQnLCAnMS4wJywgJy1waCcsICc3LjQnLCAnLXRuJywgJzgnLCAnLW1hJywgJzUwMCcsICctaW1hZScsICc8aW5maWxlLm1hZT4nLCAnLW9tYWUnLCAnPG91dGZpbGUubWFlPic=

>  <s_epik_input>  (1) 
RltDQF0xKFtDSDNdKVtDSDJdQyhbQ0gzXSkoW0NIM10pW0NAQEhdKFtDSDJdMSlbQ0gyXVtDQEBIXShbQ0BIXShDMj1PKU9TKD1PKVtPSF0pW0NIMl1bQ0BIXShOMjMpW0NIMl1OKFtDSF09W0NIXTMpYyhbY0hdW2NIXTQpW2NIXVtjSF1jNEY=

>  <s_glide_docking_method>  (1) 
confgen

>  <s_i_glide_gridfile>  (1) 
gpcr_drd2_6luq_protein_autoprepared_prepared

>  <s_lp_Force_Field>  (1) 
S-OPLS

>  <s_lp_Variant>  (1) 
DiffSBDD_42_num_sample_50-1

>  <s_m_source_file>  (1) 
generated__ligand_DiffSBDD_2026-05-06_prepared.sdf

>  <GenAI_Model>  (1) 
DiffSBDD

>  <Protein>  (1) 
generic_title2

$$$$
DiffSBDD_10_num_sample_50
     RDKit          3D

  0  0  0  0  0  0  0  0  0  0999 V3000
M  V30 BEGIN CTAB
M  V30 COUNTS 73 74 0 0 1
M  V30 BEGIN ATOM
M  V30 1 C 7.202492 -1.074445 -18.645429 0 CFG=2
M  V30 2 C 9.442180 7.821770 -10.926203 0
M  V30 3 C 7.190895 5.075725 -12.612304 0
M  V30 4 C 6.072896 1.754750 -13.690799 0 CFG=1
M  V30 5 C 6.590545 0.247746 -18.121705 0 CFG=2
M  V30 6 N 9.995580 6.180902 -12.612019 0
M  V30 7 N 6.237389 -0.247766 -14.828848 0
M  V30 8 C 6.282981 0.797190 -15.804652 0 CFG=1
M  V30 9 S 7.604563 -1.137128 -20.479287 0
M  V30 10 C 10.701790 7.632259 -10.105077 0
M  V30 11 S 6.469422 -2.842699 -21.026702 0 CHG=-1
M  V30 12 C 8.016987 -3.448218 -18.019232 0
M  V30 13 O 10.319523 6.869839 -6.169017 0
M  V30 14 O 7.034011 0.006986 -21.204089 0
M  V30 15 C 5.715560 -0.972075 -18.390914 0 CFG=2
M  V30 16 C 5.834096 6.936564 -13.808148 0
M  V30 17 C 6.406815 0.286603 -13.486928 0 CFG=1
M  V30 18 N 9.434836 7.868036 -7.947631 0 CHG=1
M  V30 19 N 7.979562 7.369374 -12.747999 0
M  V30 20 C 10.618409 8.297349 -8.727706 0
M  V30 21 C 8.207459 2.283279 -15.106384 0
M  V30 22 C 8.146816 -1.933826 -17.795799 0
M  V30 23 C 6.368132 1.549125 -18.874104 0
M  V30 24 C 6.444518 2.686609 -12.540093 0
M  V30 25 C 7.072090 6.511546 -13.024529 0
M  V30 26 O 5.218411 -1.628588 -17.243080 0
M  V30 27 C 9.164597 7.139403 -12.046842 0
M  V30 28 O 9.025385 -1.479295 -20.651060 0
M  V30 29 F 7.673653 0.169301 -13.101306 0
M  V30 30 N 6.234852 7.369305 -15.157985 0 CHG=1
M  V30 31 C 9.524194 6.551614 -7.291450 0
M  V30 32 C 6.684613 2.075066 -15.068730 0 CFG=2
M  V30 33 O 7.170218 0.509459 -16.838165 0
M  V30 34 C 6.292469 4.128915 -12.933419 0
M  V30 35 H 8.736674 8.559382 -10.568091 0
M  V30 36 H 8.061636 4.820441 -12.032274 0
M  V30 37 H 4.988108 1.769321 -13.763609 0
M  V30 38 H 10.892728 5.949731 -12.212344 0
M  V30 39 H 6.890023 -0.995266 -15.026279 0
M  V30 40 H 5.278635 0.910855 -16.215290 0
M  V30 41 H 11.550269 8.034545 -10.660469 0
M  V30 42 H 10.876758 6.569307 -9.976799 0
M  V30 43 H 8.634860 -3.997955 -17.310236 0
M  V30 44 H 6.989457 -3.781357 -17.878835 0
M  V30 45 H 8.325693 -3.742182 -19.021375 0
M  V30 46 H 10.084734 6.285086 -5.461261 0
M  V30 47 H 5.021664 -0.965067 -19.229701 0
M  V30 48 H 5.034843 6.215323 -13.890434 0
M  V30 49 H 5.379589 7.769302 -13.279460 0
M  V30 50 H 5.772960 -0.222726 -12.759512 0
M  V30 51 H 8.610490 7.850023 -8.553116 0
M  V30 52 H 10.546884 9.369295 -8.885202 0
M  V30 53 H 11.534858 8.128914 -8.160205 0
M  V30 54 H 8.730862 1.369291 -14.830629 0
M  V30 55 H 8.539341 2.559164 -16.107615 0
M  V30 56 H 8.511498 3.084041 -14.432306 0
M  V30 57 H 9.169989 -1.612808 -17.983629 0
M  V30 58 H 7.968991 -1.738572 -16.740258 0
M  V30 59 H 5.697441 1.408256 -19.720718 0
M  V30 60 H 5.903387 2.285280 -18.220148 0
M  V30 61 H 7.318269 1.951536 -19.225148 0
M  V30 62 H 7.492548 2.523500 -12.291674 0
M  V30 63 H 5.834934 2.477639 -11.660288 0
M  V30 64 H 5.223445 -2.561800 -17.398775 0
M  V30 65 H 5.448855 7.775773 -15.644596 0
M  V30 66 H 6.970616 8.056509 -15.061995 0
M  V30 67 H 9.967962 5.778083 -7.918651 0
M  V30 68 H 8.533116 6.229827 -6.968621 0
M  V30 69 H 6.234840 2.949582 -15.519561 0
M  V30 70 H 5.416113 4.366867 -13.502467 0
M  V30 71 H 9.759829 5.710117 -13.473668 0
M  V30 72 H 9.259367 8.540382 -7.217007 0
M  V30 73 H 6.592241 6.580128 -15.677369 0
M  V30 END ATOM
M  V30 BEGIN BOND
M  V30 1 1 5 1
M  V30 2 1 8 7
M  V30 3 1 9 1
M  V30 4 1 10 2
M  V30 5 1 11 9
M  V30 6 2 14 9
M  V30 7 1 15 1
M  V30 8 1 15 5
M  V30 9 1 17 4
M  V30 10 1 17 7
M  V30 11 1 20 10
M  V30 12 1 20 18
M  V30 13 1 1 22 CFG=1
M  V30 14 1 22 12
M  V30 15 1 23 5
M  V30 16 1 24 4
M  V30 17 1 25 3
M  V30 18 1 25 16
M  V30 19 2 25 19
M  V30 20 1 26 15
M  V30 21 2 27 2
M  V30 22 1 27 6
M  V30 23 1 27 19
M  V30 24 2 28 9
M  V30 25 1 29 17
M  V30 26 1 30 16
M  V30 27 1 31 13
M  V30 28 1 31 18
M  V30 29 1 32 4
M  V30 30 1 32 8
M  V30 31 1 32 21
M  V30 32 1 5 33 CFG=1
M  V30 33 1 33 8
M  V30 34 2 34 3
M  V30 35 1 34 24
M  V30 36 1 35 2
M  V30 37 1 36 3
M  V30 38 1 4 37 CFG=3
M  V30 39 1 38 6
M  V30 40 1 39 7
M  V30 41 1 8 40 CFG=3
M  V30 42 1 41 10
M  V30 43 1 42 10
M  V30 44 1 43 12
M  V30 45 1 44 12
M  V30 46 1 45 12
M  V30 47 1 46 13
M  V30 48 1 15 47 CFG=3
M  V30 49 1 48 16
M  V30 50 1 49 16
M  V30 51 1 17 50 CFG=1
M  V30 52 1 51 18
M  V30 53 1 52 20
M  V30 54 1 53 20
M  V30 55 1 54 21
M  V30 56 1 55 21
M  V30 57 1 56 21
M  V30 58 1 57 22
M  V30 59 1 58 22
M  V30 60 1 59 23
M  V30 61 1 60 23
M  V30 62 1 61 23
M  V30 63 1 62 24
M  V30 64 1 63 24
M  V30 65 1 64 26
M  V30 66 1 65 30
M  V30 67 1 66 30
M  V30 68 1 67 31
M  V30 69 1 68 31
M  V30 70 1 32 69 CFG=3
M  V30 71 1 70 34
M  V30 72 1 71 6
M  V30 73 1 72 18
M  V30 74 1 73 30
M  V30 END BOND
M  V30 END CTAB
M  END
>  <i_epik_Tot_Q>  (1) 
1

>  <i_epik_Tot_abs_Q>  (1) 
3

>  <i_i_glide_confnum>  (1) 
860

>  <i_i_glide_lignum>  (1) 
30

>  <i_i_glide_posenum>  (1) 
276

>  <i_i_glide_rotatable_bonds>  (1) 
15

>  <i_lp_mmshare_version>  (1) 
72125

>  <i_m_source_file_index>  (1) 
11

>  <i_f3d_flags>  (1) 
0

>  <num_sample>  (1) 
50

>  <b_lp_Chiralities_Consistent>  (1) 
1

>  <r_epik_Charging_Adjusted_Penalty>  (1) 
2.168687317063887

>  <r_epik_Ionization_Penalty>  (1) 
1.1047352072338965

>  <r_epik_Ionization_Penalty_Charging>  (1) 
1.0999234457570315

>  <r_epik_Ionization_Penalty_Neutral>  (1) 
0.0048117614768649203

>  <r_epik_State_Penalty>  (1) 
1.0687638713068555

>  <r_glide_ring_energy>  (1) 
0

>  <r_i_docking_score>  (1) 
-2.8902260405383142

>  <r_i_glide_ecoul>  (1) 
-5.8862273882168035

>  <r_i_glide_eff_state_penalty>  (1) 
1.0687638713068555

>  <r_i_glide_einternal>  (1) 
13.907057780425927

>  <r_i_glide_emodel>  (1) 
-42.358092524016598

>  <r_i_glide_emodel_strain>  (1) 
2.3693415102524398

>  <r_i_glide_energy>  (1) 
-36.195799336387303

>  <r_i_glide_erotb>  (1) 
0.82219216958862984

>  <r_i_glide_esite>  (1) 
-0.14784425522325159

>  <r_i_glide_evdw>  (1) 
-30.309571948170497

>  <r_i_glide_gscore>  (1) 
-3.9589899118451699

>  <r_i_glide_gscore_strain>  (1) 
0

>  <r_i_glide_hbond>  (1) 
-0.46849649748423172

>  <r_i_glide_ligand_efficiency>  (1) 
-0.085006648251126887

>  <r_i_glide_ligand_efficiency_ln>  (1) 
-0.6385320004493914

>  <r_i_glide_ligand_efficiency_sa>  (1) 
-0.27538854086139464

>  <r_i_glide_lipo>  (1) 
-0.8600879717605836

>  <r_i_glide_metal>  (1) 
-0

>  <r_i_glide_rewards>  (1) 
-0.90634065132468766

>  <r_lp_Energy>  (1) 
21.193534

>  <s_epik_Chemistry_Notes>  (1) 
This compound has an imine and may undergo hydrolysis. This compound contains an acetal/aminal-like group ( X-CH(R)-Y where X, Y are N, S, or O) that may be acid/base labile, releasing an aldehyde.

>  <s_epik_cmdline>  (1) 
J2VwaWtfcHl0aG9uJywgJy1waHQnLCAnMS4wJywgJy1waCcsICc3LjQnLCAnLXRuJywgJzgnLCAnLW1hJywgJzUwMCcsICctaW1hZScsICc8aW5maWxlLm1hZT4nLCAnLW9tYWUnLCAnPG91dGZpbGUubWFlPic=

>  <s_epik_input>  (1) 
W1NIXVMoPU8pKD1PKVtDQEBdMShbQ0gyXVtDSDNdKVtDQEBdKFtDSDNdKShbQ0BASF0xW09IXSlPW0NASF0oW0NAQEhdMltDSDNdKVtOSF1bQ0BASF0oRilbQ0BIXTJbQ0gyXVxbQ0hdPVtDSF1cQyhbQ0gyXVtOSDJdKT1OL0MoPU4vW0hdKS9bQ0gyXVtDSDJdW0NIMl1bTkhdW0NIMl1bT0hd

>  <s_glide_docking_method>  (1) 
confgen

>  <s_i_glide_gridfile>  (1) 
gpcr_drd2_6luq_protein_autoprepared_prepared

>  <s_lp_Force_Field>  (1) 
S-OPLS

>  <s_lp_Variant>  (1) 
DiffSBDD_10_num_sample_50-10

>  <s_m_source_file>  (1) 
generated__ligand_DiffSBDD_2026-05-06_prepared.sdf

>  <GenAI_Model>  (1) 
DiffSBDD

>  <Protein>  (1) 
generic_title2

$$$$
DiffSBDD_29_num_sample_50
     RDKit          3D

  0  0  0  0  0  0  0  0  0  0999 V3000
M  V30 BEGIN CTAB
M  V30 COUNTS 63 66 0 0 1
M  V30 BEGIN ATOM
M  V30 1 C 14.563641 7.247419 -18.956112 0
M  V30 2 O 8.474825 5.554580 -14.947827 0
M  V30 3 C 5.680854 4.776940 -12.153701 0
M  V30 4 C 13.243049 7.939532 -18.797137 0
M  V30 5 O 7.052168 3.062755 -15.168546 0
M  V30 6 N 11.365157 4.843447 -17.295321 0
M  V30 7 C 5.851107 4.435902 -13.635565 0
M  V30 8 C 7.550473 6.563716 -12.372342 0
M  V30 9 C 9.996812 5.896926 -12.303469 0
M  V30 10 C 16.649948 6.717068 -20.004441 0
M  V30 11 C 11.602521 6.038980 -18.114868 0
M  V30 12 C 12.639209 4.146353 -17.091769 0
M  V30 13 C 7.579460 1.746107 -15.211687 0
M  V30 14 C 8.432450 4.623387 -13.858263 0 CFG=1
M  V30 15 C 14.845575 6.355395 -17.995373 0
M  V30 16 C 13.688791 4.997623 -16.357763 0
M  V30 17 C 12.683888 7.022548 -17.570884 0 CFG=1
M  V30 18 C 8.563196 5.404076 -12.518653 0 CFG=2
M  V30 19 C 15.461016 7.466250 -20.006096 0
M  V30 20 C 9.114663 5.141909 -16.160268 0
M  V30 21 N 15.966298 5.589200 -17.934171 0
M  V30 22 C 7.177632 3.712116 -13.909903 0 CFG=2
M  V30 23 C 6.195525 6.162721 -11.766541 0
M  V30 24 N 13.868942 6.276096 -17.038272 0
M  V30 25 C 16.858596 5.791199 -18.948652 0
M  V30 26 N 14.955335 9.195845 -21.898811 0
M  V30 27 C 10.650437 5.107265 -16.043303 0
M  V30 28 C 15.179429 8.430287 -21.060883 0
M  V30 29 C 7.397369 1.194774 -16.626305 0
M  V30 30 H 6.156538 4.018198 -11.531550 0
M  V30 31 H 4.634839 4.712638 -11.886088 0
M  V30 32 H 13.434854 8.969282 -18.499530 0
M  V30 33 H 12.618948 7.912874 -19.691094 0
M  V30 34 H 5.034864 3.768977 -13.891657 0
M  V30 35 H 5.732276 5.312579 -14.273469 0
M  V30 36 H 7.964928 7.342072 -11.730124 0
M  V30 37 H 7.392324 7.052768 -13.333634 0
M  V30 38 H 10.324417 6.569308 -13.091664 0
M  V30 39 H 10.104629 6.414121 -11.349463 0
M  V30 40 H 10.667057 5.043381 -12.291565 0
M  V30 41 H 17.385783 6.840173 -20.786298 0
M  V30 42 H 10.666423 6.569279 -18.289691 0
M  V30 43 H 11.922791 5.698529 -19.100655 0
M  V30 44 H 13.041133 3.843764 -18.059740 0
M  V30 45 H 12.471453 3.220110 -16.542968 0
M  V30 46 H 8.634818 1.745760 -14.944246 0
M  V30 47 H 7.056886 1.107803 -14.497337 0
M  V30 48 H 9.297197 3.969620 -13.894313 0
M  V30 49 H 14.618866 4.440326 -16.247720 0
M  V30 50 H 13.362509 5.222844 -15.345343 0
M  V30 51 H 12.259823 7.646641 -16.783935 0
M  V30 52 H 8.394657 4.702630 -11.700456 0
M  V30 53 H 8.825263 5.839780 -16.942070 0
M  V30 54 H 8.747693 4.172788 -16.492229 0
M  V30 55 H 7.288363 2.946653 -13.138865 0
M  V30 56 H 6.270762 6.169296 -10.682505 0
M  V30 57 H 5.454854 6.922524 -12.019063 0
M  V30 58 H 17.760369 5.197793 -18.916001 0
M  V30 59 H 10.882056 4.306139 -15.356836 0
M  V30 60 H 11.024087 6.018709 -15.576884 0
M  V30 61 H 7.781359 0.177327 -16.699586 0
M  V30 62 H 6.343329 1.175897 -16.903697 0
M  V30 63 H 7.925513 1.808171 -17.356565 0
M  V30 END ATOM
M  V30 BEGIN BOND
M  V30 1 1 4 1
M  V30 2 1 7 3
M  V30 3 1 11 6
M  V30 4 1 12 6
M  V30 5 1 13 5
M  V30 6 1 14 2
M  V30 7 1 15 1
M  V30 8 1 16 12
M  V30 9 1 17 4
M  V30 10 1 17 11
M  V30 11 1 18 8
M  V30 12 1 18 9
M  V30 13 1 18 14
M  V30 14 2 19 1
M  V30 15 1 19 10
M  V30 16 1 20 2
M  V30 17 2 21 15
M  V30 18 1 22 5
M  V30 19 1 22 7
M  V30 20 1 22 14
M  V30 21 1 23 3
M  V30 22 1 23 8
M  V30 23 1 24 15
M  V30 24 1 24 16
M  V30 25 1 24 17
M  V30 26 2 25 10
M  V30 27 1 25 21
M  V30 28 1 27 6
M  V30 29 1 27 20
M  V30 30 1 28 19
M  V30 31 3 28 26
M  V30 32 1 29 13
M  V30 33 1 30 3
M  V30 34 1 31 3
M  V30 35 1 32 4
M  V30 36 1 33 4
M  V30 37 1 34 7
M  V30 38 1 35 7
M  V30 39 1 36 8
M  V30 40 1 37 8
M  V30 41 1 38 9
M  V30 42 1 39 9
M  V30 43 1 40 9
M  V30 44 1 41 10
M  V30 45 1 42 11
M  V30 46 1 43 11
M  V30 47 1 44 12
M  V30 48 1 45 12
M  V30 49 1 46 13
M  V30 50 1 47 13
M  V30 51 1 14 48 CFG=3
M  V30 52 1 49 16
M  V30 53 1 50 16
M  V30 54 1 17 51 CFG=1
M  V30 55 1 18 52 CFG=1
M  V30 56 1 53 20
M  V30 57 1 54 20
M  V30 58 1 22 55 CFG=1
M  V30 59 1 56 23
M  V30 60 1 57 23
M  V30 61 1 58 25
M  V30 62 1 59 27
M  V30 63 1 60 27
M  V30 64 1 61 29
M  V30 65 1 62 29
M  V30 66 1 63 29
M  V30 END BOND
M  V30 END CTAB
M  END
>  <i_epik_Tot_Q>  (1) 
0

>  <i_epik_Tot_abs_Q>  (1) 
0

>  <i_i_glide_confnum>  (1) 
372

>  <i_i_glide_lignum>  (1) 
72

>  <i_i_glide_posenum>  (1) 
395

>  <i_i_glide_rotatable_bonds>  (1) 
6

>  <i_lp_mmshare_version>  (1) 
72125

>  <i_m_source_file_index>  (1) 
30

>  <i_f3d_flags>  (1) 
0

>  <num_sample>  (1) 
50

>  <b_lp_Chiralities_Consistent>  (1) 
1

>  <r_epik_Charging_Adjusted_Penalty>  (1) 
0.33209033116494396

>  <r_epik_Ionization_Penalty>  (1) 
0.33211857123964

>  <r_epik_Ionization_Penalty_Charging>  (1) 
0

>  <r_epik_Ionization_Penalty_Neutral>  (1) 
0.33211857123964

>  <r_epik_State_Penalty>  (1) 
0.33209033116494396

>  <r_glide_ring_energy>  (1) 
1.1787790322658447

>  <r_i_docking_score>  (1) 
-2.8724577039295962

>  <r_i_glide_ecoul>  (1) 
-2.512761456432163

>  <r_i_glide_eff_state_penalty>  (1) 
0.33209033116494396

>  <r_i_glide_einternal>  (1) 
2.6079745277233002

>  <r_i_glide_emodel>  (1) 
-30.100360535178098

>  <r_i_glide_emodel_strain>  (1) 
0.14033691748701926

>  <r_i_glide_energy>  (1) 
-25.926969807417684

>  <r_i_glide_erotb>  (1) 
0.61650785367983663

>  <r_i_glide_esite>  (1) 
0

>  <r_i_glide_evdw>  (1) 
-23.414208350985522

>  <r_i_glide_gscore>  (1) 
-3.2045480350945401

>  <r_i_glide_gscore_strain>  (1) 
0

>  <r_i_glide_hbond>  (1) 
0

>  <r_i_glide_ligand_efficiency>  (1) 
-0.09905026565274469

>  <r_i_glide_ligand_efficiency_ln>  (1) 
-0.65771997495724766

>  <r_i_glide_ligand_efficiency_sa>  (1) 
-0.30431379775358053

>  <r_i_glide_lipo>  (1) 
-1.1833014944624407

>  <r_i_glide_metal>  (1) 
-0

>  <r_i_glide_rewards>  (1) 
-1.0901297582978353

>  <r_lp_Energy>  (1) 
52.960926000000001

>  <s_epik_cmdline>  (1) 
J2VwaWtfcHl0aG9uJywgJy1waHQnLCAnMS4wJywgJy1waCcsICc3LjQnLCAnLXRuJywgJzgnLCAnLW1hJywgJzUwMCcsICctaW1hZScsICc8aW5maWxlLm1hZT4nLCAnLW9tYWUnLCAnPG91dGZpbGUubWFlPic=

>  <s_epik_input>  (1) 
TiNDYzFbY0hdW2NIXW5jKGMxMilOM1tDQEhdKFtDSDJdMilbQ0gyXU4oW0NIMl1bQ0gyXTMpW0NIMl1bQ0gyXU9bQ0BIXTRbQ0BASF0oW0NIM10pW0NIMl1bQ0gyXVtDSDJdW0NIMl1bQ0BIXTRPW0NIMl1bQ0gzXQ==

>  <s_glide_docking_method>  (1) 
confgen

>  <s_i_glide_gridfile>  (1) 
gpcr_drd2_6luq_protein_autoprepared_prepared

>  <s_lp_Force_Field>  (1) 
S-OPLS

>  <s_lp_Variant>  (1) 
DiffSBDD_29_num_sample_50-2

>  <s_m_source_file>  (1) 
generated__ligand_DiffSBDD_2026-05-06_prepared.sdf

>  <GenAI_Model>  (1) 
DiffSBDD

>  <Protein>  (1) 
generic_title2

$$$$
DiffSBDD_28_num_sample_50
     RDKit          3D

  0  0  0  0  0  0  0  0  0  0999 V3000
M  V30 BEGIN CTAB
M  V30 COUNTS 71 73 0 0 1
M  V30 BEGIN ATOM
M  V30 1 N 7.101054 6.320309 -12.650041 0 CFG=2 CHG=1
M  V30 2 C 5.407533 5.793020 -19.452677 0
M  V30 3 C 10.789213 7.085502 -6.962117 0 CFG=2
M  V30 4 C 6.869250 7.769277 -12.637508 0
M  V30 5 N 9.436711 3.471571 -17.838158 0
M  V30 6 O 9.434836 3.550412 -11.891744 0 CHG=-1
M  V30 7 C 6.127081 5.524509 -13.463771 0 CFG=1
M  V30 8 N 6.532068 4.435460 -11.507025 0
M  V30 9 F 11.129483 3.059543 -19.333770 0
M  V30 10 C 11.056704 8.262564 -9.105346 0
M  V30 11 O 5.434872 3.212036 -13.091752 0
M  V30 12 C 11.475668 8.292181 -7.626906 0
M  V30 13 C 10.304500 6.940073 -9.295674 0 CFG=1
M  V30 14 C 9.665473 6.696199 -7.929236 0
M  V30 15 O 4.465708 6.532029 -17.390434 0
M  V30 16 N 7.590053 4.866654 -17.609093 0
M  V30 17 N 9.288103 1.029911 -17.732676 0
M  V30 18 C 8.914018 4.770778 -17.782763 0
M  V30 19 C 5.485909 6.168543 -17.977181 0
M  V30 20 C 6.602485 5.194104 -14.889697 0
M  V30 21 C 7.107604 2.306457 -17.452754 0 CFG=2
M  V30 22 C 6.871376 6.407190 -15.788076 0
M  V30 23 F 5.942560 0.176749 -17.119710 0
M  V30 24 C 8.677696 5.549036 -10.853352 0 CFG=1
M  V30 25 F 6.408805 2.706379 -18.518638 0
M  V30 26 O 9.627191 5.769240 -17.888683 0
M  V30 27 O 9.835066 5.474443 -12.931206 0
M  V30 28 C 6.872079 6.114450 -17.313840 0 CFG=1
M  V30 29 C 10.313937 7.349407 -5.531542 0
M  V30 30 C 7.192049 5.690459 -11.301876 0 CFG=1
M  V30 31 C 8.212581 0.223907 -17.501734 0
M  V30 32 C 9.397307 4.791584 -11.980068 0
M  V30 33 C 5.949954 4.236794 -12.669303 0
M  V30 34 C 10.889414 3.325308 -18.048726 0
M  V30 35 C 8.694486 2.210534 -17.689596 0
M  V30 36 C 7.084693 0.844190 -17.354986 0
M  V30 37 C 9.368839 6.916189 -10.513068 0
M  V30 38 H 6.375779 5.932091 -19.933571 0
M  V30 39 H 5.112200 4.749867 -19.562254 0
M  V30 40 H 4.676187 6.412917 -19.968081 0
M  V30 41 H 11.507257 6.264222 -6.938686 0
M  V30 42 H 5.859934 7.998420 -12.291268 0
M  V30 43 H 7.564714 8.301866 -11.997777 0
M  V30 44 H 7.034918 8.163562 -13.640030 0
M  V30 45 H 5.161383 6.030678 -13.496256 0
M  V30 46 H 6.577527 3.712781 -10.803265 0
M  V30 47 H 11.906594 8.351135 -9.782347 0
M  V30 48 H 10.389062 9.099765 -9.309108 0
M  V30 49 H 12.559085 8.233571 -7.517964 0
M  V30 50 H 11.157524 9.232048 -7.172198 0
M  V30 51 H 11.035122 6.169270 -9.420746 0
M  V30 52 H 8.796267 7.344485 -7.797661 0
M  V30 53 H 9.339291 5.664457 -7.791258 0
M  V30 54 H 7.025899 4.034433 -17.701525 0
M  V30 55 H 5.835121 4.587908 -15.357309 0
M  V30 56 H 7.495673 4.566526 -14.847299 0
M  V30 57 H 6.802950 2.742677 -16.500670 0
M  V30 58 H 7.834668 6.790510 -15.474387 0
M  V30 59 H 6.150678 7.196274 -15.573002 0
M  V30 60 H 8.698996 4.924127 -9.960169 0
M  V30 61 H 7.416850 6.928068 -17.797036 0
M  V30 62 H 9.574669 8.149151 -5.510316 0
M  V30 63 H 9.853473 6.459734 -5.099886 0
M  V30 64 H 11.144503 7.642501 -4.888839 0
M  V30 65 H 6.560408 6.169307 -10.566431 0
M  V30 66 H 8.353006 -0.846975 -17.454126 0
M  V30 67 H 11.465396 4.216118 -17.798211 0
M  V30 68 H 11.326365 2.523595 -17.453038 0
M  V30 69 H 9.919074 7.308102 -11.367565 0
M  V30 70 H 8.634957 7.678065 -10.316771 0
M  V30 71 H 8.021365 6.156989 -13.054857 0
M  V30 END ATOM
M  V30 BEGIN BOND
M  V30 1 1 4 1
M  V30 2 1 7 1
M  V30 3 1 12 3
M  V30 4 1 12 10
M  V30 5 1 13 10
M  V30 6 1 14 3
M  V30 7 1 14 13
M  V30 8 1 18 5
M  V30 9 1 18 16
M  V30 10 1 19 2
M  V30 11 2 19 15
M  V30 12 1 20 7
M  V30 13 1 22 20
M  V30 14 1 25 21
M  V30 15 2 26 18
M  V30 16 1 28 16
M  V30 17 1 28 19
M  V30 18 1 28 22
M  V30 19 1 29 3
M  V30 20 1 30 1
M  V30 21 1 30 8
M  V30 22 1 30 24
M  V30 23 1 31 17
M  V30 24 1 32 6
M  V30 25 1 32 24
M  V30 26 2 32 27
M  V30 27 1 33 7
M  V30 28 1 33 8
M  V30 29 2 33 11
M  V30 30 1 34 5
M  V30 31 1 34 9
M  V30 32 1 35 5
M  V30 33 2 35 17
M  V30 34 1 35 21
M  V30 35 1 36 21
M  V30 36 1 36 23
M  V30 37 2 36 31
M  V30 38 1 37 13
M  V30 39 1 37 24
M  V30 40 1 38 2
M  V30 41 1 39 2
M  V30 42 1 40 2
M  V30 43 1 3 41 CFG=1
M  V30 44 1 42 4
M  V30 45 1 43 4
M  V30 46 1 44 4
M  V30 47 1 7 45 CFG=3
M  V30 48 1 46 8
M  V30 49 1 47 10
M  V30 50 1 48 10
M  V30 51 1 49 12
M  V30 52 1 50 12
M  V30 53 1 13 51 CFG=3
M  V30 54 1 52 14
M  V30 55 1 53 14
M  V30 56 1 54 16
M  V30 57 1 55 20
M  V30 58 1 56 20
M  V30 59 1 21 57 CFG=1
M  V30 60 1 58 22
M  V30 61 1 59 22
M  V30 62 1 24 60 CFG=1
M  V30 63 1 28 61 CFG=3
M  V30 64 1 62 29
M  V30 65 1 63 29
M  V30 66 1 64 29
M  V30 67 1 30 65 CFG=1
M  V30 68 1 66 31
M  V30 69 1 67 34
M  V30 70 1 68 34
M  V30 71 1 69 37
M  V30 72 1 70 37
M  V30 73 1 1 71 CFG=3
M  V30 END BOND
M  V30 END CTAB
M  END
>  <i_epik_Tot_Q>  (1) 
0

>  <i_epik_Tot_abs_Q>  (1) 
2

>  <i_i_glide_confnum>  (1) 
2170

>  <i_i_glide_lignum>  (1) 
69

>  <i_i_glide_posenum>  (1) 
271

>  <i_i_glide_rotatable_bonds>  (1) 
13

>  <i_lp_mmshare_version>  (1) 
72125

>  <i_m_source_file_index>  (1) 
29

>  <i_f3d_flags>  (1) 
0

>  <num_sample>  (1) 
50

>  <b_lp_Chiralities_Consistent>  (1) 
1

>  <r_epik_Charging_Adjusted_Penalty>  (1) 
0.054083419880676768

>  <r_epik_Ionization_Penalty>  (1) 
0.12983459298085004

>  <r_epik_Ionization_Penalty_Charging>  (1) 
0.054083419880676768

>  <r_epik_Ionization_Penalty_Neutral>  (1) 
0.075751173100173264

>  <r_epik_State_Penalty>  (1) 
-0

>  <r_glide_ring_energy>  (1) 
0

>  <r_i_docking_score>  (1) 
-2.857274908446386

>  <r_i_glide_ecoul>  (1) 
-0.26975859508284339

>  <r_i_glide_eff_state_penalty>  (1) 
-0

>  <r_i_glide_einternal>  (1) 
16.759727995841754

>  <r_i_glide_emodel>  (1) 
-24.972751632834303

>  <r_i_glide_emodel_strain>  (1) 
1.7193349054000748

>  <r_i_glide_energy>  (1) 
-30.881852740860278

>  <r_i_glide_erotb>  (1) 
0.66137813184917615

>  <r_i_glide_esite>  (1) 
-0.12187361664626808

>  <r_i_glide_evdw>  (1) 
-30.612094145777434

>  <r_i_glide_gscore>  (1) 
-2.857274908446386

>  <r_i_glide_gscore_strain>  (1) 
0

>  <r_i_glide_hbond>  (1) 
0

>  <r_i_glide_ligand_efficiency>  (1) 
-0.077223646174226654

>  <r_i_glide_ligand_efficiency_ln>  (1) 
-0.61967594361440803

>  <r_i_glide_ligand_efficiency_sa>  (1) 
-0.25732632124553351

>  <r_i_glide_lipo>  (1) 
-1.4954811562829053

>  <r_i_glide_metal>  (1) 
-0

>  <r_i_glide_rewards>  (1) 
-0.3302297708150897

>  <r_lp_Energy>  (1) 
31.855165999999997

>  <r_lp_tautomer_probability>  (1) 
1

>  <s_epik_Chemistry_Notes>  (1) 
This compound has an imine and may undergo hydrolysis. This compound contains an acetal/aminal-like group ( X-CH(R)-Y where X, Y are N, S, or O) that may be acid/base labile, releasing an aldehyde.

>  <s_epik_cmdline>  (1) 
J2VwaWtfcHl0aG9uJywgJy1waHQnLCAnMS4wJywgJy1waCcsICc3LjQnLCAnLXRuJywgJzgnLCAnLW1hJywgJzUwMCcsICctaW1hZScsICc8aW5maWxlLm1hZT4nLCAnLW9tYWUnLCAnPG91dGZpbGUubWFlPic=

>  <s_epik_input>  (1) 
W0NIM11bQ0BASF0xW0NIMl1bQ0gyXVtDQEBIXShbQ0gyXTEpW0NIMl1bQ0BIXShDKD1PKVtPSF0pW0NAQEhdMltOSF1DKD1PKVtDQEBIXShOMltDSDNdKVtDSDJdW0NIMl1bQ0BIXShDKD1PKVtDSDNdKVtOSF1DKD1PKU4oW0NIMl1GKUMoW0NASF0zRik9TltDSF09QzNG

>  <s_glide_docking_method>  (1) 
confgen

>  <s_i_glide_gridfile>  (1) 
gpcr_drd2_6luq_protein_autoprepared_prepared

>  <s_lp_Force_Field>  (1) 
S-OPLS

>  <s_lp_Variant>  (1) 
DiffSBDD_28_num_sample_50-1

>  <s_m_source_file>  (1) 
generated__ligand_DiffSBDD_2026-05-06_prepared.sdf

>  <GenAI_Model>  (1) 
DiffSBDD

>  <Protein>  (1) 
generic_title2

$$$$
DiffSBDD_10_num_sample_50
     RDKit          3D

  0  0  0  0  0  0  0  0  0  0999 V3000
M  V30 BEGIN CTAB
M  V30 COUNTS 72 73 0 0 1
M  V30 BEGIN ATOM
M  V30 1 C 13.211311 4.971681 -17.854067 0 CFG=2
M  V30 2 C 9.155548 6.872444 -12.690332 0
M  V30 3 C 5.708413 5.835090 -15.389850 0
M  V30 4 C 7.577478 4.405664 -18.204162 0 CFG=1
M  V30 5 C 12.143275 3.864061 -18.037799 0 CFG=2
M  V30 6 N 9.417280 4.521668 -13.151370 0
M  V30 7 N 9.395372 3.079111 -17.468578 0
M  V30 8 C 9.809848 3.591764 -18.744297 0 CFG=1
M  V30 9 S 14.986841 4.383171 -17.647352 0
M  V30 10 C 10.145078 6.918710 -11.541305 0
M  V30 11 S 15.321529 3.558179 -19.565614 0 CHG=-1
M  V30 12 C 13.471967 7.532510 -17.508994 0
M  V30 13 O 10.418289 7.093016 -6.808374 0
M  V30 14 O 15.901808 5.528480 -17.525699 0
M  V30 15 C 12.360432 4.503426 -16.689018 0 CFG=2
M  V30 16 C 6.064994 5.956819 -12.852728 0
M  V30 17 C 7.951234 3.151740 -17.394851 0 CFG=1
M  V30 18 N 10.220015 7.060611 -9.016123 0 CHG=1
M  V30 19 N 7.941529 5.763717 -14.424496 0
M  V30 20 C 9.409712 7.227919 -10.238060 0
M  V30 21 C 9.103212 5.834149 -19.825650 0
M  V30 22 C 13.105045 6.376414 -18.460927 0
M  V30 23 C 12.438112 2.388015 -18.310919 0
M  V30 24 C 7.423029 5.683358 -17.340218 0
M  V30 25 C 6.682253 5.842253 -14.251127 0
M  V30 26 O 11.323006 5.384648 -16.292642 0
M  V30 27 C 8.859864 5.756160 -13.383798 0
M  V30 28 O 15.076107 3.288777 -16.667235 0
M  V30 29 F 7.561153 3.157423 -16.122284 0
M  V30 30 N 6.096056 4.703410 -12.122853 0
M  V30 31 C 9.430155 7.301080 -7.793028 0
M  V30 32 C 8.657197 4.446182 -19.313630 0 CFG=2
M  V30 33 O 10.969307 4.373497 -18.683972 0
M  V30 34 C 6.023684 5.768274 -16.717072 0
M  V30 35 H 8.666962 7.803705 -12.946124 0
M  V30 36 H 4.674216 5.885919 -15.094034 0
M  V30 37 H 6.616678 4.235318 -18.692104 0
M  V30 38 H 10.206952 4.413796 -12.532685 0
M  V30 39 H 9.716810 2.137618 -17.299322 0
M  V30 40 H 10.002811 2.755921 -19.418879 0
M  V30 41 H 10.919167 7.657791 -11.734416 0
M  V30 42 H 10.635281 5.954991 -11.491388 0
M  V30 43 H 13.436630 8.483332 -18.041185 0
M  V30 44 H 12.775181 7.602201 -16.674042 0
M  V30 45 H 14.472212 7.438265 -17.091948 0
M  V30 46 H 10.018873 6.639285 -6.077148 0
M  V30 47 H 12.810190 3.927888 -15.891747 0
M  V30 48 H 6.581058 6.717930 -12.269271 0
M  V30 49 H 5.033734 6.293594 -12.934734 0
M  V30 50 H 7.518069 2.265031 -17.860211 0
M  V30 51 H 10.996807 7.702364 -9.025981 0
M  V30 52 H 8.558343 6.553825 -10.162581 0
M  V30 53 H 9.035234 8.251541 -10.278014 0
M  V30 54 H 9.543730 6.439258 -19.030718 0
M  V30 55 H 9.853700 5.741061 -20.612036 0
M  V30 56 H 8.259300 6.386614 -20.239290 0
M  V30 57 H 13.749938 6.413099 -19.340341 0
M  V30 58 H 12.091733 6.541399 -18.826927 0
M  V30 59 H 13.328310 2.046578 -17.792174 0
M  V30 60 H 11.628262 1.747898 -17.968231 0
M  V30 61 H 12.581043 2.223974 -19.378763 0
M  V30 62 H 7.444843 6.561052 -17.984269 0
M  V30 63 H 8.297778 5.786759 -16.715940 0
M  V30 64 H 10.609479 4.870115 -15.937859 0
M  V30 65 H 7.059499 4.402655 -12.064094 0
M  V30 66 H 5.794713 4.868130 -11.171700 0
M  V30 67 H 8.620519 6.574483 -7.699341 0
M  V30 68 H 9.024670 8.313152 -7.747445 0
M  V30 69 H 8.272389 3.886736 -20.169316 0
M  V30 70 H 5.211520 5.770894 -17.428152 0
M  V30 71 H 9.247671 3.752940 -13.783451 0
M  V30 72 H 10.568231 6.113422 -8.978392 0
M  V30 END ATOM
M  V30 BEGIN BOND
M  V30 1 1 5 1
M  V30 2 1 8 7
M  V30 3 1 9 1
M  V30 4 1 10 2
M  V30 5 1 11 9
M  V30 6 2 14 9
M  V30 7 1 15 1
M  V30 8 1 15 5
M  V30 9 1 17 4
M  V30 10 1 17 7
M  V30 11 1 20 10
M  V30 12 1 20 18
M  V30 13 1 1 22 CFG=3
M  V30 14 1 22 12
M  V30 15 1 23 5
M  V30 16 1 24 4
M  V30 17 1 25 3
M  V30 18 1 25 16
M  V30 19 2 25 19
M  V30 20 1 26 15
M  V30 21 2 27 2
M  V30 22 1 27 6
M  V30 23 1 27 19
M  V30 24 2 28 9
M  V30 25 1 29 17
M  V30 26 1 30 16
M  V30 27 1 31 13
M  V30 28 1 31 18
M  V30 29 1 32 4
M  V30 30 1 32 8
M  V30 31 1 32 21
M  V30 32 1 5 33 CFG=3
M  V30 33 1 33 8
M  V30 34 2 34 3
M  V30 35 1 34 24
M  V30 36 1 35 2
M  V30 37 1 36 3
M  V30 38 1 4 37 CFG=3
M  V30 39 1 38 6
M  V30 40 1 39 7
M  V30 41 1 8 40 CFG=3
M  V30 42 1 41 10
M  V30 43 1 42 10
M  V30 44 1 43 12
M  V30 45 1 44 12
M  V30 46 1 45 12
M  V30 47 1 46 13
M  V30 48 1 15 47 CFG=1
M  V30 49 1 48 16
M  V30 50 1 49 16
M  V30 51 1 17 50 CFG=3
M  V30 52 1 51 18
M  V30 53 1 52 20
M  V30 54 1 53 20
M  V30 55 1 54 21
M  V30 56 1 55 21
M  V30 57 1 56 21
M  V30 58 1 57 22
M  V30 59 1 58 22
M  V30 60 1 59 23
M  V30 61 1 60 23
M  V30 62 1 61 23
M  V30 63 1 62 24
M  V30 64 1 63 24
M  V30 65 1 64 26
M  V30 66 1 65 30
M  V30 67 1 66 30
M  V30 68 1 67 31
M  V30 69 1 68 31
M  V30 70 1 32 69 CFG=3
M  V30 71 1 70 34
M  V30 72 1 71 6
M  V30 73 1 72 18
M  V30 END BOND
M  V30 END CTAB
M  END
>  <i_epik_Tot_Q>  (1) 
0

>  <i_epik_Tot_abs_Q>  (1) 
2

>  <i_i_glide_confnum>  (1) 
2163

>  <i_i_glide_lignum>  (1) 
23

>  <i_i_glide_posenum>  (1) 
266

>  <i_i_glide_rotatable_bonds>  (1) 
15

>  <i_lp_mmshare_version>  (1) 
72125

>  <i_m_source_file_index>  (1) 
11

>  <i_f3d_flags>  (1) 
0

>  <num_sample>  (1) 
50

>  <b_lp_Chiralities_Consistent>  (1) 
1

>  <r_epik_Charging_Adjusted_Penalty>  (1) 
0.33639934582642134

>  <r_epik_Ionization_Penalty>  (1) 
0.23315943830934333

>  <r_epik_Ionization_Penalty_Charging>  (1) 
0.10316865490585193

>  <r_epik_Ionization_Penalty_Neutral>  (1) 
0.12999078340349141

>  <r_epik_State_Penalty>  (1) 
0.23323069092056939

>  <r_glide_ring_energy>  (1) 
0

>  <r_i_docking_score>  (1) 
-2.8533574291141681

>  <r_i_glide_ecoul>  (1) 
-5.6164246499547925

>  <r_i_glide_eff_state_penalty>  (1) 
0.23323069092056939

>  <r_i_glide_einternal>  (1) 
10.331448164016418

>  <r_i_glide_emodel>  (1) 
-38.545104129412849

>  <r_i_glide_emodel_strain>  (1) 
0.87382493522260063

>  <r_i_glide_energy>  (1) 
-35.105234905896779

>  <r_i_glide_erotb>  (1) 
0.82510599487301828

>  <r_i_glide_esite>  (1) 
-0.15992936719676107

>  <r_i_glide_evdw>  (1) 
-29.488810255941985

>  <r_i_glide_gscore>  (1) 
-3.0865881200347376

>  <r_i_glide_gscore_strain>  (1) 
0

>  <r_i_glide_hbond>  (1) 
-0.033770706305667461

>  <r_i_glide_ligand_efficiency>  (1) 
-0.083922277326887298

>  <r_i_glide_ligand_efficiency_ln>  (1) 
-0.63038669005627535

>  <r_i_glide_ligand_efficiency_sa>  (1) 
-0.27187560001826588

>  <r_i_glide_lipo>  (1) 
-0.72112206107175636

>  <r_i_glide_metal>  (1) 
-0

>  <r_i_glide_rewards>  (1) 
-0.67996777004325293

>  <r_lp_Energy>  (1) 
24.577817

>  <s_epik_Chemistry_Notes>  (1) 
This compound has an imine and may undergo hydrolysis. This compound contains an acetal/aminal-like group ( X-CH(R)-Y where X, Y are N, S, or O) that may be acid/base labile, releasing an aldehyde.

>  <s_epik_cmdline>  (1) 
J2VwaWtfcHl0aG9uJywgJy1waHQnLCAnMS4wJywgJy1waCcsICc3LjQnLCAnLXRuJywgJzgnLCAnLW1hJywgJzUwMCcsICctaW1hZScsICc8aW5maWxlLm1hZT4nLCAnLW9tYWUnLCAnPG91dGZpbGUubWFlPic=

>  <s_epik_input>  (1) 
W1NIXVMoPU8pKD1PKVtDQEBdMShbQ0gyXVtDSDNdKVtDQEBdKFtDSDNdKShbQ0BASF0xW09IXSlPW0NASF0oW0NAQEhdMltDSDNdKVtOSF1bQ0BASF0oRilbQ0BIXTJbQ0gyXS9bQ0hdPVtDSF1cQyhbQ0gyXVtOSDJdKT1OXEMoPU5cW0hdKVxbQ0gyXVtDSDJdW0NIMl1bTkhdW0NIMl1bT0hd

>  <s_glide_docking_method>  (1) 
confgen

>  <s_i_glide_gridfile>  (1) 
gpcr_drd2_6luq_protein_autoprepared_prepared

>  <s_lp_Force_Field>  (1) 
S-OPLS

>  <s_lp_Variant>  (1) 
DiffSBDD_10_num_sample_50-3

>  <s_m_source_file>  (1) 
generated__ligand_DiffSBDD_2026-05-06_prepared.sdf

>  <GenAI_Model>  (1) 
DiffSBDD

>  <Protein>  (1) 
generic_title2

$$$$
DiffSBDD_10_num_sample_50
     RDKit          3D

  0  0  0  0  0  0  0  0  0  0999 V3000
M  V30 BEGIN CTAB
M  V30 COUNTS 71 72 0 0 1
M  V30 BEGIN ATOM
M  V30 1 C 7.206998 1.442755 -20.307825 0 CFG=2
M  V30 2 C 9.311994 6.173360 -12.145912 0
M  V30 3 C 7.523139 3.517309 -15.265035 0
M  V30 4 C 6.932084 6.194898 -17.992049 0 CFG=1
M  V30 5 C 7.875075 2.772338 -20.711204 0 CFG=2
M  V30 6 N 6.942604 6.585336 -11.891668 0
M  V30 7 N 6.115466 5.398571 -20.094027 0
M  V30 8 C 7.501702 5.072299 -20.038951 0 CFG=1
M  V30 9 S 8.000727 -0.140661 -20.930756 0
M  V30 10 C 9.744058 6.874754 -10.871679 0
M  V30 11 S 9.836084 -0.079944 -19.875852 0 CHG=-1
M  V30 12 C 7.185631 0.781427 -17.817910 0
M  V30 13 O 9.034840 7.438930 -6.813622 0
M  V30 14 O 7.242688 -1.292951 -20.419112 0
M  V30 15 C 6.670267 2.257055 -21.476362 0 CFG=2
M  V30 16 C 8.213234 3.216870 -12.781940 0
M  V30 17 C 5.688009 5.644517 -18.726662 0 CFG=2
M  V30 18 N 10.260896 6.569352 -8.509331 0
M  V30 19 N 7.706057 5.422156 -13.753249 0
M  V30 20 C 9.434794 6.071426 -9.600141 0
M  V30 21 C 9.461228 5.427814 -18.417674 0
M  V30 22 C 6.373682 1.235293 -19.038566 0
M  V30 23 C 9.254962 2.904576 -21.341865 0
M  V30 24 C 7.094778 5.709502 -16.532245 0
M  V30 25 C 7.803741 4.158995 -13.930577 0
M  V30 26 O 5.434809 2.898479 -21.221634 0
M  V30 27 C 8.033464 6.071072 -12.563785 0
M  V30 28 O 8.302469 -0.045047 -22.367760 0
M  V30 29 F 4.668290 6.503232 -18.710314 0
M  V30 30 N 8.234807 1.794177 -13.091667 0
M  V30 31 C 9.680432 6.257501 -7.218167 0
M  V30 32 C 8.117236 5.960259 -18.956133 0 CFG=2
M  V30 33 O 7.667024 3.732870 -19.671467 0
M  V30 34 C 7.212740 4.196751 -16.397974 0
M  V30 35 H 10.101450 5.736029 -12.741601 0
M  V30 36 H 7.582867 2.442716 -15.289051 0
M  V30 37 H 6.806233 7.275848 -17.926027 0
M  V30 38 H 7.034845 7.059028 -10.984377 0
M  V30 39 H 5.593820 4.625549 -20.503984 0
M  V30 40 H 7.964357 5.259710 -21.007050 0
M  V30 41 H 9.260330 7.851163 -10.814202 0
M  V30 42 H 10.813809 7.068919 -10.957936 0
M  V30 43 H 6.565145 0.773756 -16.921611 0
M  V30 44 H 7.579416 -0.226624 -17.946923 0
M  V30 45 H 8.030755 1.446271 -17.638771 0
M  V30 46 H 8.112881 7.369358 -7.057072 0
M  V30 47 H 6.783019 1.912914 -22.501999 0
M  V30 48 H 9.209851 3.487021 -12.432421 0
M  V30 49 H 7.529955 3.371759 -11.946736 0
M  V30 50 H 5.340961 4.708937 -18.291721 0
M  V30 51 H 11.170630 6.137725 -8.579352 0
M  V30 52 H 9.637135 5.009050 -9.742621 0
M  V30 53 H 8.374743 6.169143 -9.361175 0
M  V30 54 H 9.373946 4.443903 -17.958903 0
M  V30 55 H 10.187226 5.340008 -19.225894 0
M  V30 56 H 9.880804 6.105440 -17.674286 0
M  V30 57 H 5.859772 2.162350 -18.785282 0
M  V30 58 H 5.591455 0.505803 -19.249686 0
M  V30 59 H 9.432898 2.133798 -22.087538 0
M  V30 60 H 9.370379 3.865291 -21.840427 0
M  V30 61 H 10.023007 2.823345 -20.572688 0
M  V30 62 H 6.240849 6.050244 -15.945191 0
M  V30 63 H 7.987108 6.169289 -16.115937 0
M  V30 64 H 4.757908 2.238846 -21.278440 0
M  V30 65 H 8.954900 1.606900 -13.773758 0
M  V30 66 H 8.530837 1.305388 -12.252186 0
M  V30 67 H 10.479658 6.039754 -6.509085 0
M  V30 68 H 8.999339 5.405329 -7.241190 0
M  V30 69 H 8.323153 6.916805 -19.439523 0
M  V30 70 H 7.031674 3.632714 -17.297308 0
M  V30 71 H 6.003098 6.469191 -12.237817 0
M  V30 END ATOM
M  V30 BEGIN BOND
M  V30 1 1 5 1
M  V30 2 1 8 7
M  V30 3 1 9 1
M  V30 4 1 10 2
M  V30 5 1 11 9
M  V30 6 2 14 9
M  V30 7 1 15 1
M  V30 8 1 15 5
M  V30 9 1 17 4
M  V30 10 1 17 7
M  V30 11 1 20 10
M  V30 12 1 20 18
M  V30 13 1 1 22 CFG=1
M  V30 14 1 22 12
M  V30 15 1 23 5
M  V30 16 1 24 4
M  V30 17 1 25 3
M  V30 18 1 25 16
M  V30 19 2 25 19
M  V30 20 1 26 15
M  V30 21 2 27 2
M  V30 22 1 27 6
M  V30 23 1 27 19
M  V30 24 2 28 9
M  V30 25 1 29 17
M  V30 26 1 30 16
M  V30 27 1 31 13
M  V30 28 1 31 18
M  V30 29 1 32 4
M  V30 30 1 32 8
M  V30 31 1 32 21
M  V30 32 1 5 33 CFG=1
M  V30 33 1 33 8
M  V30 34 2 34 3
M  V30 35 1 34 24
M  V30 36 1 35 2
M  V30 37 1 36 3
M  V30 38 1 4 37 CFG=1
M  V30 39 1 38 6
M  V30 40 1 39 7
M  V30 41 1 8 40 CFG=3
M  V30 42 1 41 10
M  V30 43 1 42 10
M  V30 44 1 43 12
M  V30 45 1 44 12
M  V30 46 1 45 12
M  V30 47 1 46 13
M  V30 48 1 15 47 CFG=3
M  V30 49 1 48 16
M  V30 50 1 49 16
M  V30 51 1 17 50 CFG=1
M  V30 52 1 51 18
M  V30 53 1 52 20
M  V30 54 1 53 20
M  V30 55 1 54 21
M  V30 56 1 55 21
M  V30 57 1 56 21
M  V30 58 1 57 22
M  V30 59 1 58 22
M  V30 60 1 59 23
M  V30 61 1 60 23
M  V30 62 1 61 23
M  V30 63 1 62 24
M  V30 64 1 63 24
M  V30 65 1 64 26
M  V30 66 1 65 30
M  V30 67 1 66 30
M  V30 68 1 67 31
M  V30 69 1 68 31
M  V30 70 1 32 69 CFG=3
M  V30 71 1 70 34
M  V30 72 1 71 6
M  V30 END BOND
M  V30 END CTAB
M  END
>  <i_epik_Tot_Q>  (1) 
-1

>  <i_epik_Tot_abs_Q>  (1) 
1

>  <i_i_glide_confnum>  (1) 
2514

>  <i_i_glide_lignum>  (1) 
43

>  <i_i_glide_posenum>  (1) 
175

>  <i_i_glide_rotatable_bonds>  (1) 
15

>  <i_lp_mmshare_version>  (1) 
72125

>  <i_m_source_file_index>  (1) 
11

>  <i_f3d_flags>  (1) 
0

>  <num_sample>  (1) 
50

>  <b_lp_Chiralities_Consistent>  (1) 
1

>  <r_epik_Charging_Adjusted_Penalty>  (1) 
1.239197207418439

>  <r_epik_Ionization_Penalty>  (1) 
1.2496715491914541

>  <r_epik_Ionization_Penalty_Charging>  (1) 
1.1069707349969355e-11

>  <r_epik_Ionization_Penalty_Neutral>  (1) 
1.2496715491803843

>  <r_epik_State_Penalty>  (1) 
1.2391972074073692

>  <r_glide_ring_energy>  (1) 
0

>  <r_i_docking_score>  (1) 
-2.8495326979155156

>  <r_i_glide_ecoul>  (1) 
-8.0725561456139783

>  <r_i_glide_eff_state_penalty>  (1) 
1.2391972074073692

>  <r_i_glide_einternal>  (1) 
21.695072981899187

>  <r_i_glide_emodel>  (1) 
-34.127866048621499

>  <r_i_glide_emodel_strain>  (1) 
1.3189017880662703

>  <r_i_glide_energy>  (1) 
-36.987625248025438

>  <r_i_glide_erotb>  (1) 
0.82803537691766171

>  <r_i_glide_esite>  (1) 
-0.11514885923634344

>  <r_i_glide_evdw>  (1) 
-28.915069102411461

>  <r_i_glide_gscore>  (1) 
-4.0887299053228849

>  <r_i_glide_gscore_strain>  (1) 
0

>  <r_i_glide_hbond>  (1) 
-0.56722199453783573

>  <r_i_glide_ligand_efficiency>  (1) 
-0.083809785232809283

>  <r_i_glide_ligand_efficiency_ln>  (1) 
-0.62954169965441664

>  <r_i_glide_ligand_efficiency_sa>  (1) 
-0.27151116930274033

>  <r_i_glide_lipo>  (1) 
-1.0840915527463653

>  <r_i_glide_metal>  (1) 
-0

>  <r_i_glide_rewards>  (1) 
-0.49366599875733252

>  <r_lp_Energy>  (1) 
20.991564

>  <s_epik_Chemistry_Notes>  (1) 
This compound has an imine and may undergo hydrolysis. This compound contains an acetal/aminal-like group ( X-CH(R)-Y where X, Y are N, S, or O) that may be acid/base labile, releasing an aldehyde.

>  <s_epik_cmdline>  (1) 
J2VwaWtfcHl0aG9uJywgJy1waHQnLCAnMS4wJywgJy1waCcsICc3LjQnLCAnLXRuJywgJzgnLCAnLW1hJywgJzUwMCcsICctaW1hZScsICc8aW5maWxlLm1hZT4nLCAnLW9tYWUnLCAnPG91dGZpbGUubWFlPic=

>  <s_epik_input>  (1) 
W1NIXVMoPU8pKD1PKVtDQEBdMShbQ0gyXVtDSDNdKVtDQEBdKFtDSDNdKShbQ0BASF0xW09IXSlPW0NASF0oW0NAQEhdMltDSDNdKVtOSF1bQ0BASF0oRilbQ0BIXTJbQ0gyXS9bQ0hdPVtDSF1cQyhbQ0gyXVtOSDJdKT1OXEMoPU5cW0hdKVxbQ0gyXVtDSDJdW0NIMl1bTkhdW0NIMl1bT0hd

>  <s_glide_docking_method>  (1) 
confgen

>  <s_i_glide_gridfile>  (1) 
gpcr_drd2_6luq_protein_autoprepared_prepared

>  <s_lp_Force_Field>  (1) 
S-OPLS

>  <s_lp_Variant>  (1) 
DiffSBDD_10_num_sample_50-23

>  <s_m_source_file>  (1) 
generated__ligand_DiffSBDD_2026-05-06_prepared.sdf

>  <GenAI_Model>  (1) 
DiffSBDD

>  <Protein>  (1) 
generic_title2

$$$$
DiffSBDD_47_num_sample_50
     RDKit          3D

  0  0  0  0  0  0  0  0  0  0999 V3000
M  V30 BEGIN CTAB
M  V30 COUNTS 61 63 0 0 1
M  V30 BEGIN ATOM
M  V30 1 C 12.900443 3.058573 -17.271129 0
M  V30 2 C 5.152582 4.223686 -12.584053 0
M  V30 3 O 5.434913 3.768765 -10.291688 0
M  V30 4 N 9.998573 4.566711 -16.605854 0
M  V30 5 C 5.089407 6.567403 -16.667113 0
M  V30 6 O 10.776815 5.816214 -16.366708 0
M  V30 7 N 14.589608 4.206234 -16.428536 0
M  V30 8 C 7.529287 4.794019 -16.137498 0
M  V30 9 C 5.911341 4.301464 -11.422584 0
M  V30 10 C 6.522061 8.337459 -15.832263 0
M  V30 11 O 8.413972 4.233657 -18.235938 0
M  V30 12 C 7.668499 5.484846 -12.635618 0
M  V30 13 C 6.857164 5.388991 -13.820391 0
M  V30 14 C 12.382955 1.625900 -19.280567 0
M  V30 15 O 7.858276 5.028960 -10.254394 0
M  V30 16 N 14.236717 3.004912 -16.839380 0
M  V30 17 F 9.676020 5.766883 -13.760904 0
M  V30 18 C 8.716238 4.999191 -17.110614 0 CFG=2
M  V30 19 C 9.048108 6.179446 -12.668262 0
M  V30 20 C 12.184889 1.844630 -17.779139 0
M  V30 21 C 5.626014 4.751951 -13.761439 0
M  V30 22 C 10.125153 5.770366 -11.656274 0
M  V30 23 N 13.503077 4.996446 -16.620998 0
M  V30 24 C 7.160498 4.935023 -11.424491 0
M  V30 25 C 7.960636 4.979920 -19.354454 0
M  V30 26 C 12.438912 4.323171 -17.138972 0
M  V30 27 C 6.052264 6.954502 -15.521820 0
M  V30 28 C 8.876613 7.701697 -12.584317 0
M  V30 29 C 11.116415 4.947672 -17.449803 0 CFG=1
M  V30 30 C 7.266411 5.989755 -15.159083 0 CFG=2
M  V30 31 H 4.181378 3.776098 -12.567008 0
M  V30 32 H 5.803758 4.170059 -9.513408 0
M  V30 33 H 5.610518 6.298479 -17.583654 0
M  V30 34 H 4.426086 7.396407 -16.919907 0
M  V30 35 H 4.418439 5.770046 -16.391788 0
M  V30 36 H 6.636590 4.489430 -16.682664 0
M  V30 37 H 7.786549 3.901193 -15.564351 0
M  V30 38 H 7.018557 8.169170 -16.762189 0
M  V30 39 H 7.198376 8.744532 -15.086142 0
M  V30 40 H 5.696663 9.030702 -15.988077 0
M  V30 41 H 11.832846 0.748822 -19.620982 0
M  V30 42 H 13.436410 1.480242 -19.518792 0
M  V30 43 H 12.021201 2.483586 -19.848459 0
M  V30 44 H 7.802996 5.908594 -9.892075 0
M  V30 45 H 8.774092 6.048091 -17.405492 0
M  V30 46 H 11.118784 1.931261 -17.567386 0
M  V30 47 H 12.520588 0.961343 -17.235918 0
M  V30 48 H 5.035508 4.689283 -14.641636 0
M  V30 49 H 9.944910 6.145313 -10.648872 0
M  V30 50 H 11.085513 6.192878 -11.958604 0
M  V30 51 H 10.235988 4.684147 -11.626671 0
M  V30 52 H 7.800150 4.306086 -20.196174 0
M  V30 53 H 8.697044 5.724467 -19.658233 0
M  V30 54 H 7.020249 5.487557 -19.144061 0
M  V30 55 H 13.510064 5.976604 -16.380181 0
M  V30 56 H 5.433006 7.131272 -14.641002 0
M  V30 57 H 8.437306 7.989128 -11.627982 0
M  V30 58 H 8.220079 8.083067 -13.355755 0
M  V30 59 H 9.834101 8.211475 -12.674906 0
M  V30 60 H 10.992843 5.343849 -18.455487 0
M  V30 61 H 8.159016 6.592019 -15.094936 0
M  V30 END ATOM
M  V30 BEGIN BOND
M  V30 1 1 6 4
M  V30 2 2 9 2
M  V30 3 1 9 3
M  V30 4 1 13 12
M  V30 5 1 16 1
M  V30 6 2 16 7
M  V30 7 1 18 4
M  V30 8 1 18 8
M  V30 9 1 18 11
M  V30 10 1 19 12
M  V30 11 1 19 17
M  V30 12 1 20 1
M  V30 13 1 20 14
M  V30 14 1 21 2
M  V30 15 2 21 13
M  V30 16 1 22 19
M  V30 17 1 23 7
M  V30 18 1 24 9
M  V30 19 2 24 12
M  V30 20 1 24 15
M  V30 21 1 25 11
M  V30 22 2 26 1
M  V30 23 1 26 23
M  V30 24 1 27 5
M  V30 25 1 27 10
M  V30 26 1 28 19
M  V30 27 1 29 4
M  V30 28 1 29 6
M  V30 29 1 29 26
M  V30 30 1 30 8
M  V30 31 1 30 13
M  V30 32 1 30 27
M  V30 33 1 31 2
M  V30 34 1 32 3
M  V30 35 1 33 5
M  V30 36 1 34 5
M  V30 37 1 35 5
M  V30 38 1 36 8
M  V30 39 1 37 8
M  V30 40 1 38 10
M  V30 41 1 39 10
M  V30 42 1 40 10
M  V30 43 1 41 14
M  V30 44 1 42 14
M  V30 45 1 43 14
M  V30 46 1 44 15
M  V30 47 1 18 45 CFG=3
M  V30 48 1 46 20
M  V30 49 1 47 20
M  V30 50 1 48 21
M  V30 51 1 49 22
M  V30 52 1 50 22
M  V30 53 1 51 22
M  V30 54 1 52 25
M  V30 55 1 53 25
M  V30 56 1 54 25
M  V30 57 1 55 23
M  V30 58 1 56 27
M  V30 59 1 57 28
M  V30 60 1 58 28
M  V30 61 1 59 28
M  V30 62 1 29 60 CFG=3
M  V30 63 1 30 61 CFG=1
M  V30 END BOND
M  V30 END CTAB
M  END
>  <i_epik_Tot_Q>  (1) 
0

>  <i_epik_Tot_abs_Q>  (1) 
0

>  <i_i_glide_confnum>  (1) 
36

>  <i_i_glide_lignum>  (1) 
115

>  <i_i_glide_posenum>  (1) 
135

>  <i_i_glide_rotatable_bonds>  (1) 
11

>  <i_lp_mmshare_version>  (1) 
72125

>  <i_m_source_file_index>  (1) 
48

>  <i_f3d_flags>  (1) 
0

>  <num_sample>  (1) 
50

>  <b_lp_Chiralities_Consistent>  (1) 
1

>  <r_epik_Charging_Adjusted_Penalty>  (1) 
0.72670062587857698

>  <r_epik_Ionization_Penalty>  (1) 
0.0032694115883081043

>  <r_epik_Ionization_Penalty_Charging>  (1) 
0

>  <r_epik_Ionization_Penalty_Neutral>  (1) 
0.0032694115883081043

>  <r_epik_State_Penalty>  (1) 
0.72670062587857698

>  <r_glide_ring_energy>  (1) 
0

>  <r_i_docking_score>  (1) 
-2.8474599125844633

>  <r_i_glide_ecoul>  (1) 
-4.8846287975041491

>  <r_i_glide_eff_state_penalty>  (1) 
0.72670062587857698

>  <r_i_glide_einternal>  (1) 
18.775024135335258

>  <r_i_glide_emodel>  (1) 
-11.45624222004701

>  <r_i_glide_emodel_strain>  (1) 
4.312979457192057

>  <r_i_glide_energy>  (1) 
-16.424690370003223

>  <r_i_glide_erotb>  (1) 
0.55490112727109764

>  <r_i_glide_esite>  (1) 
0

>  <r_i_glide_evdw>  (1) 
-11.540061572499074

>  <r_i_glide_gscore>  (1) 
-3.5741605384630404

>  <r_i_glide_gscore_strain>  (1) 
0.078244864298014249

>  <r_i_glide_hbond>  (1) 
-0.32939870333338606

>  <r_i_glide_ligand_efficiency>  (1) 
-0.094915330419482108

>  <r_i_glide_ligand_efficiency_ln>  (1) 
-0.6469739176998901

>  <r_i_glide_ligand_efficiency_sa>  (1) 
-0.29492399999276597

>  <r_i_glide_lipo>  (1) 
-1.4601134964947382

>  <r_i_glide_metal>  (1) 
-0

>  <r_i_glide_rewards>  (1) 
-1.1080969319534522

>  <r_lp_Energy>  (1) 
27.508982

>  <r_lp_tautomer_probability>  (1) 
0.17382617382613486

>  <s_epik_Chemistry_Notes>  (1) 
This compound contains an acetal/aminal-like group ( X-CH(R)-Y where X, Y are N, S, or O) that may be acid/base labile, releasing an aldehyde. This compound has a N-S or N-O group and may undergo hydrolysis at high or low pH.

>  <s_epik_cmdline>  (1) 
J2VwaWtfcHl0aG9uJywgJy1waHQnLCAnMS4wJywgJy1waCcsICc3LjQnLCAnLXRuJywgJzgnLCAnLW1hJywgJzUwMCcsICctaW1hZScsICc8aW5maWxlLm1hZT4nLCAnLW9tYWUnLCAnPG91dGZpbGUubWFlPic=

>  <s_epik_input>  (1) 
W0NIM11bQ0gyXUMxPU5OPU5bQ0BIXTFbQ0BASF0yT04yW0NAQEhdKE9bQ0gzXSlbQ0gyXVtDQEBIXShbQ0hdKFtDSDNdKVtDSDNdKUMoQyhDKEYpKFtDSDNdKVtDSDNdKT1DM1tPSF0pPVtDSF1bQ0gyXUMzPU8=

>  <s_glide_docking_method>  (1) 
confgen

>  <s_i_glide_gridfile>  (1) 
gpcr_drd2_6luq_protein_autoprepared_prepared

>  <s_lp_Force_Field>  (1) 
S-OPLS

>  <s_lp_Variant>  (1) 
DiffSBDD_47_num_sample_50-2

>  <s_m_source_file>  (1) 
generated__ligand_DiffSBDD_2026-05-06_prepared.sdf

>  <GenAI_Model>  (1) 
DiffSBDD

>  <Protein>  (1) 
generic_title2

$$$$
DiffSBDD_28_num_sample_50
     RDKit          3D

  0  0  0  0  0  0  0  0  0  0999 V3000
M  V30 BEGIN CTAB
M  V30 COUNTS 71 73 0 0 1
M  V30 BEGIN ATOM
M  V30 1 N 7.779839 6.039306 -13.530311 0 CFG=2 CHG=1
M  V30 2 C 9.435307 2.554694 -18.121416 0
M  V30 3 C 10.129689 7.656307 -7.433379 0 CFG=2
M  V30 4 C 6.893790 7.215371 -13.356259 0
M  V30 5 N 13.566695 5.266040 -17.903090 0
M  V30 6 O 9.570906 7.738687 -11.891644 0 CHG=-1
M  V30 7 C 7.242267 5.064793 -14.540042 0 CFG=1
M  V30 8 N 7.783611 3.911714 -12.662701 0
M  V30 9 F 13.834781 3.648214 -16.291668 0
M  V30 10 C 8.711989 5.681682 -7.778086 0
M  V30 11 O 7.213080 2.607361 -14.455399 0
M  V30 12 C 9.124849 6.728530 -6.733291 0
M  V30 13 C 9.294470 6.151655 -9.113650 0 CFG=1
M  V30 14 C 10.570679 6.882696 -8.679634 0
M  V30 15 O 8.581467 4.335893 -19.451784 0
M  V30 16 N 11.350250 4.871503 -17.548779 0
M  V30 17 N 15.956390 5.581725 -18.257751 0
M  V30 18 C 12.274072 5.767762 -17.943453 0
M  V30 19 C 9.247409 4.029520 -18.465775 0
M  V30 20 C 7.832078 5.206667 -15.961989 0
M  V30 21 C 14.478455 7.658567 -18.244103 0 CFG=2
M  V30 22 C 9.360527 5.018383 -16.097316 0
M  V30 23 F 16.477107 9.037633 -18.578176 0
M  V30 24 C 9.457107 5.365673 -11.651594 0 CFG=1
M  V30 25 F 14.061931 8.204530 -17.099971 0
M  V30 26 O 11.976613 6.906283 -18.291677 0
M  V30 27 O 11.416138 6.569313 -12.291674 0
M  V30 28 C 9.899773 5.077301 -17.548723 0 CFG=1
M  V30 29 C 11.289843 8.097566 -6.533824 0
M  V30 30 C 8.022211 5.273371 -12.267071 0 CFG=1
M  V30 31 C 16.648790 6.744763 -18.427299 0
M  V30 32 C 10.213982 6.672296 -11.969955 0
M  V30 33 C 7.407031 3.687177 -13.904511 0
M  V30 34 C 13.814682 3.833428 -17.606941 0
M  V30 35 C 14.736052 6.078222 -18.148439 0
M  V30 36 C 15.925064 7.822596 -18.422174 0
M  V30 37 C 9.423047 5.004353 -10.133781 0
M  V30 38 H 10.132514 2.423410 -17.294385 0
M  V30 39 H 8.478589 2.114577 -17.839531 0
M  V30 40 H 9.820785 2.016007 -18.987180 0
M  V30 41 H 9.589101 8.543375 -7.770017 0
M  V30 42 H 5.886332 6.912830 -13.065330 0
M  V30 43 H 7.256681 7.896148 -12.587811 0
M  V30 44 H 6.827096 7.769305 -14.292446 0
M  V30 45 H 6.162156 5.199776 -14.621677 0
M  V30 46 H 7.957220 3.155588 -12.015522 0
M  V30 47 H 7.636290 5.527978 -7.831415 0
M  V30 48 H 9.148412 4.721350 -7.510449 0
M  V30 49 H 8.265904 7.294271 -6.372419 0
M  V30 50 H 9.569679 6.231579 -5.870444 0
M  V30 51 H 8.634839 6.891227 -9.546972 0
M  V30 52 H 11.347216 6.169305 -8.414120 0
M  V30 53 H 10.971735 7.547058 -9.444455 0
M  V30 54 H 11.681072 3.982299 -17.206818 0
M  V30 55 H 7.546375 6.169313 -16.374878 0
M  V30 56 H 7.320362 4.477172 -16.590794 0
M  V30 57 H 13.936808 8.000479 -19.126915 0
M  V30 58 H 9.635871 4.071327 -15.654836 0
M  V30 59 H 9.877121 5.769303 -15.501220 0
M  V30 60 H 10.059014 4.592665 -12.135403 0
M  V30 61 H 9.662140 6.063733 -17.952389 0
M  V30 62 H 11.834835 7.233796 -6.153352 0
M  V30 63 H 11.992570 8.726715 -7.080637 0
M  V30 64 H 10.926164 8.666158 -5.677919 0
M  V30 65 H 7.271993 5.553473 -11.524128 0
M  V30 66 H 17.721656 6.708552 -18.550055 0
M  V30 67 H 13.071244 3.158326 -18.032741 0
M  V30 68 H 14.763700 3.452838 -17.983140 0
M  V30 69 H 8.552724 4.366278 -9.986055 0
M  V30 70 H 10.234839 4.350671 -9.844940 0
M  V30 71 H 8.683559 6.370267 -13.839689 0
M  V30 END ATOM
M  V30 BEGIN BOND
M  V30 1 1 4 1
M  V30 2 1 7 1
M  V30 3 1 12 3
M  V30 4 1 12 10
M  V30 5 1 13 10
M  V30 6 1 14 3
M  V30 7 1 14 13
M  V30 8 1 18 5
M  V30 9 1 18 16
M  V30 10 1 19 2
M  V30 11 2 19 15
M  V30 12 1 20 7
M  V30 13 1 22 20
M  V30 14 1 25 21
M  V30 15 2 26 18
M  V30 16 1 28 16
M  V30 17 1 28 19
M  V30 18 1 28 22
M  V30 19 1 29 3
M  V30 20 1 30 1
M  V30 21 1 30 8
M  V30 22 1 30 24
M  V30 23 1 31 17
M  V30 24 1 32 6
M  V30 25 1 32 24
M  V30 26 2 32 27
M  V30 27 1 33 7
M  V30 28 1 33 8
M  V30 29 2 33 11
M  V30 30 1 34 5
M  V30 31 1 34 9
M  V30 32 1 35 5
M  V30 33 2 35 17
M  V30 34 1 35 21
M  V30 35 1 36 21
M  V30 36 1 36 23
M  V30 37 2 36 31
M  V30 38 1 37 13
M  V30 39 1 37 24
M  V30 40 1 38 2
M  V30 41 1 39 2
M  V30 42 1 40 2
M  V30 43 1 3 41 CFG=3
M  V30 44 1 42 4
M  V30 45 1 43 4
M  V30 46 1 44 4
M  V30 47 1 7 45 CFG=3
M  V30 48 1 46 8
M  V30 49 1 47 10
M  V30 50 1 48 10
M  V30 51 1 49 12
M  V30 52 1 50 12
M  V30 53 1 13 51 CFG=3
M  V30 54 1 52 14
M  V30 55 1 53 14
M  V30 56 1 54 16
M  V30 57 1 55 20
M  V30 58 1 56 20
M  V30 59 1 21 57 CFG=3
M  V30 60 1 58 22
M  V30 61 1 59 22
M  V30 62 1 24 60 CFG=3
M  V30 63 1 28 61 CFG=3
M  V30 64 1 62 29
M  V30 65 1 63 29
M  V30 66 1 64 29
M  V30 67 1 30 65 CFG=1
M  V30 68 1 66 31
M  V30 69 1 67 34
M  V30 70 1 68 34
M  V30 71 1 69 37
M  V30 72 1 70 37
M  V30 73 1 1 71 CFG=3
M  V30 END BOND
M  V30 END CTAB
M  END
>  <i_epik_Tot_Q>  (1) 
0

>  <i_epik_Tot_abs_Q>  (1) 
2

>  <i_i_glide_confnum>  (1) 
4

>  <i_i_glide_lignum>  (1) 
69

>  <i_i_glide_posenum>  (1) 
303

>  <i_i_glide_rotatable_bonds>  (1) 
13

>  <i_lp_mmshare_version>  (1) 
72125

>  <i_m_source_file_index>  (1) 
29

>  <i_f3d_flags>  (1) 
0

>  <num_sample>  (1) 
50

>  <b_lp_Chiralities_Consistent>  (1) 
1

>  <r_epik_Charging_Adjusted_Penalty>  (1) 
0.054083419880676768

>  <r_epik_Ionization_Penalty>  (1) 
0.12983459298085004

>  <r_epik_Ionization_Penalty_Charging>  (1) 
0.054083419880676768

>  <r_epik_Ionization_Penalty_Neutral>  (1) 
0.075751173100173264

>  <r_epik_State_Penalty>  (1) 
-0

>  <r_glide_ring_energy>  (1) 
0

>  <r_i_docking_score>  (1) 
-2.8240637060264486

>  <r_i_glide_ecoul>  (1) 
-1.7093708757211923

>  <r_i_glide_eff_state_penalty>  (1) 
-0

>  <r_i_glide_einternal>  (1) 
10.389469007243523

>  <r_i_glide_emodel>  (1) 
-31.162065280060091

>  <r_i_glide_emodel_strain>  (1) 
1.0955834033187557

>  <r_i_glide_energy>  (1) 
-33.310988505860841

>  <r_i_glide_erotb>  (1) 
0.66137813184917615

>  <r_i_glide_esite>  (1) 
-0.0067178421020671897

>  <r_i_glide_evdw>  (1) 
-31.60161763013965

>  <r_i_glide_gscore>  (1) 
-2.8240637060264486

>  <r_i_glide_gscore_strain>  (1) 
0

>  <r_i_glide_hbond>  (1) 
0

>  <r_i_glide_ligand_efficiency>  (1) 
-0.076326046108822931

>  <r_i_glide_ligand_efficiency_ln>  (1) 
-0.61247321239057417

>  <r_i_glide_ligand_efficiency_sa>  (1) 
-0.25433531869355641

>  <r_i_glide_lipo>  (1) 
-0.94864504932096594

>  <r_i_glide_metal>  (1) 
-0

>  <r_i_glide_rewards>  (1) 
-0.69359243358742995

>  <r_lp_Energy>  (1) 
31.855165999999997

>  <r_lp_tautomer_probability>  (1) 
1

>  <s_epik_Chemistry_Notes>  (1) 
This compound has an imine and may undergo hydrolysis. This compound contains an acetal/aminal-like group ( X-CH(R)-Y where X, Y are N, S, or O) that may be acid/base labile, releasing an aldehyde.

>  <s_epik_cmdline>  (1) 
J2VwaWtfcHl0aG9uJywgJy1waHQnLCAnMS4wJywgJy1waCcsICc3LjQnLCAnLXRuJywgJzgnLCAnLW1hJywgJzUwMCcsICctaW1hZScsICc8aW5maWxlLm1hZT4nLCAnLW9tYWUnLCAnPG91dGZpbGUubWFlPic=

>  <s_epik_input>  (1) 
W0NIM11bQ0BASF0xW0NIMl1bQ0gyXVtDQEBIXShbQ0gyXTEpW0NIMl1bQ0BIXShDKD1PKVtPSF0pW0NAQEhdMltOSF1DKD1PKVtDQEBIXShOMltDSDNdKVtDSDJdW0NIMl1bQ0BIXShDKD1PKVtDSDNdKVtOSF1DKD1PKU4oW0NIMl1GKUMoW0NASF0zRik9TltDSF09QzNG

>  <s_glide_docking_method>  (1) 
confgen

>  <s_i_glide_gridfile>  (1) 
gpcr_drd2_6luq_protein_autoprepared_prepared

>  <s_lp_Force_Field>  (1) 
S-OPLS

>  <s_lp_Variant>  (1) 
DiffSBDD_28_num_sample_50-1

>  <s_m_source_file>  (1) 
generated__ligand_DiffSBDD_2026-05-06_prepared.sdf

>  <GenAI_Model>  (1) 
DiffSBDD

>  <Protein>  (1) 
generic_title2

$$$$
DiffSBDD_47_num_sample_50
     RDKit          3D

  0  0  0  0  0  0  0  0  0  0999 V3000
M  V30 BEGIN CTAB
M  V30 COUNTS 61 63 0 0 1
M  V30 BEGIN ATOM
M  V30 1 C 8.453675 -0.133386 -17.021417 0
M  V30 2 C 5.783018 3.706797 -12.654721 0
M  V30 3 O 5.768507 3.554779 -10.291668 0
M  V30 4 N 9.993894 3.277124 -17.125435 0
M  V30 5 C 6.296116 6.814988 -17.310202 0
M  V30 6 O 9.435687 3.194919 -18.512943 0
M  V30 7 N 9.834840 -0.901803 -18.340988 0
M  V30 8 C 8.092551 4.666270 -16.093298 0
M  V30 9 C 6.276154 4.099276 -11.417904 0
M  V30 10 C 5.916868 7.769304 -15.037630 0
M  V30 11 O 10.014443 5.703014 -17.151605 0
M  V30 12 C 7.815681 5.643400 -12.512294 0
M  V30 13 C 7.246336 5.247440 -13.795682 0
M  V30 14 C 7.938808 0.188277 -14.573484 0
M  V30 15 O 7.767089 5.369303 -10.087735 0
M  V30 16 N 8.896409 -1.288833 -17.423332 0
M  V30 17 F 9.401228 6.874031 -11.160363 0
M  V30 18 C 9.573871 4.535724 -16.511576 0 CFG=2
M  V30 19 C 8.958372 6.680777 -12.403568 0
M  V30 20 C 7.373724 -0.014215 -15.984464 0
M  V30 21 C 6.248795 4.270708 -13.817862 0
M  V30 22 C 8.486192 8.100451 -12.691667 0
M  V30 23 N 10.003544 0.443845 -18.510853 0
M  V30 24 C 7.291877 5.042145 -11.326162 0
M  V30 25 C 9.664605 5.934034 -18.509583 0
M  V30 26 C 9.121469 0.907978 -17.673699 0
M  V30 27 C 6.370184 6.524109 -15.788049 0
M  V30 28 C 10.268948 6.169302 -13.018754 0
M  V30 29 C 8.903779 2.365770 -17.480274 0 CFG=1
M  V30 30 C 7.676646 5.853280 -15.160739 0 CFG=2
M  V30 31 H 5.034839 2.969302 -12.713629 0
M  V30 32 H 5.984981 4.077990 -9.527148 0
M  V30 33 H 7.136756 7.369296 -17.702381 0
M  V30 34 H 5.411507 7.410421 -17.538680 0
M  V30 35 H 6.179739 5.916467 -17.914081 0
M  V30 36 H 7.493865 4.615453 -16.993225 0
M  V30 37 H 7.890831 3.732910 -15.573468 0
M  V30 38 H 6.632657 8.569346 -15.202039 0
M  V30 39 H 5.813145 7.586680 -13.968224 0
M  V30 40 H 4.950542 8.126585 -15.393930 0
M  V30 41 H 7.136571 0.234927 -13.836147 0
M  V30 42 H 8.510273 1.113758 -14.503295 0
M  V30 43 H 8.599902 -0.630697 -14.293690 0
M  V30 44 H 7.658920 6.303783 -9.891676 0
M  V30 45 H 10.156529 4.555801 -15.597234 0
M  V30 46 H 6.752044 -0.910714 -15.989254 0
M  V30 47 H 6.698911 0.806713 -16.227641 0
M  V30 48 H 5.834851 3.951735 -14.755672 0
M  V30 49 H 8.085001 8.169314 -13.686837 0
M  V30 50 H 9.293114 8.822824 -12.581127 0
M  V30 51 H 7.690714 8.392452 -12.003936 0
M  V30 52 H 9.841573 6.977366 -18.757170 0
M  V30 53 H 8.617937 5.714773 -18.715159 0
M  V30 54 H 10.292767 5.348143 -19.180094 0
M  V30 55 H 10.385263 -1.574667 -18.854190 0
M  V30 56 H 5.538606 5.833252 -15.674029 0
M  V30 57 H 10.165722 5.769301 -14.015509 0
M  V30 58 H 10.634841 5.337198 -12.418177 0
M  V30 59 H 11.046679 6.933514 -13.026639 0
M  V30 60 H 7.851741 2.557676 -17.299225 0
M  V30 61 H 8.474059 6.569301 -15.095458 0
M  V30 END ATOM
M  V30 BEGIN BOND
M  V30 1 1 6 4
M  V30 2 2 9 2
M  V30 3 1 9 3
M  V30 4 1 13 12
M  V30 5 2 16 1
M  V30 6 1 16 7
M  V30 7 1 18 4
M  V30 8 1 18 8
M  V30 9 1 18 11
M  V30 10 1 19 12
M  V30 11 1 19 17
M  V30 12 1 20 1
M  V30 13 1 20 14
M  V30 14 1 21 2
M  V30 15 2 21 13
M  V30 16 1 22 19
M  V30 17 1 23 7
M  V30 18 1 24 9
M  V30 19 2 24 12
M  V30 20 1 24 15
M  V30 21 1 25 11
M  V30 22 1 26 1
M  V30 23 2 26 23
M  V30 24 1 27 5
M  V30 25 1 27 10
M  V30 26 1 28 19
M  V30 27 1 29 4
M  V30 28 1 29 6
M  V30 29 1 29 26
M  V30 30 1 30 8
M  V30 31 1 30 13
M  V30 32 1 30 27
M  V30 33 1 31 2
M  V30 34 1 32 3
M  V30 35 1 33 5
M  V30 36 1 34 5
M  V30 37 1 35 5
M  V30 38 1 36 8
M  V30 39 1 37 8
M  V30 40 1 38 10
M  V30 41 1 39 10
M  V30 42 1 40 10
M  V30 43 1 41 14
M  V30 44 1 42 14
M  V30 45 1 43 14
M  V30 46 1 44 15
M  V30 47 1 18 45 CFG=1
M  V30 48 1 46 20
M  V30 49 1 47 20
M  V30 50 1 48 21
M  V30 51 1 49 22
M  V30 52 1 50 22
M  V30 53 1 51 22
M  V30 54 1 52 25
M  V30 55 1 53 25
M  V30 56 1 54 25
M  V30 57 1 55 7
M  V30 58 1 56 27
M  V30 59 1 57 28
M  V30 60 1 58 28
M  V30 61 1 59 28
M  V30 62 1 29 60 CFG=1
M  V30 63 1 30 61 CFG=1
M  V30 END BOND
M  V30 END CTAB
M  END
>  <i_epik_Tot_Q>  (1) 
0

>  <i_epik_Tot_abs_Q>  (1) 
0

>  <i_i_glide_confnum>  (1) 
129

>  <i_i_glide_lignum>  (1) 
114

>  <i_i_glide_posenum>  (1) 
5

>  <i_i_glide_rotatable_bonds>  (1) 
11

>  <i_lp_mmshare_version>  (1) 
72125

>  <i_m_source_file_index>  (1) 
48

>  <i_f3d_flags>  (1) 
0

>  <num_sample>  (1) 
50

>  <b_lp_Chiralities_Consistent>  (1) 
1

>  <r_epik_Charging_Adjusted_Penalty>  (1) 
0.45906188326467423

>  <r_epik_Ionization_Penalty>  (1) 
0.024085043624638366

>  <r_epik_Ionization_Penalty_Charging>  (1) 
0

>  <r_epik_Ionization_Penalty_Neutral>  (1) 
0.024085043624638366

>  <r_epik_State_Penalty>  (1) 
0.45906188326467423

>  <r_glide_ring_energy>  (1) 
0

>  <r_i_docking_score>  (1) 
-2.8078923699429366

>  <r_i_glide_ecoul>  (1) 
-5.2308543068894213

>  <r_i_glide_eff_state_penalty>  (1) 
0.45906188326467423

>  <r_i_glide_einternal>  (1) 
20.110882966836005

>  <r_i_glide_emodel>  (1) 
-11.132008590845373

>  <r_i_glide_emodel_strain>  (1) 
8.2506549799161348

>  <r_i_glide_energy>  (1) 
-21.755355783790066

>  <r_i_glide_erotb>  (1) 
0.55490112727109764

>  <r_i_glide_esite>  (1) 
-0.066807957781797545

>  <r_i_glide_evdw>  (1) 
-16.524501476900646

>  <r_i_glide_gscore>  (1) 
-3.2669542532076106

>  <r_i_glide_gscore_strain>  (1) 
1.0626637449790337

>  <r_i_glide_hbond>  (1) 
-0.39872583038906056

>  <r_i_glide_ligand_efficiency>  (1) 
-0.09359641233143122

>  <r_i_glide_ligand_efficiency_ln>  (1) 
-0.63798374088882792

>  <r_i_glide_ligand_efficiency_sa>  (1) 
-0.29082581483688369

>  <r_i_glide_lipo>  (1) 
-1.6841346939407873

>  <r_i_glide_metal>  (1) 
-0

>  <r_i_glide_rewards>  (1) 
-1.1239974234676517

>  <r_lp_Energy>  (1) 
27.782063999999998

>  <r_lp_tautomer_probability>  (1) 
0.65234765234750614

>  <s_epik_Chemistry_Notes>  (1) 
This compound contains an acetal/aminal-like group ( X-CH(R)-Y where X, Y are N, S, or O) that may be acid/base labile, releasing an aldehyde. This compound has a N-S or N-O group and may undergo hydrolysis at high or low pH.

>  <s_epik_cmdline>  (1) 
J2VwaWtfcHl0aG9uJywgJy1waHQnLCAnMS4wJywgJy1waCcsICc3LjQnLCAnLXRuJywgJzgnLCAnLW1hJywgJzUwMCcsICctaW1hZScsICc8aW5maWxlLm1hZT4nLCAnLW9tYWUnLCAnPG91dGZpbGUubWFlPic=

>  <s_epik_input>  (1) 
W0NIM11bQ0gyXUMxPU5OPU5bQ0BIXTFbQ0BASF0yT04yW0NAQEhdKE9bQ0gzXSlbQ0gyXVtDQEBIXShbQ0hdKFtDSDNdKVtDSDNdKUMoQyhDKEYpKFtDSDNdKVtDSDNdKT1DM1tPSF0pPVtDSF1bQ0gyXUMzPU8=

>  <s_glide_docking_method>  (1) 
confgen

>  <s_i_glide_gridfile>  (1) 
gpcr_drd2_6luq_protein_autoprepared_prepared

>  <s_lp_Force_Field>  (1) 
S-OPLS

>  <s_lp_Variant>  (1) 
DiffSBDD_47_num_sample_50-1

>  <s_m_source_file>  (1) 
generated__ligand_DiffSBDD_2026-05-06_prepared.sdf

>  <GenAI_Model>  (1) 
DiffSBDD

>  <Protein>  (1) 
generic_title2

$$$$
DiffSBDD_10_num_sample_50
     RDKit          3D

  0  0  0  0  0  0  0  0  0  0999 V3000
M  V30 BEGIN CTAB
M  V30 COUNTS 71 72 0 0 1
M  V30 BEGIN ATOM
M  V30 1 C 13.371001 1.653536 -18.759701 0 CFG=2
M  V30 2 C 8.285052 4.644334 -11.101199 0
M  V30 3 C 7.491697 3.883439 -14.017493 0
M  V30 4 C 8.636389 3.927789 -17.632080 0 CFG=1
M  V30 5 C 12.303774 2.260168 -19.686472 0 CFG=2
M  V30 6 N 6.142454 5.767488 -11.090110 0
M  V30 7 N 9.294975 2.444596 -19.365976 0
M  V30 8 C 10.228944 3.521170 -19.406389 0 CFG=1
M  V30 9 S 15.002453 1.155014 -19.529101 0
M  V30 10 C 9.085828 5.799544 -10.523345 0
M  V30 11 S 15.797296 3.061673 -19.993170 0 CHG=-1
M  V30 12 C 14.385911 3.089218 -16.865300 0
M  V30 13 O 9.434632 8.642442 -9.514067 0
M  V30 14 O 15.838886 0.573222 -18.470964 0
M  V30 15 C 12.261281 0.786682 -19.324262 0 CFG=2
M  V30 16 C 5.926457 1.835973 -13.593622 0
M  V30 17 C 8.722502 2.443967 -18.034107 0 CFG=2
M  V30 18 N 10.338407 6.730618 -8.579153 0
M  V30 19 N 6.278915 3.602550 -11.921263 0
M  V30 20 C 9.428506 5.673341 -9.028773 0
M  V30 21 C 10.779327 5.498488 -17.883600 0
M  V30 22 C 13.475977 1.915379 -17.252792 0
M  V30 23 C 12.565175 2.743746 -21.109748 0
M  V30 24 C 8.838824 4.167143 -16.129460 0
M  V30 25 C 6.554967 3.149390 -13.092253 0
M  V30 26 O 11.263012 0.432825 -18.390645 0
M  V30 27 C 6.954038 4.687725 -11.353211 0
M  V30 28 O 14.800416 0.425655 -20.791765 0
M  V30 29 F 7.536599 1.838475 -18.048770 0
M  V30 30 N 6.368678 0.683779 -12.828001 0
M  V30 31 C 9.677030 7.996279 -8.286450 0
M  V30 32 C 9.665207 4.649528 -18.533748 0 CFG=2
M  V30 33 O 11.475632 3.127769 -18.898705 0
M  V30 34 C 7.886276 3.413788 -15.216569 0
M  V30 35 H 8.840848 3.745633 -11.327235 0
M  V30 36 H 7.850473 4.837671 -13.663727 0
M  V30 37 H 7.646938 4.300151 -17.899545 0
M  V30 38 H 6.482379 6.539122 -10.511916 0
M  V30 39 H 9.733067 1.552920 -19.554461 0
M  V30 40 H 10.340958 3.882357 -20.426825 0
M  V30 41 H 8.538542 6.715447 -10.719983 0
M  V30 42 H 10.003176 5.878501 -11.107401 0
M  V30 43 H 14.292609 3.310909 -15.802959 0
M  V30 44 H 15.435547 2.857558 -17.058257 0
M  V30 45 H 14.131439 3.995034 -17.418035 0
M  V30 46 H 8.484164 8.569279 -9.662831 0
M  V30 47 H 12.466102 0.025114 -20.072192 0
M  V30 48 H 4.844751 1.910648 -13.489102 0
M  V30 49 H 6.078136 1.630852 -14.646616 0
M  V30 50 H 9.367203 1.897486 -17.344290 0
M  V30 51 H 10.768366 6.415290 -7.722580 0
M  V30 52 H 9.933801 4.719462 -8.873861 0
M  V30 53 H 8.525392 5.647769 -8.417238 0
M  V30 54 H 11.432391 4.921229 -17.227144 0
M  V30 55 H 11.407923 5.952813 -18.650381 0
M  V30 56 H 10.355159 6.301126 -17.287081 0
M  V30 57 H 12.486175 2.109750 -16.844324 0
M  V30 58 H 13.829850 1.001996 -16.773859 0
M  V30 59 H 13.163962 2.028224 -21.667262 0
M  V30 60 H 11.637926 2.861973 -21.666959 0
M  V30 61 H 13.088549 3.699760 -21.095887 0
M  V30 62 H 8.768681 5.232312 -15.904183 0
M  V30 63 H 9.853030 3.859747 -15.892480 0
M  V30 64 H 11.262674 1.099038 -17.718290 0
M  V30 65 H 5.910979 -0.153597 -13.168327 0
M  V30 66 H 7.357937 0.548144 -12.974851 0
M  V30 67 H 10.342599 8.630242 -7.701943 0
M  V30 68 H 8.763149 7.861171 -7.708708 0
M  V30 69 H 9.102669 5.305183 -19.198649 0
M  V30 70 H 7.538674 2.462614 -15.574176 0
M  V30 71 H 5.139071 5.683795 -11.147352 0
M  V30 END ATOM
M  V30 BEGIN BOND
M  V30 1 1 5 1
M  V30 2 1 8 7
M  V30 3 1 9 1
M  V30 4 1 10 2
M  V30 5 1 11 9
M  V30 6 2 14 9
M  V30 7 1 15 1
M  V30 8 1 15 5
M  V30 9 1 17 4
M  V30 10 1 17 7
M  V30 11 1 20 10
M  V30 12 1 20 18
M  V30 13 1 1 22 CFG=1
M  V30 14 1 22 12
M  V30 15 1 23 5
M  V30 16 1 24 4
M  V30 17 1 25 3
M  V30 18 1 25 16
M  V30 19 2 25 19
M  V30 20 1 26 15
M  V30 21 2 27 2
M  V30 22 1 27 6
M  V30 23 1 27 19
M  V30 24 2 28 9
M  V30 25 1 29 17
M  V30 26 1 30 16
M  V30 27 1 31 13
M  V30 28 1 31 18
M  V30 29 1 32 4
M  V30 30 1 32 8
M  V30 31 1 32 21
M  V30 32 1 5 33 CFG=1
M  V30 33 1 33 8
M  V30 34 2 34 3
M  V30 35 1 34 24
M  V30 36 1 35 2
M  V30 37 1 36 3
M  V30 38 1 4 37 CFG=3
M  V30 39 1 38 6
M  V30 40 1 39 7
M  V30 41 1 8 40 CFG=3
M  V30 42 1 41 10
M  V30 43 1 42 10
M  V30 44 1 43 12
M  V30 45 1 44 12
M  V30 46 1 45 12
M  V30 47 1 46 13
M  V30 48 1 15 47 CFG=3
M  V30 49 1 48 16
M  V30 50 1 49 16
M  V30 51 1 17 50 CFG=1
M  V30 52 1 51 18
M  V30 53 1 52 20
M  V30 54 1 53 20
M  V30 55 1 54 21
M  V30 56 1 55 21
M  V30 57 1 56 21
M  V30 58 1 57 22
M  V30 59 1 58 22
M  V30 60 1 59 23
M  V30 61 1 60 23
M  V30 62 1 61 23
M  V30 63 1 62 24
M  V30 64 1 63 24
M  V30 65 1 64 26
M  V30 66 1 65 30
M  V30 67 1 66 30
M  V30 68 1 67 31
M  V30 69 1 68 31
M  V30 70 1 32 69 CFG=3
M  V30 71 1 70 34
M  V30 72 1 71 6
M  V30 END BOND
M  V30 END CTAB
M  END
>  <i_epik_Tot_Q>  (1) 
-1

>  <i_epik_Tot_abs_Q>  (1) 
1

>  <i_i_glide_confnum>  (1) 
1388

>  <i_i_glide_lignum>  (1) 
42

>  <i_i_glide_posenum>  (1) 
70

>  <i_i_glide_rotatable_bonds>  (1) 
15

>  <i_lp_mmshare_version>  (1) 
72125

>  <i_m_source_file_index>  (1) 
11

>  <i_f3d_flags>  (1) 
0

>  <num_sample>  (1) 
50

>  <b_lp_Chiralities_Consistent>  (1) 
1

>  <r_epik_Charging_Adjusted_Penalty>  (1) 
1.239197207418439

>  <r_epik_Ionization_Penalty>  (1) 
1.2496715491914541

>  <r_epik_Ionization_Penalty_Charging>  (1) 
1.1069707349969355e-11

>  <r_epik_Ionization_Penalty_Neutral>  (1) 
1.2496715491803843

>  <r_epik_State_Penalty>  (1) 
1.2391972074073692

>  <r_glide_ring_energy>  (1) 
0

>  <r_i_docking_score>  (1) 
-2.797991797098069

>  <r_i_glide_ecoul>  (1) 
-10.38841896141262

>  <r_i_glide_eff_state_penalty>  (1) 
1.2391972074073692

>  <r_i_glide_einternal>  (1) 
7.6435525140189178

>  <r_i_glide_emodel>  (1) 
-45.169071428915998

>  <r_i_glide_emodel_strain>  (1) 
0.90291696263356869

>  <r_i_glide_energy>  (1) 
-38.962234256202116

>  <r_i_glide_erotb>  (1) 
0.82803537691766171

>  <r_i_glide_esite>  (1) 
-0.22750216230024703

>  <r_i_glide_evdw>  (1) 
-28.573815294789494

>  <r_i_glide_gscore>  (1) 
-4.0371890045054384

>  <r_i_glide_gscore_strain>  (1) 
0

>  <r_i_glide_hbond>  (1) 
-0.30399999999999999

>  <r_i_glide_ligand_efficiency>  (1) 
-0.08229387638523733

>  <r_i_glide_ligand_efficiency_ln>  (1) 
-0.61815486899054306

>  <r_i_glide_ligand_efficiency_sa>  (1) 
-0.26660021311048526

>  <r_i_glide_lipo>  (1) 
-0.91475523016020677

>  <r_i_glide_metal>  (1) 
-0

>  <r_i_glide_rewards>  (1) 
-0.43201338001127831

>  <r_lp_Energy>  (1) 
16.483426999999999

>  <s_epik_Chemistry_Notes>  (1) 
This compound has an imine and may undergo hydrolysis. This compound contains an acetal/aminal-like group ( X-CH(R)-Y where X, Y are N, S, or O) that may be acid/base labile, releasing an aldehyde.

>  <s_epik_cmdline>  (1) 
J2VwaWtfcHl0aG9uJywgJy1waHQnLCAnMS4wJywgJy1waCcsICc3LjQnLCAnLXRuJywgJzgnLCAnLW1hJywgJzUwMCcsICctaW1hZScsICc8aW5maWxlLm1hZT4nLCAnLW9tYWUnLCAnPG91dGZpbGUubWFlPic=

>  <s_epik_input>  (1) 
W1NIXVMoPU8pKD1PKVtDQEBdMShbQ0gyXVtDSDNdKVtDQEBdKFtDSDNdKShbQ0BASF0xW09IXSlPW0NASF0oW0NAQEhdMltDSDNdKVtOSF1bQ0BASF0oRilbQ0BIXTJbQ0gyXVxbQ0hdPVtDSF1cQyhbQ0gyXVtOSDJdKT1OL0MoPU4vW0hdKS9bQ0gyXVtDSDJdW0NIMl1bTkhdW0NIMl1bT0hd

>  <s_glide_docking_method>  (1) 
confgen

>  <s_i_glide_gridfile>  (1) 
gpcr_drd2_6luq_protein_autoprepared_prepared

>  <s_lp_Force_Field>  (1) 
S-OPLS

>  <s_lp_Variant>  (1) 
DiffSBDD_10_num_sample_50-22

>  <s_m_source_file>  (1) 
generated__ligand_DiffSBDD_2026-05-06_prepared.sdf

>  <GenAI_Model>  (1) 
DiffSBDD

>  <Protein>  (1) 
generic_title2

$$$$
DiffSBDD_43_num_sample_50
     RDKit          3D

  0  0  0  0  0  0  0  0  0  0999 V3000
M  V30 BEGIN CTAB
M  V30 COUNTS 59 59 0 0 1
M  V30 BEGIN ATOM
M  V30 1 C 6.583532 5.769284 -11.611318 0
M  V30 2 C 10.414424 7.081488 -6.259029 0
M  V30 3 N 7.587368 6.113438 -18.638945 0
M  V30 4 O 7.791431 2.955927 -15.322334 0
M  V30 5 C 8.582634 5.425985 -9.973322 0
M  V30 6 C 10.351642 7.090300 -8.897154 0 CFG=2
M  V30 7 C 8.788000 3.958852 -13.370955 0 CFG=1
M  V30 8 O 9.034839 8.569298 -7.506307 0
M  V30 9 O 11.434842 9.769202 -4.152545 0
M  V30 10 N 8.752755 5.086992 -12.432591 0 CHG=1
M  V30 11 C 11.434841 8.997460 -5.040928 0
M  V30 12 F 9.034838 2.838850 -12.691667 0
M  V30 13 O 6.708601 6.735400 -12.402657 0
M  V30 14 C 5.672652 4.697152 -19.378675 0
M  V30 15 C 8.577612 5.105241 -18.271586 0 CFG=1
M  V30 16 C 7.514429 3.807797 -14.224366 0
M  V30 17 C 7.855015 4.972078 -11.271997 0 CFG=2
M  V30 18 C 9.434838 6.716191 -10.096383 0
M  V30 19 O 8.656114 3.717857 -16.291655 0
M  V30 20 C 9.593556 7.284163 -7.550967 0 CFG=2
M  V30 21 F 6.062441 6.861685 -20.114179 0
M  V30 22 C 8.018319 3.924740 -17.488672 0
M  V30 23 C 11.473459 8.143189 -6.036252 0
M  V30 24 O 5.515829 5.381614 -11.091664 0 CHG=-1
M  V30 25 C 7.008370 3.126211 -17.893282 0
M  V30 26 C 6.261175 3.292117 -19.199775 0
M  V30 27 C 11.177668 8.339712 -9.314629 0
M  V30 28 C 12.453107 8.024978 -10.099658 0
M  V30 29 F 9.232228 4.695871 -19.358829 0
M  V30 30 C 6.716837 5.759683 -19.751605 0 CFG=1
M  V30 31 H 9.737027 7.062446 -5.405881 0
M  V30 32 H 10.897921 6.104721 -6.274222 0
M  V30 33 H 7.047088 6.401125 -17.836591 0
M  V30 34 H 9.231155 4.613933 -9.641694 0
M  V30 35 H 7.834838 5.543872 -9.188377 0
M  V30 36 H 11.034825 6.255147 -8.740403 0
M  V30 37 H 9.645644 4.169301 -14.007409 0
M  V30 38 H 8.313350 8.565442 -8.129082 0
M  V30 39 H 8.421658 5.923730 -12.903183 0
M  V30 40 H 4.937123 4.650130 -20.182655 0
M  V30 41 H 5.120195 4.997745 -18.487965 0
M  V30 42 H 9.327472 5.594141 -17.648576 0
M  V30 43 H 6.703114 3.383555 -13.631052 0
M  V30 44 H 7.167405 4.771837 -14.599369 0
M  V30 45 H 7.554388 3.934085 -11.131647 0
M  V30 46 H 8.789203 7.553001 -10.352588 0
M  V30 47 H 10.096772 6.615875 -10.953043 0
M  V30 48 H 8.768209 6.575744 -7.494171 0
M  V30 49 H 12.276667 8.167511 -6.747653 0
M  V30 50 H 6.691103 2.304883 -17.267388 0
M  V30 51 H 6.912285 3.026629 -20.033849 0
M  V30 52 H 5.447279 2.565866 -19.201654 0
M  V30 53 H 10.539251 8.990864 -9.903166 0
M  V30 54 H 11.453094 8.966143 -8.473877 0
M  V30 55 H 12.966243 8.944565 -10.383951 0
M  V30 56 H 13.143170 7.439571 -9.492164 0
M  V30 57 H 12.234681 7.471654 -11.012055 0
M  V30 58 H 7.299912 5.455143 -20.621868 0
M  V30 59 H 9.686828 5.238328 -12.087518 0
M  V30 END ATOM
M  V30 BEGIN BOND
M  V30 1 1 10 7
M  V30 2 2 11 9
M  V30 3 1 12 7
M  V30 4 2 13 1
M  V30 5 1 15 3
M  V30 6 1 16 4
M  V30 7 1 16 7
M  V30 8 1 17 1
M  V30 9 1 17 5
M  V30 10 1 17 10
M  V30 11 1 18 5
M  V30 12 1 18 6
M  V30 13 1 19 4
M  V30 14 1 20 2
M  V30 15 1 20 6
M  V30 16 1 20 8
M  V30 17 1 22 15
M  V30 18 1 22 19
M  V30 19 1 23 2
M  V30 20 2 23 11
M  V30 21 1 24 1
M  V30 22 2 25 22
M  V30 23 1 26 14
M  V30 24 1 26 25
M  V30 25 1 27 6
M  V30 26 1 28 27
M  V30 27 1 29 15
M  V30 28 1 30 3
M  V30 29 1 30 14
M  V30 30 1 30 21
M  V30 31 1 31 2
M  V30 32 1 32 2
M  V30 33 1 33 3
M  V30 34 1 34 5
M  V30 35 1 35 5
M  V30 36 1 6 36 CFG=1
M  V30 37 1 7 37 CFG=3
M  V30 38 1 38 8
M  V30 39 1 39 10
M  V30 40 1 40 14
M  V30 41 1 41 14
M  V30 42 1 15 42 CFG=1
M  V30 43 1 43 16
M  V30 44 1 44 16
M  V30 45 1 17 45 CFG=1
M  V30 46 1 46 18
M  V30 47 1 47 18
M  V30 48 1 20 48 CFG=1
M  V30 49 1 49 23
M  V30 50 1 50 25
M  V30 51 1 51 26
M  V30 52 1 52 26
M  V30 53 1 53 27
M  V30 54 1 54 27
M  V30 55 1 55 28
M  V30 56 1 56 28
M  V30 57 1 57 28
M  V30 58 1 30 58 CFG=3
M  V30 59 1 59 10
M  V30 END BOND
M  V30 END CTAB
M  END
>  <i_epik_Tot_Q>  (1) 
0

>  <i_epik_Tot_abs_Q>  (1) 
2

>  <i_i_glide_confnum>  (1) 
4901

>  <i_i_glide_lignum>  (1) 
109

>  <i_i_glide_posenum>  (1) 
366

>  <i_i_glide_rotatable_bonds>  (1) 
15

>  <i_lp_mmshare_version>  (1) 
72125

>  <i_m_source_file_index>  (1) 
44

>  <i_f3d_flags>  (1) 
0

>  <num_sample>  (1) 
50

>  <b_lp_Chiralities_Consistent>  (1) 
1

>  <r_epik_Charging_Adjusted_Penalty>  (1) 
2.1322098409762558

>  <r_epik_Ionization_Penalty>  (1) 
1.0661195873001319

>  <r_epik_Ionization_Penalty_Charging>  (1) 
1.0661068903442914

>  <r_epik_Ionization_Penalty_Neutral>  (1) 
1.2696955840525338e-05

>  <r_epik_State_Penalty>  (1) 
1.0661029506319644

>  <r_glide_ring_energy>  (1) 
0

>  <r_i_docking_score>  (1) 
-2.787670268797422

>  <r_i_glide_ecoul>  (1) 
-2.9768461967613873

>  <r_i_glide_eff_state_penalty>  (1) 
1.0661029506319644

>  <r_i_glide_einternal>  (1) 
8.0437951806922712

>  <r_i_glide_emodel>  (1) 
-38.220587889929959

>  <r_i_glide_emodel_strain>  (1) 
1.0198065742575189

>  <r_i_glide_energy>  (1) 
-33.416460008896188

>  <r_i_glide_erotb>  (1) 
1.1415552716364241

>  <r_i_glide_esite>  (1) 
-0.088429193058194355

>  <r_i_glide_evdw>  (1) 
-30.439613812134798

>  <r_i_glide_gscore>  (1) 
-3.8537732194293866

>  <r_i_glide_gscore_strain>  (1) 
0

>  <r_i_glide_hbond>  (1) 
-0.16

>  <r_i_glide_ligand_efficiency>  (1) 
-0.092922342293247404

>  <r_i_glide_ligand_efficiency_ln>  (1) 
-0.63338905917112731

>  <r_i_glide_ligand_efficiency_sa>  (1) 
-0.28873132250294942

>  <r_i_glide_lipo>  (1) 
-1.8224710726749269

>  <r_i_glide_metal>  (1) 
-0

>  <r_i_glide_rewards>  (1) 
-0.9559206052117416

>  <r_lp_Energy>  (1) 
6.4317659999999997

>  <s_epik_cmdline>  (1) 
J2VwaWtfcHl0aG9uJywgJy1waHQnLCAnMS4wJywgJy1waCcsICc3LjQnLCAnLXRuJywgJzgnLCAnLW1hJywgJzUwMCcsICctaW1hZScsICc8aW5maWxlLm1hZT4nLCAnLW9tYWUnLCAnPG91dGZpbGUubWFlPic=

>  <s_epik_input>  (1) 
Tz1DPVtDSF1bQ0gyXVtDQEBIXShbT0hdKVtDQEhdKFtDSDJdW0NIM10pW0NIMl1bQ0gyXVtDQEBIXShDKD1PKVtPSF0pW05IXVtDQEBIXShGKVtDSDJdT09DMT1bQ0hdW0NIMl1bQ0gyXVtDQEBIXShGKVtOSF1bQ0BIXTFG

>  <s_glide_docking_method>  (1) 
confgen

>  <s_i_glide_gridfile>  (1) 
gpcr_drd2_6luq_protein_autoprepared_prepared

>  <s_lp_Force_Field>  (1) 
S-OPLS

>  <s_lp_Variant>  (1) 
DiffSBDD_43_num_sample_50-4

>  <s_m_source_file>  (1) 
generated__ligand_DiffSBDD_2026-05-06_prepared.sdf

>  <GenAI_Model>  (1) 
DiffSBDD

>  <Protein>  (1) 
generic_title2

$$$$
DiffSBDD_10_num_sample_50
     RDKit          3D

  0  0  0  0  0  0  0  0  0  0999 V3000
M  V30 BEGIN CTAB
M  V30 COUNTS 73 74 0 0 1
M  V30 BEGIN ATOM
M  V30 1 C 14.236889 1.021400 -20.211454 0 CFG=2
M  V30 2 C 8.429595 3.084923 -12.460769 0
M  V30 3 C 8.234783 3.147696 -15.716418 0
M  V30 4 C 9.277094 1.952721 -19.003087 0 CFG=1
M  V30 5 C 13.205473 1.803423 -21.057939 0 CFG=2
M  V30 6 N 6.139776 3.769836 -12.910981 0
M  V30 7 N 10.152836 0.852284 -20.950016 0
M  V30 8 C 10.786755 2.125064 -20.872208 0 CFG=1
M  V30 9 S 16.050993 1.363882 -20.562203 0
M  V30 10 C 8.793966 4.170626 -11.443363 0
M  V30 11 S 16.160178 3.368817 -19.891399 0 CHG=-1
M  V30 12 C 14.368426 -0.825378 -18.381880 0
M  V30 13 O 9.034832 6.169396 -7.576919 0
M  V30 14 O 16.892683 0.569308 -19.655220 0
M  V30 15 C 13.564932 0.376367 -21.415226 0 CFG=2
M  V30 16 C 7.487400 0.649750 -16.027777 0
M  V30 17 C 9.625699 0.579779 -19.624585 0 CFG=2
M  V30 18 N 8.271057 5.769302 -9.614971 0 CHG=1
M  V30 19 N 7.015676 1.917012 -13.999121 0
M  V30 20 C 7.687331 4.917118 -10.671121 0
M  V30 21 C 10.633568 4.239281 -19.461488 0
M  V30 22 C 13.969105 0.610823 -18.753707 0
M  V30 23 C 13.519210 2.987425 -21.964628 0
M  V30 24 C 9.714783 2.015793 -17.521089 0
M  V30 25 C 7.554444 1.906910 -15.161921 0
M  V30 26 O 12.586406 -0.585808 -21.091665 0
M  V30 27 C 7.233636 2.949075 -13.086863 0
M  V30 28 O 16.317870 1.346020 -22.008756 0
M  V30 29 F 8.568715 -0.227305 -19.698549 0
M  V30 30 N 6.262483 -0.125886 -15.740599 0 CHG=1
M  V30 31 C 8.399375 5.135795 -8.291717 0
M  V30 32 C 9.896610 2.988105 -19.981486 0 CFG=2
M  V30 33 O 12.038511 2.022204 -20.255529 0
M  V30 34 C 9.143925 3.192790 -16.732770 0
M  V30 35 H 9.215136 2.375870 -12.684009 0
M  V30 36 H 7.952628 4.069495 -15.228997 0
M  V30 37 H 8.194192 2.077969 -19.039058 0
M  V30 38 H 6.166554 4.572282 -12.301996 0
M  V30 39 H 10.814010 0.133364 -21.231557 0
M  V30 40 H 10.882015 2.561072 -21.865127 0
M  V30 41 H 9.437004 4.889263 -11.952365 0
M  V30 42 H 9.434843 3.671630 -10.715715 0
M  V30 43 H 14.117413 -1.030605 -17.341586 0
M  V30 44 H 13.857289 -1.565187 -18.994235 0
M  V30 45 H 15.434827 -1.000911 -18.487546 0
M  V30 46 H 8.365589 6.649078 -7.101572 0
M  V30 47 H 14.109596 0.175082 -22.335058 0
M  V30 48 H 7.448320 0.895041 -17.087156 0
M  V30 49 H 8.333357 -0.001682 -15.809346 0
M  V30 50 H 10.393718 0.065974 -19.044457 0
M  V30 51 H 7.685953 6.620112 -9.491797 0
M  V30 52 H 6.953928 4.231523 -10.242200 0
M  V30 53 H 7.157585 5.590141 -11.344637 0
M  V30 54 H 11.411949 3.998952 -18.737239 0
M  V30 55 H 11.116126 4.767189 -20.284730 0
M  V30 56 H 9.941276 4.944260 -19.004094 0
M  V30 57 H 14.494362 1.313098 -18.105843 0
M  V30 58 H 12.913838 0.728167 -18.513774 0
M  V30 59 H 14.458529 2.855856 -22.494722 0
M  V30 60 H 12.748094 3.118602 -22.721434 0
M  V30 61 H 13.583303 3.901447 -21.373760 0
M  V30 62 H 10.794815 2.164252 -17.509977 0
M  V30 63 H 9.647606 1.054652 -17.035679 0
M  V30 64 H 12.552660 -0.630599 -20.147315 0
M  V30 65 H 6.266490 -0.988129 -16.267741 0
M  V30 66 H 6.235726 -0.338510 -14.751767 0
M  V30 67 H 9.038520 4.253330 -8.322565 0
M  V30 68 H 7.434911 4.881313 -7.853018 0
M  V30 69 H 9.089740 3.336833 -20.628971 0
M  V30 70 H 9.526142 4.159413 -17.017621 0
M  V30 71 H 5.280306 3.624991 -13.420506 0
M  V30 72 H 9.180742 6.088976 -9.909487 0
M  V30 73 H 5.447031 0.419222 -15.978380 0
M  V30 END ATOM
M  V30 BEGIN BOND
M  V30 1 1 5 1
M  V30 2 1 8 7
M  V30 3 1 9 1
M  V30 4 1 10 2
M  V30 5 1 11 9
M  V30 6 2 14 9
M  V30 7 1 15 1
M  V30 8 1 15 5
M  V30 9 1 17 4
M  V30 10 1 17 7
M  V30 11 1 20 10
M  V30 12 1 20 18
M  V30 13 1 1 22 CFG=1
M  V30 14 1 22 12
M  V30 15 1 23 5
M  V30 16 1 24 4
M  V30 17 1 25 3
M  V30 18 1 25 16
M  V30 19 2 25 19
M  V30 20 1 26 15
M  V30 21 2 27 2
M  V30 22 1 27 6
M  V30 23 1 27 19
M  V30 24 2 28 9
M  V30 25 1 29 17
M  V30 26 1 30 16
M  V30 27 1 31 13
M  V30 28 1 31 18
M  V30 29 1 32 4
M  V30 30 1 32 8
M  V30 31 1 32 21
M  V30 32 1 5 33 CFG=1
M  V30 33 1 33 8
M  V30 34 2 34 3
M  V30 35 1 34 24
M  V30 36 1 35 2
M  V30 37 1 36 3
M  V30 38 1 4 37 CFG=1
M  V30 39 1 38 6
M  V30 40 1 39 7
M  V30 41 1 8 40 CFG=3
M  V30 42 1 41 10
M  V30 43 1 42 10
M  V30 44 1 43 12
M  V30 45 1 44 12
M  V30 46 1 45 12
M  V30 47 1 46 13
M  V30 48 1 15 47 CFG=3
M  V30 49 1 48 16
M  V30 50 1 49 16
M  V30 51 1 17 50 CFG=1
M  V30 52 1 51 18
M  V30 53 1 52 20
M  V30 54 1 53 20
M  V30 55 1 54 21
M  V30 56 1 55 21
M  V30 57 1 56 21
M  V30 58 1 57 22
M  V30 59 1 58 22
M  V30 60 1 59 23
M  V30 61 1 60 23
M  V30 62 1 61 23
M  V30 63 1 62 24
M  V30 64 1 63 24
M  V30 65 1 64 26
M  V30 66 1 65 30
M  V30 67 1 66 30
M  V30 68 1 67 31
M  V30 69 1 68 31
M  V30 70 1 32 69 CFG=3
M  V30 71 1 70 34
M  V30 72 1 71 6
M  V30 73 1 72 18
M  V30 74 1 73 30
M  V30 END BOND
M  V30 END CTAB
M  END
>  <i_epik_Tot_Q>  (1) 
1

>  <i_epik_Tot_abs_Q>  (1) 
3

>  <i_i_glide_confnum>  (1) 
3914

>  <i_i_glide_lignum>  (1) 
33

>  <i_i_glide_posenum>  (1) 
338

>  <i_i_glide_rotatable_bonds>  (1) 
15

>  <i_lp_mmshare_version>  (1) 
72125

>  <i_m_source_file_index>  (1) 
11

>  <i_f3d_flags>  (1) 
0

>  <num_sample>  (1) 
50

>  <b_lp_Chiralities_Consistent>  (1) 
1

>  <r_epik_Charging_Adjusted_Penalty>  (1) 
2.168687317063887

>  <r_epik_Ionization_Penalty>  (1) 
1.1047352072338965

>  <r_epik_Ionization_Penalty_Charging>  (1) 
1.0999234457570315

>  <r_epik_Ionization_Penalty_Neutral>  (1) 
0.0048117614768649203

>  <r_epik_State_Penalty>  (1) 
1.0687638713068555

>  <r_glide_ring_energy>  (1) 
0

>  <r_i_docking_score>  (1) 
-2.7807145738877868

>  <r_i_glide_ecoul>  (1) 
-11.334781401631815

>  <r_i_glide_eff_state_penalty>  (1) 
1.0687638713068555

>  <r_i_glide_einternal>  (1) 
15.811256397139179

>  <r_i_glide_emodel>  (1) 
-42.63822447631857

>  <r_i_glide_emodel_strain>  (1) 
0.74682560145878085

>  <r_i_glide_energy>  (1) 
-37.798679466818882

>  <r_i_glide_erotb>  (1) 
0.82219216958862984

>  <r_i_glide_esite>  (1) 
-0.10000000000000001

>  <r_i_glide_evdw>  (1) 
-26.46389806518707

>  <r_i_glide_gscore>  (1) 
-3.849478445194642

>  <r_i_glide_gscore_strain>  (1) 
0

>  <r_i_glide_hbond>  (1) 
-0.21398437902798206

>  <r_i_glide_ligand_efficiency>  (1) 
-0.081785722761405499

>  <r_i_glide_ligand_efficiency_ln>  (1) 
-0.61433784577369543

>  <r_i_glide_ligand_efficiency_sa>  (1) 
-0.26495399263385777

>  <r_i_glide_lipo>  (1) 
-0.85933057903138299

>  <r_i_glide_metal>  (1) 
-0

>  <r_i_glide_rewards>  (1) 
-0.47494354321978061

>  <r_lp_Energy>  (1) 
18.368548999999998

>  <s_epik_Chemistry_Notes>  (1) 
This compound has an imine and may undergo hydrolysis. This compound contains an acetal/aminal-like group ( X-CH(R)-Y where X, Y are N, S, or O) that may be acid/base labile, releasing an aldehyde.

>  <s_epik_cmdline>  (1) 
J2VwaWtfcHl0aG9uJywgJy1waHQnLCAnMS4wJywgJy1waCcsICc3LjQnLCAnLXRuJywgJzgnLCAnLW1hJywgJzUwMCcsICctaW1hZScsICc8aW5maWxlLm1hZT4nLCAnLW9tYWUnLCAnPG91dGZpbGUubWFlPic=

>  <s_epik_input>  (1) 
W1NIXVMoPU8pKD1PKVtDQEBdMShbQ0gyXVtDSDNdKVtDQEBdKFtDSDNdKShbQ0BASF0xW09IXSlPW0NASF0oW0NAQEhdMltDSDNdKVtOSF1bQ0BASF0oRilbQ0BIXTJbQ0gyXS9bQ0hdPVtDSF1cQyhbQ0gyXVtOSDJdKT1OL0MoPU4vW0hdKS9bQ0gyXVtDSDJdW0NIMl1bTkhdW0NIMl1bT0hd

>  <s_glide_docking_method>  (1) 
confgen

>  <s_i_glide_gridfile>  (1) 
gpcr_drd2_6luq_protein_autoprepared_prepared

>  <s_lp_Force_Field>  (1) 
S-OPLS

>  <s_lp_Variant>  (1) 
DiffSBDD_10_num_sample_50-13

>  <s_m_source_file>  (1) 
generated__ligand_DiffSBDD_2026-05-06_prepared.sdf

>  <GenAI_Model>  (1) 
DiffSBDD

>  <Protein>  (1) 
generic_title2

$$$$
DiffSBDD_45_num_sample_50
     RDKit          3D

  0  0  0  0  0  0  0  0  0  0999 V3000
M  V30 BEGIN CTAB
M  V30 COUNTS 63 66 0 0 1
M  V30 BEGIN ATOM
M  V30 1 C 5.514373 2.043388 -19.623398 0
M  V30 2 C 6.278226 -0.224367 -18.608086 0 CFG=2
M  V30 3 O 5.066591 -0.641221 -17.989058 0
M  V30 4 C 13.137817 6.936435 -18.035040 0
M  V30 5 O 11.034838 5.492241 -15.891666 0
M  V30 6 O 14.486000 5.543806 -20.160241 0
M  V30 7 C 10.866849 4.817715 -17.112885 0 CFG=2
M  V30 8 O 11.308200 5.408553 -18.322118 0
M  V30 9 C 14.566366 7.963044 -20.860461 0 CFG=2
M  V30 10 C 13.130451 5.183330 -19.862332 0
M  V30 11 C 9.512044 4.174491 -17.212149 0 CFG=2
M  V30 12 C 7.634794 2.918469 -18.408878 0 CFG=2
M  V30 13 C 15.482851 6.238809 -17.416560 0
M  V30 14 C 8.197562 1.498045 -18.160509 0
M  V30 15 C 6.725211 2.990812 -19.651085 0
M  V30 16 C 14.634834 7.179298 -18.311636 0 CFG=1
M  V30 17 C 14.929653 9.664900 -19.030629 0
M  V30 18 C 5.214233 -1.712266 -17.068226 0
M  V30 19 O 10.716639 3.395810 -17.091676 0
M  V30 20 C 12.720631 5.505933 -18.418129 0 CFG=1
M  V30 21 C 7.152643 0.528678 -17.580874 0
M  V30 22 C 14.729551 9.369299 -20.322572 0
M  V30 23 C 8.746719 3.984722 -18.508488 0
M  V30 24 C 13.204610 7.865728 -21.567090 0
M  V30 25 C 5.890878 0.573967 -19.866937 0
M  V30 26 C 14.924245 6.864306 -19.808012 0 CFG=1
M  V30 27 C 15.026127 8.633541 -17.926270 0
M  V30 28 H 4.961958 2.152086 -18.691663 0
M  V30 29 H 4.831401 2.350757 -20.415515 0
M  V30 30 H 6.816689 -1.108752 -18.953627 0
M  V30 31 H 12.539014 7.656574 -18.592749 0
M  V30 32 H 12.912884 7.118687 -16.983958 0
M  V30 33 H 11.640354 4.999001 -15.351709 0
M  V30 34 H 15.308460 7.871645 -21.654746 0
M  V30 35 H 13.020508 4.113113 -20.037923 0
M  V30 36 H 12.433253 5.651029 -20.549943 0
M  V30 37 H 8.898213 4.189914 -16.312954 0
M  V30 38 H 7.025575 3.194685 -17.547403 0
M  V30 39 H 15.205825 6.332607 -16.366073 0
M  V30 40 H 15.373957 5.190154 -17.690656 0
M  V30 41 H 16.547324 6.461538 -17.496794 0
M  V30 42 H 8.658636 1.090642 -19.060905 0
M  V30 43 H 8.999141 1.556994 -17.425770 0
M  V30 44 H 6.346204 4.009574 -19.741958 0
M  V30 45 H 7.311201 2.814890 -20.554178 0
M  V30 46 H 15.034844 10.698625 -18.733488 0
M  V30 47 H 4.234838 -1.997353 -16.691664 0
M  V30 48 H 5.656498 -2.589682 -17.541340 0
M  V30 49 H 5.822971 -1.430733 -16.209045 0
M  V30 50 H 13.193835 4.777232 -17.758098 0
M  V30 51 H 6.512575 1.067745 -16.881196 0
M  V30 52 H 7.673208 -0.213209 -16.974234 0
M  V30 53 H 14.674063 10.169299 -21.046437 0
M  V30 54 H 8.308568 4.949163 -18.766964 0
M  V30 55 H 9.444434 3.737902 -19.309831 0
M  V30 56 H 13.074013 8.689222 -22.270342 0
M  V30 57 H 13.127272 6.950724 -22.153527 0
M  V30 58 H 12.372447 7.912949 -20.865649 0
M  V30 59 H 5.051984 0.066869 -20.346068 0
M  V30 60 H 6.702094 0.526162 -20.594066 0
M  V30 61 H 16.011660 6.799033 -19.873858 0
M  V30 62 H 14.414022 8.975935 -17.091666 0
M  V30 63 H 16.058372 8.679223 -17.577956 0
M  V30 END ATOM
M  V30 BEGIN BOND
M  V30 1 1 3 2
M  V30 2 1 7 5 CFG=1
M  V30 3 1 8 7
M  V30 4 1 10 6
M  V30 5 1 11 7
M  V30 6 1 14 12
M  V30 7 1 15 1
M  V30 8 1 15 12
M  V30 9 1 16 4
M  V30 10 1 16 13 CFG=1
M  V30 11 1 18 3
M  V30 12 1 19 7
M  V30 13 1 19 11
M  V30 14 1 20 4
M  V30 15 1 20 8
M  V30 16 1 20 10
M  V30 17 1 21 2
M  V30 18 1 21 14
M  V30 19 1 22 9
M  V30 20 2 22 17
M  V30 21 1 23 11
M  V30 22 1 23 12
M  V30 23 1 24 9
M  V30 24 1 25 1
M  V30 25 1 25 2
M  V30 26 1 26 6
M  V30 27 1 26 9
M  V30 28 1 26 16
M  V30 29 1 27 16
M  V30 30 1 27 17
M  V30 31 1 28 1
M  V30 32 1 29 1
M  V30 33 1 2 30 CFG=3
M  V30 34 1 31 4
M  V30 35 1 32 4
M  V30 36 1 33 5
M  V30 37 1 9 34 CFG=3
M  V30 38 1 35 10
M  V30 39 1 36 10
M  V30 40 1 11 37 CFG=1
M  V30 41 1 12 38 CFG=1
M  V30 42 1 39 13
M  V30 43 1 40 13
M  V30 44 1 41 13
M  V30 45 1 42 14
M  V30 46 1 43 14
M  V30 47 1 44 15
M  V30 48 1 45 15
M  V30 49 1 46 17
M  V30 50 1 47 18
M  V30 51 1 48 18
M  V30 52 1 49 18
M  V30 53 1 20 50 CFG=1
M  V30 54 1 51 21
M  V30 55 1 52 21
M  V30 56 1 53 22
M  V30 57 1 54 23
M  V30 58 1 55 23
M  V30 59 1 56 24
M  V30 60 1 57 24
M  V30 61 1 58 24
M  V30 62 1 59 25
M  V30 63 1 60 25
M  V30 64 1 26 61 CFG=1
M  V30 65 1 62 27
M  V30 66 1 63 27
M  V30 END BOND
M  V30 END CTAB
M  END
>  <i_epik_Tot_Q>  (1) 
0

>  <i_epik_Tot_abs_Q>  (1) 
0

>  <i_i_glide_confnum>  (1) 
325

>  <i_i_glide_lignum>  (1) 
112

>  <i_i_glide_posenum>  (1) 
310

>  <i_i_glide_rotatable_bonds>  (1) 
6

>  <i_lp_mmshare_version>  (1) 
72125

>  <i_m_source_file_index>  (1) 
46

>  <i_f3d_flags>  (1) 
0

>  <num_sample>  (1) 
50

>  <b_lp_Chiralities_Consistent>  (1) 
1

>  <r_epik_Charging_Adjusted_Penalty>  (1) 
0

>  <r_epik_Ionization_Penalty>  (1) 
0.00010055018107768494

>  <r_epik_Ionization_Penalty_Charging>  (1) 
0

>  <r_epik_Ionization_Penalty_Neutral>  (1) 
0.00010055018107768494

>  <r_epik_State_Penalty>  (1) 
-0

>  <r_glide_ring_energy>  (1) 
0.68864525180136349

>  <r_i_docking_score>  (1) 
-2.7744846235555558

>  <r_i_glide_ecoul>  (1) 
-2.9400168899774712

>  <r_i_glide_eff_state_penalty>  (1) 
-0

>  <r_i_glide_einternal>  (1) 
2.8638861462031868

>  <r_i_glide_emodel>  (1) 
-23.365474881237368

>  <r_i_glide_emodel_strain>  (1) 
0.78772705516496444

>  <r_i_glide_energy>  (1) 
-23.060034117102752

>  <r_i_glide_erotb>  (1) 
0.53594258102178693

>  <r_i_glide_esite>  (1) 
0

>  <r_i_glide_evdw>  (1) 
-20.120017227125281

>  <r_i_glide_gscore>  (1) 
-2.7744846235555558

>  <r_i_glide_gscore_strain>  (1) 
0

>  <r_i_glide_hbond>  (1) 
-0.32000000000000001

>  <r_i_glide_ligand_efficiency>  (1) 
-0.10275868976131688

>  <r_i_glide_ligand_efficiency_ln>  (1) 
-0.64585427940986428

>  <r_i_glide_ligand_efficiency_sa>  (1) 
-0.30827606928395068

>  <r_i_glide_lipo>  (1) 
-0.66694162579130656

>  <r_i_glide_metal>  (1) 
-0

>  <r_i_glide_rewards>  (1) 
-0.87648218393315169

>  <r_lp_Energy>  (1) 
38.981271

>  <r_lp_tautomer_probability>  (1) 
1

>  <s_epik_cmdline>  (1) 
J2VwaWtfcHl0aG9uJywgJy1waHQnLCAnMS4wJywgJy1waCcsICc3LjQnLCAnLXRuJywgJzgnLCAnLW1hJywgJzUwMCcsICctaW1hZScsICc8aW5maWxlLm1hZT4nLCAnLW9tYWUnLCAnPG91dGZpbGUubWFlPic=

>  <s_epik_input>  (1) 
W0NIM11PW0NAQEhdMVtDSDJdW0NIMl1bQ0BIXShbQ0gyXVtDSDJdW0NIMl0xKVtDSDJdW0NIXShPMilbQ0BdMihbT0hdKU9bQ0BIXShbQ0gyXTMpW0NIMl1PW0NASF0oW0NAXTM0W0NIM10pW0NAQEhdKFtDSDNdKVtDSF09W0NIXVtDSDJdNA==

>  <s_glide_docking_method>  (1) 
confgen

>  <s_i_glide_gridfile>  (1) 
gpcr_drd2_6luq_protein_autoprepared_prepared

>  <s_lp_Force_Field>  (1) 
S-OPLS

>  <s_lp_Variant>  (1) 
DiffSBDD_45_num_sample_50-1

>  <s_m_source_file>  (1) 
generated__ligand_DiffSBDD_2026-05-06_prepared.sdf

>  <GenAI_Model>  (1) 
DiffSBDD

>  <Protein>  (1) 
generic_title2

$$$$
DiffSBDD_19_num_sample_50
     RDKit          3D

  0  0  0  0  0  0  0  0  0  0999 V3000
M  V30 BEGIN CTAB
M  V30 COUNTS 77 82 0 0 1
M  V30 BEGIN ATOM
M  V30 1 C 7.519429 6.333314 -12.557244 0 CFG=1
M  V30 2 C 12.583720 5.379978 -16.371651 0
M  V30 3 O 5.434854 7.328025 -13.061363 0
M  V30 4 C 13.054821 4.473230 -17.228142 0
M  V30 5 C 8.062749 3.927999 -16.063574 0
M  V30 6 C 7.808899 2.796323 -16.662943 0
M  V30 7 C 10.235292 6.535929 -10.620784 0 CFG=2
M  V30 8 O 15.246555 5.033618 -16.766687 0 CHG=-1
M  V30 9 C 6.781284 4.033647 -12.629278 0 CFG=1
M  V30 10 C 9.661083 5.148581 -10.148263 0 CFG=1
M  V30 11 O 8.939232 4.758030 -16.531402 0
M  V30 12 O 10.324765 1.811955 -19.169752 0 CHG=-1
M  V30 13 C 12.176584 3.554340 -18.047488 0
M  V30 14 C 6.028226 6.343908 -12.253375 0 CFG=1
M  V30 15 C 8.235020 7.564846 -11.984004 0
M  V30 16 C 9.380053 7.821555 -6.356134 0
M  V30 17 C 10.222738 4.510461 -16.771132 0
M  V30 18 C 9.718543 4.949704 -8.610341 0
M  V30 19 N 14.490681 4.318913 -17.420986 0 CHG=1
M  V30 20 C 10.213341 6.968271 -7.326669 0
M  V30 21 C 9.843000 2.525721 -18.260832 0
M  V30 22 C 10.682466 3.543854 -17.645676 0
M  V30 23 C 11.270843 6.320789 -6.419575 0
M  V30 24 O 10.786055 6.501622 -11.924098 0
M  V30 25 C 11.377400 7.144013 -9.719526 0
M  V30 26 O 9.260550 6.031804 -7.817481 0
M  V30 27 C 9.061098 7.482412 -10.673459 0 CFG=2
M  V30 28 C 7.978670 4.923332 -12.173670 0 CFG=2
M  V30 29 C 11.115895 5.579348 -16.124425 0
M  V30 30 O 7.342163 4.349225 -14.970503 0
M  V30 31 C 10.079719 8.997657 -8.948840 0
M  V30 32 C 5.534584 4.937012 -12.598110 0
M  V30 33 C 9.434877 8.860783 -10.313943 0
M  V30 34 C 8.238869 4.795768 -10.656026 0
M  V30 35 C 10.884543 7.823044 -8.444422 0 CFG=1
M  V30 36 C 6.953282 3.362773 -14.011454 0
M  V30 37 O 14.880307 3.480477 -18.229517 0
M  V30 38 O 9.143093 4.559507 -12.890219 0
M  V30 39 C 8.499303 2.247927 -17.824873 0
M  V30 40 H 7.612692 6.415833 -13.641083 0
M  V30 41 H 13.261758 6.009048 -15.813992 0
M  V30 42 H 4.514626 7.380907 -12.847573 0
M  V30 43 H 7.002319 2.201054 -16.262667 0
M  V30 44 H 6.625950 3.220471 -11.921330 0
M  V30 45 H 10.234820 4.344210 -10.588414 0
M  V30 46 H 12.259469 3.835164 -19.098154 0
M  V30 47 H 12.559440 2.536080 -17.955431 0
M  V30 48 H 5.842948 6.563676 -11.200198 0
M  V30 49 H 8.888961 7.955001 -12.761631 0
M  V30 50 H 7.488959 8.354496 -11.874983 0
M  V30 51 H 9.917607 8.702372 -6.002134 0
M  V30 52 H 9.127259 7.222040 -5.491713 0
M  V30 53 H 8.430319 8.144725 -6.781224 0
M  V30 54 H 9.024354 4.169225 -8.327689 0
M  V30 55 H 10.682826 4.580729 -8.291629 0
M  V30 56 H 11.834803 7.103999 -5.924157 0
M  V30 57 H 11.965507 5.668384 -6.938756 0
M  V30 58 H 10.806295 5.769264 -5.608313 0
M  V30 59 H 10.264253 5.876034 -12.423847 0
M  V30 60 H 12.234762 6.569308 -9.491662 0
M  V30 61 H 11.881515 7.915054 -10.305451 0
M  V30 62 H 8.634846 7.151626 -9.768431 0
M  V30 63 H 10.829852 6.568642 -16.484713 0
M  V30 64 H 10.953225 5.561065 -15.048654 0
M  V30 65 H 10.828272 9.769303 -9.091827 0
M  V30 66 H 9.340025 9.369228 -8.249631 0
M  V30 67 H 5.024691 4.928468 -13.561980 0
M  V30 68 H 4.820470 4.581862 -11.856546 0
M  V30 69 H 10.160348 8.969283 -11.111319 0
M  V30 70 H 8.620118 9.574979 -10.424069 0
M  V30 71 H 8.079163 3.769341 -10.389644 0
M  V30 72 H 7.468940 5.318689 -10.086810 0
M  V30 73 H 11.764956 8.261469 -7.971231 0
M  V30 74 H 7.707050 2.575705 -13.937379 0
M  V30 75 H 6.024279 2.877036 -14.291695 0
M  V30 76 H 8.916449 4.529539 -13.812904 0
M  V30 77 H 7.984881 1.442983 -18.332981 0
M  V30 END ATOM
M  V30 BEGIN BOND
M  V30 1 2 4 2
M  V30 2 2 6 5
M  V30 3 1 10 7
M  V30 4 1 11 5
M  V30 5 1 13 4
M  V30 6 1 14 1
M  V30 7 1 14 3
M  V30 8 1 15 1
M  V30 9 1 17 11
M  V30 10 1 18 10
M  V30 11 1 19 4
M  V30 12 1 19 8
M  V30 13 1 20 16
M  V30 14 1 21 12
M  V30 15 1 22 13
M  V30 16 2 22 17
M  V30 17 1 22 21
M  V30 18 1 23 20
M  V30 19 1 7 24 CFG=3
M  V30 20 1 25 7
M  V30 21 1 26 18
M  V30 22 1 26 20
M  V30 23 1 27 7
M  V30 24 1 27 15
M  V30 25 1 28 1
M  V30 26 1 28 9
M  V30 27 1 29 2
M  V30 28 1 29 17
M  V30 29 1 30 5
M  V30 30 1 32 9
M  V30 31 1 32 14
M  V30 32 1 33 27
M  V30 33 1 33 31
M  V30 34 1 34 10
M  V30 35 1 34 28
M  V30 36 1 35 20
M  V30 37 1 35 25
M  V30 38 1 35 31
M  V30 39 1 36 9
M  V30 40 1 36 30
M  V30 41 2 37 19
M  V30 42 1 28 38 CFG=3
M  V30 43 1 39 6
M  V30 44 2 39 21
M  V30 45 1 1 40 CFG=3
M  V30 46 1 41 2
M  V30 47 1 42 3
M  V30 48 1 43 6
M  V30 49 1 9 44 CFG=1
M  V30 50 1 10 45 CFG=3
M  V30 51 1 46 13
M  V30 52 1 47 13
M  V30 53 1 14 48 CFG=1
M  V30 54 1 49 15
M  V30 55 1 50 15
M  V30 56 1 51 16
M  V30 57 1 52 16
M  V30 58 1 53 16
M  V30 59 1 54 18
M  V30 60 1 55 18
M  V30 61 1 56 23
M  V30 62 1 57 23
M  V30 63 1 58 23
M  V30 64 1 59 24
M  V30 65 1 60 25
M  V30 66 1 61 25
M  V30 67 1 27 62 CFG=1
M  V30 68 1 63 29
M  V30 69 1 64 29
M  V30 70 1 65 31
M  V30 71 1 66 31
M  V30 72 1 67 32
M  V30 73 1 68 32
M  V30 74 1 69 33
M  V30 75 1 70 33
M  V30 76 1 71 34
M  V30 77 1 72 34
M  V30 78 1 35 73 CFG=1
M  V30 79 1 74 36
M  V30 80 1 75 36
M  V30 81 1 76 38
M  V30 82 1 77 39
M  V30 END BOND
M  V30 END CTAB
M  END
>  <i_epik_Tot_Q>  (1) 
-1

>  <i_epik_Tot_abs_Q>  (1) 
3

>  <i_i_glide_confnum>  (1) 
11

>  <i_i_glide_lignum>  (1) 
55

>  <i_i_glide_posenum>  (1) 
46

>  <i_i_glide_rotatable_bonds>  (1) 
7

>  <i_lp_mmshare_version>  (1) 
72125

>  <i_m_source_file_index>  (1) 
20

>  <i_f3d_flags>  (1) 
0

>  <num_sample>  (1) 
50

>  <b_lp_Chiralities_Consistent>  (1) 
1

>  <r_epik_Charging_Adjusted_Penalty>  (1) 
0.37497455050254402

>  <r_epik_Ionization_Penalty>  (1) 
0.18748815805699803

>  <r_epik_Ionization_Penalty_Charging>  (1) 
0.18748727525127204

>  <r_epik_Ionization_Penalty_Neutral>  (1) 
8.8280572598136269e-07

>  <r_epik_State_Penalty>  (1) 
0.18748727525127201

>  <r_glide_ring_energy>  (1) 
0

>  <r_i_docking_score>  (1) 
-2.7638157952961167

>  <r_i_glide_ecoul>  (1) 
-1.4030030686100656

>  <r_i_glide_eff_state_penalty>  (1) 
0.18748727525127201

>  <r_i_glide_einternal>  (1) 
6.0555659277881704

>  <r_i_glide_emodel>  (1) 
-11.003679049567671

>  <r_i_glide_emodel_strain>  (1) 
2.4984421519682769

>  <r_i_glide_energy>  (1) 
-13.621345921023268

>  <r_i_glide_erotb>  (1) 
0.20935287492175977

>  <r_i_glide_esite>  (1) 
-0.0062759576528299181

>  <r_i_glide_evdw>  (1) 
-12.218342852413203

>  <r_i_glide_gscore>  (1) 
-2.9513030705473886

>  <r_i_glide_gscore_strain>  (1) 
0

>  <r_i_glide_hbond>  (1) 
0

>  <r_i_glide_ligand_efficiency>  (1) 
-0.070867071674259402

>  <r_i_glide_ligand_efficiency_ln>  (1) 
-0.59264056208838689

>  <r_i_glide_ligand_efficiency_sa>  (1) 
-0.24032522439465365

>  <r_i_glide_lipo>  (1) 
-1.4477490215639395

>  <r_i_glide_metal>  (1) 
-0

>  <r_i_glide_rewards>  (1) 
-0.88526336334020916

>  <r_lp_Energy>  (1) 
69.26473

>  <s_epik_cmdline>  (1) 
J2VwaWtfcHl0aG9uJywgJy1waHQnLCAnMS4wJywgJy1waCcsICc3LjQnLCAnLXRuJywgJzgnLCAnLW1hJywgJzUwMCcsICctaW1hZScsICc8aW5maWxlLm1hZT4nLCAnLW9tYWUnLCAnPG91dGZpbGUubWFlPic=

>  <s_epik_input>  (1) 
W09IXVtDQEBdMTJbQ0BIXTNbQ0gyXU9DKFtDSDNdKShbQ0gzXSlbQ0BASF0oW0NIMl0xKVtDSDJdW0NIMl1bQ0BIXTJbQ0gyXVtDQEhdNFtDQF0oW0NIMl0zKShbT0hdKVtDQEBIXShbQ0gyXVtDQEBIXTRbT0hdKVtDSDJdT0MoTzUpPVtDSF1bQ0hdPUMoW09IXSlDKD1DNTYpW0NIMl1DKFtOK10oW08tXSk9Tyk9W0NIXVtDSDJdNg==

>  <s_glide_docking_method>  (1) 
confgen

>  <s_i_glide_gridfile>  (1) 
gpcr_drd2_6luq_protein_autoprepared_prepared

>  <s_lp_Force_Field>  (1) 
S-OPLS

>  <s_lp_Variant>  (1) 
DiffSBDD_19_num_sample_50-1

>  <s_m_source_file>  (1) 
generated__ligand_DiffSBDD_2026-05-06_prepared.sdf

>  <GenAI_Model>  (1) 
DiffSBDD

>  <Protein>  (1) 
generic_title2

$$$$
DiffSBDD_19_num_sample_50
     RDKit          3D

  0  0  0  0  0  0  0  0  0  0999 V3000
M  V30 BEGIN CTAB
M  V30 COUNTS 77 82 0 0 1
M  V30 BEGIN ATOM
M  V30 1 C 7.413740 5.668728 -12.783327 0 CFG=1
M  V30 2 C 11.388929 5.161874 -16.714613 0
M  V30 3 O 5.434917 6.669844 -13.708662 0
M  V30 4 C 12.049584 4.224491 -17.396901 0
M  V30 5 C 7.436215 2.842179 -15.730569 0
M  V30 6 C 7.456963 1.567749 -16.014499 0
M  V30 7 C 9.991504 6.224462 -10.669698 0 CFG=2
M  V30 8 O 14.074550 5.288917 -17.080198 0 CHG=-1
M  V30 9 C 6.397204 3.533659 -12.307910 0 CFG=1
M  V30 10 C 9.325078 4.963924 -9.998084 0 CFG=1
M  V30 11 O 8.015472 3.703803 -16.496099 0
M  V30 12 O 10.001197 0.633514 -18.519415 0 CHG=-1
M  V30 13 C 11.384030 3.012517 -18.021518 0
M  V30 14 C 5.924563 5.938117 -12.605033 0 CFG=1
M  V30 15 C 8.246433 6.932005 -12.520012 0
M  V30 16 C 9.205469 8.224842 -6.566735 0
M  V30 17 C 9.303213 3.732169 -16.797512 0
M  V30 18 C 9.424442 4.982745 -8.450925 0
M  V30 19 N 13.491701 4.328609 -17.580814 0 CHG=1
M  V30 20 C 9.927092 7.214666 -7.474293 0
M  V30 21 C 9.395726 1.411893 -17.746237 0
M  V30 22 C 9.964867 2.727252 -17.474916 0
M  V30 23 C 11.060381 6.655325 -6.568137 0
M  V30 24 O 10.634633 5.943594 -11.892195 0
M  V30 25 C 11.056855 6.969159 -9.762918 0
M  V30 26 O 8.983335 6.184678 -7.807166 0
M  V30 27 C 8.895674 7.153303 -11.132239 0 CFG=2
M  V30 28 C 7.683863 4.364505 -11.999920 0 CFG=2
M  V30 29 C 9.905927 5.106223 -16.492858 0
M  V30 30 O 6.697679 3.352283 -14.686789 0
M  V30 31 C 9.588581 8.923951 -9.491446 0
M  V30 32 C 5.268646 4.563319 -12.488438 0
M  V30 33 C 9.318889 8.569331 -10.968480 0
M  V30 34 C 7.868635 4.608263 -10.471782 0
M  V30 35 C 10.484309 7.928395 -8.745076 0 CFG=1
M  V30 36 C 6.482833 2.566615 -13.519371 0
M  V30 37 O 14.059174 3.453035 -18.227811 0
M  V30 38 O 8.815357 3.678368 -12.506098 0
M  V30 39 C 8.198477 0.931253 -17.102247 0
M  V30 40 H 7.556757 5.442566 -13.840531 0
M  V30 41 H 11.914639 6.006730 -16.293003 0
M  V30 42 H 4.560872 6.969298 -13.501705 0
M  V30 43 H 6.869433 0.914099 -15.390180 0
M  V30 44 H 6.133032 2.917798 -11.455992 0
M  V30 45 H 9.905818 4.093998 -10.280417 0
M  V30 46 H 11.330899 3.155341 -19.101119 0
M  V30 47 H 12.007607 2.136545 -17.841436 0
M  V30 48 H 5.750493 6.512397 -11.692830 0
M  V30 49 H 9.006596 6.969221 -13.284830 0
M  V30 50 H 7.620997 7.795478 -12.750114 0
M  V30 51 H 9.826183 9.109156 -6.415538 0
M  V30 52 H 9.034888 7.784608 -5.591360 0
M  V30 53 H 8.234837 8.539239 -6.942471 0
M  V30 54 H 8.811675 4.179145 -8.041413 0
M  V30 55 H 10.436831 4.708903 -8.171451 0
M  V30 56 H 11.667709 7.469398 -6.174244 0
M  V30 57 H 11.752191 5.969773 -7.048410 0
M  V30 58 H 10.645640 6.127911 -5.710189 0
M  V30 59 H 10.454668 6.650169 -12.491637 0
M  V30 60 H 11.619762 6.302833 -9.132620 0
M  V30 61 H 11.788078 7.496467 -10.378283 0
M  V30 62 H 8.234840 6.969489 -10.345471 0
M  V30 63 H 9.423762 5.861695 -17.110191 0
M  V30 64 H 9.695838 5.347714 -15.450894 0
M  V30 65 H 10.158634 9.833984 -9.491626 0
M  V30 66 H 8.656173 9.126839 -8.973770 0
M  V30 67 H 4.645901 4.327513 -13.351092 0
M  V30 68 H 4.634854 4.558260 -11.608372 0
M  V30 69 H 10.214521 8.655115 -11.573442 0
M  V30 70 H 8.579298 9.262936 -11.368606 0
M  V30 71 H 7.509581 3.769881 -9.904553 0
M  V30 72 H 7.127669 5.327628 -10.129772 0
M  V30 73 H 11.331241 8.513112 -8.381902 0
M  V30 74 H 7.278442 1.840501 -13.351733 0
M  V30 75 H 5.558988 1.995920 -13.611391 0
M  V30 76 H 8.983790 2.914248 -11.973933 0
M  V30 77 H 7.891417 -0.075125 -17.346689 0
M  V30 END ATOM
M  V30 BEGIN BOND
M  V30 1 2 4 2
M  V30 2 2 6 5
M  V30 3 1 10 7
M  V30 4 1 11 5
M  V30 5 1 13 4
M  V30 6 1 14 1
M  V30 7 1 14 3
M  V30 8 1 15 1
M  V30 9 1 17 11
M  V30 10 1 18 10
M  V30 11 1 19 4
M  V30 12 1 19 8
M  V30 13 1 20 16
M  V30 14 1 21 12
M  V30 15 1 22 13
M  V30 16 2 22 17
M  V30 17 1 22 21
M  V30 18 1 23 20
M  V30 19 1 7 24 CFG=3
M  V30 20 1 25 7
M  V30 21 1 26 18
M  V30 22 1 26 20
M  V30 23 1 27 7
M  V30 24 1 27 15
M  V30 25 1 28 1
M  V30 26 1 28 9
M  V30 27 1 29 2
M  V30 28 1 29 17
M  V30 29 1 30 5
M  V30 30 1 32 9
M  V30 31 1 32 14
M  V30 32 1 33 27
M  V30 33 1 33 31
M  V30 34 1 34 10
M  V30 35 1 34 28
M  V30 36 1 35 20
M  V30 37 1 35 25
M  V30 38 1 35 31
M  V30 39 1 36 9
M  V30 40 1 36 30
M  V30 41 2 37 19
M  V30 42 1 28 38 CFG=3
M  V30 43 1 39 6
M  V30 44 2 39 21
M  V30 45 1 1 40 CFG=3
M  V30 46 1 41 2
M  V30 47 1 42 3
M  V30 48 1 43 6
M  V30 49 1 9 44 CFG=1
M  V30 50 1 10 45 CFG=3
M  V30 51 1 46 13
M  V30 52 1 47 13
M  V30 53 1 14 48 CFG=1
M  V30 54 1 49 15
M  V30 55 1 50 15
M  V30 56 1 51 16
M  V30 57 1 52 16
M  V30 58 1 53 16
M  V30 59 1 54 18
M  V30 60 1 55 18
M  V30 61 1 56 23
M  V30 62 1 57 23
M  V30 63 1 58 23
M  V30 64 1 59 24
M  V30 65 1 60 25
M  V30 66 1 61 25
M  V30 67 1 27 62 CFG=1
M  V30 68 1 63 29
M  V30 69 1 64 29
M  V30 70 1 65 31
M  V30 71 1 66 31
M  V30 72 1 67 32
M  V30 73 1 68 32
M  V30 74 1 69 33
M  V30 75 1 70 33
M  V30 76 1 71 34
M  V30 77 1 72 34
M  V30 78 1 35 73 CFG=1
M  V30 79 1 74 36
M  V30 80 1 75 36
M  V30 81 1 76 38
M  V30 82 1 77 39
M  V30 END BOND
M  V30 END CTAB
M  END
>  <i_epik_Tot_Q>  (1) 
-1

>  <i_epik_Tot_abs_Q>  (1) 
3

>  <i_i_glide_confnum>  (1) 
11

>  <i_i_glide_lignum>  (1) 
55

>  <i_i_glide_posenum>  (1) 
266

>  <i_i_glide_rotatable_bonds>  (1) 
7

>  <i_lp_mmshare_version>  (1) 
72125

>  <i_m_source_file_index>  (1) 
20

>  <i_f3d_flags>  (1) 
0

>  <num_sample>  (1) 
50

>  <b_lp_Chiralities_Consistent>  (1) 
1

>  <r_epik_Charging_Adjusted_Penalty>  (1) 
0.37497455050254402

>  <r_epik_Ionization_Penalty>  (1) 
0.18748815805699803

>  <r_epik_Ionization_Penalty_Charging>  (1) 
0.18748727525127204

>  <r_epik_Ionization_Penalty_Neutral>  (1) 
8.8280572598136269e-07

>  <r_epik_State_Penalty>  (1) 
0.18748727525127201

>  <r_glide_ring_energy>  (1) 
0

>  <r_i_docking_score>  (1) 
-2.7530406618970993

>  <r_i_glide_ecoul>  (1) 
-0.013031927343732597

>  <r_i_glide_eff_state_penalty>  (1) 
0.18748727525127201

>  <r_i_glide_einternal>  (1) 
4.7111737887507621

>  <r_i_glide_emodel>  (1) 
-11.45882902267083

>  <r_i_glide_emodel_strain>  (1) 
1.5668403581818495

>  <r_i_glide_energy>  (1) 
-12.483317103933459

>  <r_i_glide_erotb>  (1) 
0.20935287492175977

>  <r_i_glide_esite>  (1) 
0

>  <r_i_glide_evdw>  (1) 
-12.470285176589726

>  <r_i_glide_gscore>  (1) 
-2.9405279371483712

>  <r_i_glide_gscore_strain>  (1) 
0

>  <r_i_glide_hbond>  (1) 
0

>  <r_i_glide_ligand_efficiency>  (1) 
-0.070590786202489722

>  <r_i_glide_ligand_efficiency_ln>  (1) 
-0.59033006761728679

>  <r_i_glide_ligand_efficiency_sa>  (1) 
-0.23938828194124975

>  <r_i_glide_lipo>  (1) 
-1.7102488864945813

>  <r_i_glide_metal>  (1) 
-0

>  <r_i_glide_rewards>  (1) 
-0.81416287764450379

>  <r_lp_Energy>  (1) 
69.26473

>  <s_epik_cmdline>  (1) 
J2VwaWtfcHl0aG9uJywgJy1waHQnLCAnMS4wJywgJy1waCcsICc3LjQnLCAnLXRuJywgJzgnLCAnLW1hJywgJzUwMCcsICctaW1hZScsICc8aW5maWxlLm1hZT4nLCAnLW9tYWUnLCAnPG91dGZpbGUubWFlPic=

>  <s_epik_input>  (1) 
W09IXVtDQEBdMTJbQ0BIXTNbQ0gyXU9DKFtDSDNdKShbQ0gzXSlbQ0BASF0oW0NIMl0xKVtDSDJdW0NIMl1bQ0BIXTJbQ0gyXVtDQEhdNFtDQF0oW0NIMl0zKShbT0hdKVtDQEBIXShbQ0gyXVtDQEBIXTRbT0hdKVtDSDJdT0MoTzUpPVtDSF1bQ0hdPUMoW09IXSlDKD1DNTYpW0NIMl1DKFtOK10oW08tXSk9Tyk9W0NIXVtDSDJdNg==

>  <s_glide_docking_method>  (1) 
confgen

>  <s_i_glide_gridfile>  (1) 
gpcr_drd2_6luq_protein_autoprepared_prepared

>  <s_lp_Force_Field>  (1) 
S-OPLS

>  <s_lp_Variant>  (1) 
DiffSBDD_19_num_sample_50-1

>  <s_m_source_file>  (1) 
generated__ligand_DiffSBDD_2026-05-06_prepared.sdf

>  <GenAI_Model>  (1) 
DiffSBDD

>  <Protein>  (1) 
generic_title2

$$$$
DiffSBDD_10_num_sample_50
     RDKit          3D

  0  0  0  0  0  0  0  0  0  0999 V3000
M  V30 BEGIN CTAB
M  V30 COUNTS 73 74 0 0 1
M  V30 BEGIN ATOM
M  V30 1 C 6.831396 6.183891 -19.858321 0 CFG=2
M  V30 2 C 10.005419 6.598291 -7.075311 0
M  V30 3 C 8.831643 7.140457 -10.996776 0
M  V30 4 C 6.329466 6.764916 -13.901706 0 CFG=1
M  V30 5 C 5.995497 6.616291 -18.632996 0 CFG=2
M  V30 6 N 11.185840 7.598043 -8.937495 0
M  V30 7 N 5.149239 6.169213 -15.850688 0
M  V30 8 C 6.211356 7.049647 -16.223944 0 CFG=1
M  V30 9 S 6.203391 6.835600 -21.526250 0
M  V30 10 C 10.529307 7.525917 -6.000793 0
M  V30 11 S 4.624587 5.487500 -21.996853 0 CHG=-1
M  V30 12 C 8.950179 4.890028 -20.569815 0
M  V30 13 O 12.247015 9.109693 -2.509883 0
M  V30 14 O 5.621504 8.177145 -21.359659 0
M  V30 15 C 5.931529 5.188088 -19.128743 0 CFG=2
M  V30 16 C 8.657370 4.539458 -10.999090 0
M  V30 17 C 5.334001 5.759025 -14.462247 0 CFG=1
M  V30 18 N 11.834971 7.383690 -3.796126 0 CHG=1
M  V30 19 N 9.833472 5.726669 -9.271548 0
M  V30 20 C 11.388392 6.688250 -5.027563 0
M  V30 21 C 8.315235 5.894438 -15.361281 0
M  V30 22 C 8.361782 6.104276 -19.829909 0
M  V30 23 C 4.769804 7.524785 -18.690738 0
M  V30 24 C 7.006721 6.295032 -12.617938 0
M  V30 25 C 9.148889 5.810777 -10.346763 0
M  V30 26 O 6.634158 4.260690 -18.314426 0
M  V30 27 C 10.333691 6.663339 -8.378562 0
M  V30 28 O 7.249477 6.652802 -22.543209 0
M  V30 29 F 5.843108 4.532569 -14.421117 0
M  V30 30 N 9.434227 4.170739 -12.204191 0 CHG=1
M  V30 31 C 12.205477 8.809842 -3.885754 0
M  V30 32 C 7.252965 7.003868 -15.091849 0 CFG=2
M  V30 33 O 6.801565 6.727485 -17.451570 0
M  V30 34 C 7.913568 7.344902 -11.987119 0
M  V30 35 H 9.324708 5.825854 -6.744317 0
M  V30 36 H 9.388365 7.978800 -10.615405 0
M  V30 37 H 5.777091 7.680771 -13.688140 0
M  V30 38 H 11.597721 8.339179 -8.390060 0
M  V30 39 H 5.159556 5.342195 -16.432637 0
M  V30 40 H 5.807488 8.060825 -16.297931 0
M  V30 41 H 9.672285 7.961509 -5.492093 0
M  V30 42 H 11.102272 8.345331 -6.433377 0
M  V30 43 H 10.039574 4.928680 -20.568780 0
M  V30 44 H 8.656960 3.957810 -20.089762 0
M  V30 45 H 8.627779 4.835840 -21.608166 0
M  V30 46 H 12.906499 9.773514 -2.340157 0
M  V30 47 H 4.980550 4.818845 -19.496450 0
M  V30 48 H 8.915987 3.769496 -10.295313 0
M  V30 49 H 7.574074 4.454836 -11.058190 0
M  V30 50 H 4.413940 5.709207 -13.892577 0
M  V30 51 H 12.601867 6.873340 -3.383353 0
M  V30 52 H 12.234582 6.258061 -5.559788 0
M  V30 53 H 10.812563 5.825043 -4.691051 0
M  V30 54 H 7.873192 4.924257 -15.582984 0
M  V30 55 H 8.945395 6.140255 -16.213982 0
M  V30 56 H 8.997905 5.769002 -14.523931 0
M  V30 57 H 8.759580 7.024969 -20.258874 0
M  V30 58 H 8.713300 6.082540 -18.799794 0
M  V30 59 H 4.192320 7.336921 -19.589804 0
M  V30 60 H 4.091818 7.355787 -17.856238 0
M  V30 61 H 5.074766 8.568917 -18.694862 0
M  V30 62 H 7.502727 5.395141 -12.925799 0
M  V30 63 H 6.235945 6.033849 -11.890489 0
M  V30 64 H 6.870019 3.522143 -18.854227 0
M  V30 65 H 9.165515 3.246333 -12.510080 0
M  V30 66 H 9.232342 4.832669 -12.939364 0
M  V30 67 H 11.448651 9.430459 -4.367426 0
M  V30 68 H 13.172390 8.968422 -4.364439 0
M  V30 69 H 7.715859 7.980683 -14.979798 0
M  V30 70 H 7.790478 8.347794 -12.366863 0
M  V30 71 H 11.388009 7.608388 -9.925288 0
M  V30 72 H 11.064089 7.338730 -3.146594 0
M  V30 73 H 10.429237 4.180550 -12.022973 0
M  V30 END ATOM
M  V30 BEGIN BOND
M  V30 1 1 5 1
M  V30 2 1 8 7
M  V30 3 1 9 1
M  V30 4 1 10 2
M  V30 5 1 11 9
M  V30 6 2 14 9
M  V30 7 1 15 1
M  V30 8 1 15 5
M  V30 9 1 17 4
M  V30 10 1 17 7
M  V30 11 1 20 10
M  V30 12 1 20 18
M  V30 13 1 1 22 CFG=1
M  V30 14 1 22 12
M  V30 15 1 23 5
M  V30 16 1 24 4
M  V30 17 1 25 3
M  V30 18 1 25 16
M  V30 19 2 25 19
M  V30 20 1 26 15
M  V30 21 2 27 2
M  V30 22 1 27 6
M  V30 23 1 27 19
M  V30 24 2 28 9
M  V30 25 1 29 17
M  V30 26 1 30 16
M  V30 27 1 31 13
M  V30 28 1 31 18
M  V30 29 1 32 4
M  V30 30 1 32 8
M  V30 31 1 32 21
M  V30 32 1 5 33 CFG=1
M  V30 33 1 33 8
M  V30 34 2 34 3
M  V30 35 1 34 24
M  V30 36 1 35 2
M  V30 37 1 36 3
M  V30 38 1 4 37 CFG=1
M  V30 39 1 38 6
M  V30 40 1 39 7
M  V30 41 1 8 40 CFG=3
M  V30 42 1 41 10
M  V30 43 1 42 10
M  V30 44 1 43 12
M  V30 45 1 44 12
M  V30 46 1 45 12
M  V30 47 1 46 13
M  V30 48 1 15 47 CFG=3
M  V30 49 1 48 16
M  V30 50 1 49 16
M  V30 51 1 17 50 CFG=1
M  V30 52 1 51 18
M  V30 53 1 52 20
M  V30 54 1 53 20
M  V30 55 1 54 21
M  V30 56 1 55 21
M  V30 57 1 56 21
M  V30 58 1 57 22
M  V30 59 1 58 22
M  V30 60 1 59 23
M  V30 61 1 60 23
M  V30 62 1 61 23
M  V30 63 1 62 24
M  V30 64 1 63 24
M  V30 65 1 64 26
M  V30 66 1 65 30
M  V30 67 1 66 30
M  V30 68 1 67 31
M  V30 69 1 68 31
M  V30 70 1 32 69 CFG=1
M  V30 71 1 70 34
M  V30 72 1 71 6
M  V30 73 1 72 18
M  V30 74 1 73 30
M  V30 END BOND
M  V30 END CTAB
M  END
>  <i_epik_Tot_Q>  (1) 
1

>  <i_epik_Tot_abs_Q>  (1) 
3

>  <i_i_glide_confnum>  (1) 
615

>  <i_i_glide_lignum>  (1) 
29

>  <i_i_glide_posenum>  (1) 
10

>  <i_i_glide_rotatable_bonds>  (1) 
15

>  <i_lp_mmshare_version>  (1) 
72125

>  <i_m_source_file_index>  (1) 
11

>  <i_f3d_flags>  (1) 
0

>  <num_sample>  (1) 
50

>  <b_lp_Chiralities_Consistent>  (1) 
1

>  <r_epik_Charging_Adjusted_Penalty>  (1) 
2.168687317063887

>  <r_epik_Ionization_Penalty>  (1) 
1.1047352072338965

>  <r_epik_Ionization_Penalty_Charging>  (1) 
1.0999234457570315

>  <r_epik_Ionization_Penalty_Neutral>  (1) 
0.0048117614768649203

>  <r_epik_State_Penalty>  (1) 
1.0687638713068555

>  <r_glide_ring_energy>  (1) 
0

>  <r_i_docking_score>  (1) 
-2.7485487346453201

>  <r_i_glide_ecoul>  (1) 
-5.14671517633988

>  <r_i_glide_eff_state_penalty>  (1) 
1.0687638713068555

>  <r_i_glide_einternal>  (1) 
29.337812825925422

>  <r_i_glide_emodel>  (1) 
-22.040958963675656

>  <r_i_glide_emodel_strain>  (1) 
8.7616512210561268

>  <r_i_glide_energy>  (1) 
-30.736015596529249

>  <r_i_glide_erotb>  (1) 
0.82219216958862984

>  <r_i_glide_esite>  (1) 
-0.064612772537754756

>  <r_i_glide_evdw>  (1) 
-25.589300420189367

>  <r_i_glide_gscore>  (1) 
-3.8173126059521758

>  <r_i_glide_gscore_strain>  (1) 
1.1904128052640317

>  <r_i_glide_hbond>  (1) 
-0.29960390206777676

>  <r_i_glide_ligand_efficiency>  (1) 
-0.080839668666038825

>  <r_i_glide_ligand_efficiency_ln>  (1) 
-0.60723150966380413

>  <r_i_glide_ligand_efficiency_sa>  (1) 
-0.26188914462186103

>  <r_i_glide_lipo>  (1) 
-1.7941394635423324

>  <r_i_glide_metal>  (1) 
-0

>  <r_i_glide_rewards>  (1) 
-1.6200891451965225

>  <r_lp_Energy>  (1) 
21.645868

>  <s_epik_Chemistry_Notes>  (1) 
This compound has an imine and may undergo hydrolysis. This compound contains an acetal/aminal-like group ( X-CH(R)-Y where X, Y are N, S, or O) that may be acid/base labile, releasing an aldehyde.

>  <s_epik_cmdline>  (1) 
J2VwaWtfcHl0aG9uJywgJy1waHQnLCAnMS4wJywgJy1waCcsICc3LjQnLCAnLXRuJywgJzgnLCAnLW1hJywgJzUwMCcsICctaW1hZScsICc8aW5maWxlLm1hZT4nLCAnLW9tYWUnLCAnPG91dGZpbGUubWFlPic=

>  <s_epik_input>  (1) 
W1NIXVMoPU8pKD1PKVtDQEBdMShbQ0gyXVtDSDNdKVtDQEBdKFtDSDNdKShbQ0BASF0xW09IXSlPW0NASF0oW0NAQEhdMltDSDNdKVtOSF1bQ0BASF0oRilbQ0BIXTJbQ0gyXS9bQ0hdPVtDSF1cQyhbQ0gyXVtOSDJdKT1OL0MoPU4vW0hdKS9bQ0gyXVtDSDJdW0NIMl1bTkhdW0NIMl1bT0hd

>  <s_glide_docking_method>  (1) 
confgen

>  <s_i_glide_gridfile>  (1) 
gpcr_drd2_6luq_protein_autoprepared_prepared

>  <s_lp_Force_Field>  (1) 
S-OPLS

>  <s_lp_Variant>  (1) 
DiffSBDD_10_num_sample_50-9

>  <s_m_source_file>  (1) 
generated__ligand_DiffSBDD_2026-05-06_prepared.sdf

>  <GenAI_Model>  (1) 
DiffSBDD

>  <Protein>  (1) 
generic_title2

$$$$
DiffSBDD_39_num_sample_50
     RDKit          3D

  0  0  0  0  0  0  0  0  0  0999 V3000
M  V30 BEGIN CTAB
M  V30 COUNTS 60 63 0 0 1
M  V30 BEGIN ATOM
M  V30 1 C 6.384564 1.369412 -15.121428 0
M  V30 2 C 8.163854 -0.184802 -14.320142 0
M  V30 3 C 8.054204 3.826500 -12.157133 0 CFG=1
M  V30 4 O 8.354207 -0.695336 -16.971125 0
M  V30 5 C 8.639130 5.249331 -12.371070 0 CFG=2
M  V30 6 C 7.508937 6.307478 -12.535722 0
M  V30 7 C 6.234063 2.350868 -12.672422 0 CFG=1
M  V30 8 O 7.692185 2.102789 -19.987636 0
M  V30 9 C 8.901167 5.129851 -8.735251 0
M  V30 10 O 4.826725 4.075240 -13.491636 0
M  V30 11 C 7.838328 2.746545 -17.809620 0
M  V30 12 C 5.749557 1.335998 -13.707515 0
M  V30 13 N 8.637811 5.769303 -9.879916 0
M  V30 14 C 7.325344 4.464089 -19.388566 0
M  V30 15 O 8.202024 5.369302 -7.737959 0
M  V30 16 C 7.878638 0.972820 -15.303065 0 CFG=1
M  V30 17 N 7.061617 3.498712 -13.167311 0
M  V30 18 C 10.150425 7.005765 -11.256838 0
M  V30 19 C 7.612823 3.130735 -19.064636 0
M  V30 20 C 9.528251 5.268119 -13.661052 0
M  V30 21 C 7.288660 5.422569 -18.348576 0
M  V30 22 C 7.842976 3.663634 -16.730262 0
M  V30 23 C 5.774827 3.752588 -12.790526 0
M  V30 24 F 7.008020 6.715812 -18.628030 0
M  V30 25 C 7.555214 5.021719 -17.010989 0
M  V30 26 C 8.065691 0.889328 -19.189619 0
M  V30 27 O 9.042990 2.832043 -12.291669 0
M  V30 28 C 9.462477 5.634608 -11.100678 0 CFG=2
M  V30 29 O 9.834845 4.317712 -8.691677 0 CHG=-1
M  V30 30 C 8.131947 0.498610 -16.764441 0
M  V30 31 C 8.044956 7.706029 -12.454698 0
M  V30 32 N 8.065027 1.396377 -17.811796 0
M  V30 33 C 9.217241 8.015118 -11.891770 0
M  V30 34 H 5.772970 0.719795 -15.750052 0
M  V30 35 H 6.234888 2.356651 -15.522824 0
M  V30 36 H 9.034784 -0.774034 -14.578701 0
M  V30 37 H 8.317967 0.186233 -13.305912 0
M  V30 38 H 7.330157 -0.885271 -14.292668 0
M  V30 39 H 7.642261 3.769513 -11.147448 0
M  V30 40 H 7.006300 6.200189 -13.498758 0
M  V30 41 H 6.744778 6.209834 -11.764249 0
M  V30 42 H 6.234701 2.003540 -11.650355 0
M  V30 43 H 5.868106 0.348030 -13.264843 0
M  V30 44 H 4.665906 1.398232 -13.791567 0
M  V30 45 H 7.873039 6.443190 -9.893348 0
M  V30 46 H 7.136793 4.754652 -20.411269 0
M  V30 47 H 8.617374 1.700614 -14.992816 0
M  V30 48 H 11.063106 6.938802 -11.848247 0
M  V30 49 H 10.468460 7.382889 -10.283069 0
M  V30 50 H 10.457986 5.817764 -13.546413 0
M  V30 51 H 9.833699 4.284589 -14.000573 0
M  V30 52 H 9.013060 5.715093 -14.506597 0
M  V30 53 H 8.052342 3.369138 -15.730277 0
M  V30 54 H 7.537813 5.748332 -16.214321 0
M  V30 55 H 9.061236 0.527627 -19.446160 0
M  V30 56 H 7.310640 0.109336 -19.299291 0
M  V30 57 H 9.194634 2.402803 -11.455289 0
M  V30 58 H 10.234211 4.873993 -10.993725 0
M  V30 59 H 7.435532 8.484330 -12.882937 0
M  V30 60 H 9.534148 9.018219 -11.888503 0
M  V30 END ATOM
M  V30 BEGIN BOND
M  V30 1 1 5 3
M  V30 2 1 6 5
M  V30 3 1 12 1
M  V30 4 1 12 7
M  V30 5 1 13 9
M  V30 6 2 15 9
M  V30 7 1 16 1
M  V30 8 1 16 2
M  V30 9 1 17 3
M  V30 10 1 17 7
M  V30 11 1 19 8
M  V30 12 2 19 11
M  V30 13 1 19 14
M  V30 14 1 5 20 CFG=3
M  V30 15 2 21 14
M  V30 16 1 22 11
M  V30 17 1 23 7
M  V30 18 2 23 10
M  V30 19 1 23 17
M  V30 20 1 24 21
M  V30 21 1 25 21
M  V30 22 2 25 22
M  V30 23 1 26 8
M  V30 24 1 27 3
M  V30 25 1 28 5
M  V30 26 1 28 13
M  V30 27 1 28 18
M  V30 28 1 29 9
M  V30 29 2 30 4
M  V30 30 1 30 16
M  V30 31 1 31 6
M  V30 32 1 32 11
M  V30 33 1 32 26
M  V30 34 1 32 30
M  V30 35 1 33 18
M  V30 36 2 33 31
M  V30 37 1 34 1
M  V30 38 1 35 1
M  V30 39 1 36 2
M  V30 40 1 37 2
M  V30 41 1 38 2
M  V30 42 1 3 39 CFG=1
M  V30 43 1 40 6
M  V30 44 1 41 6
M  V30 45 1 7 42 CFG=1
M  V30 46 1 43 12
M  V30 47 1 44 12
M  V30 48 1 45 13
M  V30 49 1 46 14
M  V30 50 1 16 47 CFG=1
M  V30 51 1 48 18
M  V30 52 1 49 18
M  V30 53 1 50 20
M  V30 54 1 51 20
M  V30 55 1 52 20
M  V30 56 1 53 22
M  V30 57 1 54 25
M  V30 58 1 55 26
M  V30 59 1 56 26
M  V30 60 1 57 27
M  V30 61 1 28 58 CFG=1
M  V30 62 1 59 31
M  V30 63 1 60 33
M  V30 END BOND
M  V30 END CTAB
M  END
>  <i_epik_Tot_Q>  (1) 
-1

>  <i_epik_Tot_abs_Q>  (1) 
1

>  <i_i_glide_confnum>  (1) 
237

>  <i_i_glide_lignum>  (1) 
97

>  <i_i_glide_posenum>  (1) 
290

>  <i_i_glide_rotatable_bonds>  (1) 
10

>  <i_lp_mmshare_version>  (1) 
72125

>  <i_m_source_file_index>  (1) 
40

>  <i_f3d_flags>  (1) 
0

>  <num_sample>  (1) 
50

>  <b_lp_Chiralities_Consistent>  (1) 
1

>  <r_epik_Charging_Adjusted_Penalty>  (1) 
0.003396760876195394

>  <r_epik_Ionization_Penalty>  (1) 
0.00096209118661649666

>  <r_epik_Ionization_Penalty_Charging>  (1) 
0.00096096227606769398

>  <r_epik_Ionization_Penalty_Neutral>  (1) 
1.1289105488026586e-06

>  <r_epik_State_Penalty>  (1) 
0.0024357986001277

>  <r_glide_ring_energy>  (1) 
0

>  <r_i_docking_score>  (1) 
-2.7303755531267209

>  <r_i_glide_ecoul>  (1) 
-2.2565397323713405

>  <r_i_glide_eff_state_penalty>  (1) 
0.0024357986001277

>  <r_i_glide_einternal>  (1) 
19.88950488971151

>  <r_i_glide_emodel>  (1) 
-10.987986534398274

>  <r_i_glide_emodel_strain>  (1) 
3.1877943482131457

>  <r_i_glide_energy>  (1) 
-20.561666774875128

>  <r_i_glide_erotb>  (1) 
0.46513608863983702

>  <r_i_glide_esite>  (1) 
-0.10121799757704855

>  <r_i_glide_evdw>  (1) 
-18.305127042503788

>  <r_i_glide_gscore>  (1) 
-2.7328113517268484

>  <r_i_glide_gscore_strain>  (1) 
0

>  <r_i_glide_hbond>  (1) 
-0.40482377808958914

>  <r_i_glide_ligand_efficiency>  (1) 
-0.082738653125052145

>  <r_i_glide_ligand_efficiency_ln>  (1) 
-0.6072213858873714

>  <r_i_glide_ligand_efficiency_sa>  (1) 
-0.26538707031622127

>  <r_i_glide_lipo>  (1) 
-1.0320055112106155

>  <r_i_glide_metal>  (1) 
-0

>  <r_i_glide_rewards>  (1) 
-0.40616284150854254

>  <r_lp_Energy>  (1) 
30.570542999999997

>  <r_lp_tautomer_probability>  (1) 
1

>  <s_epik_Chemistry_Notes>  (1) 
This compound contains an acetal/aminal-like group ( X-CH(R)-Y where X, Y are N, S, or O) that may be acid/base labile, releasing an aldehyde.

>  <s_epik_cmdline>  (1) 
J2VwaWtfcHl0aG9uJywgJy1waHQnLCAnMS4wJywgJy1waCcsICc3LjQnLCAnLXRuJywgJzgnLCAnLW1hJywgJzUwMCcsICctaW1hZScsICc8aW5maWxlLm1hZT4nLCAnLW9tYWUnLCAnPG91dGZpbGUubWFlPic=

>  <s_epik_input>  (1) 
W2NIXTFbY0hdYyhGKVtjSF1jKGMxMilPW0NIMl1OMkMoPU8pW0NASF0oW0NIM10pW0NIMl1bQ0gyXVtDQEhdM04oQzM9TylbQ0BASF0oW09IXSlbQ0BAXTQoW0NIM10pW0NIMl1bQ0hdPVtDSF1bQ0gyXVtDQEhdNFtOSF1DKD1PKVtPSF0=

>  <s_glide_docking_method>  (1) 
confgen

>  <s_i_glide_gridfile>  (1) 
gpcr_drd2_6luq_protein_autoprepared_prepared

>  <s_lp_Force_Field>  (1) 
S-OPLS

>  <s_lp_Variant>  (1) 
DiffSBDD_39_num_sample_50-1

>  <s_m_source_file>  (1) 
generated__ligand_DiffSBDD_2026-05-06_prepared.sdf

>  <GenAI_Model>  (1) 
DiffSBDD

>  <Protein>  (1) 
generic_title2

$$$$
DiffSBDD_8_num_sample_50
     RDKit          3D

  0  0  0  0  0  0  0  0  0  0999 V3000
M  V30 BEGIN CTAB
M  V30 COUNTS 64 69 0 0 1
M  V30 BEGIN ATOM
M  V30 1 C 8.559987 5.853370 -11.091689 0 CFG=2
M  V30 2 O 6.766083 2.223359 -17.931361 0
M  V30 3 C 9.282888 6.278597 -8.522066 0 CFG=1
M  V30 4 N 10.383131 8.159104 -7.619213 0
M  V30 5 F 10.231761 2.630825 -17.091667 0
M  V30 6 C 9.133202 2.814623 -17.817214 0 CFG=2
M  V30 7 C 9.443469 2.341832 -19.243419 0
M  V30 8 C 7.972331 1.300973 -14.761600 0
M  V30 9 C 6.813559 3.742227 -13.877407 0
M  V30 10 C 10.524045 1.346199 -19.612925 0
M  V30 11 O 8.427888 6.513744 -18.691668 0
M  V30 12 C 10.397375 8.521326 -9.021285 0 CFG=2
M  V30 13 O 8.897811 6.228063 -21.069583 0 CHG=-1
M  V30 14 O 9.834816 6.505601 -6.192960 0
M  V30 15 O 8.888694 4.194564 -18.032131 0
M  V30 16 N 7.672694 2.393795 -15.702255 0
M  V30 17 C 6.366981 5.109181 -13.354544 0
M  V30 18 N 8.785899 5.755695 -19.735284 0 CHG=1
M  V30 19 N 9.363445 3.456491 -20.140730 0
M  V30 20 C 9.032238 4.426705 -19.368040 0
M  V30 21 C 7.180733 3.627059 -15.319554 0
M  V30 22 O 7.034840 4.541539 -16.130726 0
M  V30 23 C 9.864703 6.984344 -7.319360 0
M  V30 24 C 8.728609 4.534606 -10.330665 0
M  V30 25 C 10.156869 7.068654 -9.543780 0 CFG=2
M  V30 26 O 11.668592 8.969301 -9.445764 0
M  V30 27 C 9.076311 1.018582 -19.888515 0
M  V30 28 C 8.599612 6.211020 -12.598787 0 CFG=2
M  V30 29 C 9.192681 7.567570 -12.081954 0
M  V30 30 C 7.932374 2.087567 -17.136655 0 CFG=1
M  V30 31 C 7.149635 1.272656 -13.512741 0
M  V30 32 C 9.253527 4.766940 -8.851175 0
M  V30 33 C 7.347170 6.290448 -13.468864 0
M  V30 34 C 9.791022 6.732254 -10.970652 0 CFG=2
M  V30 35 C 6.805329 2.653712 -13.082060 0
M  V30 36 H 7.676782 6.346074 -10.691667 0
M  V30 37 H 6.471355 3.120314 -17.857252 0
M  V30 38 H 8.239679 6.569301 -8.515459 0
M  V30 39 H 10.793581 8.761345 -6.922307 0
M  V30 40 H 9.017347 1.369301 -14.473511 0
M  V30 41 H 7.870977 0.324029 -15.235791 0
M  V30 42 H 11.160253 1.573825 -20.466380 0
M  V30 43 H 11.008603 0.798088 -18.807298 0
M  V30 44 H 9.584227 9.198328 -9.286554 0
M  V30 45 H 6.059438 5.012248 -12.312395 0
M  V30 46 H 5.455564 5.368663 -13.895010 0
M  V30 47 H 9.389819 3.851902 -10.865811 0
M  V30 48 H 7.750222 4.060758 -10.291649 0
M  V30 49 H 11.139981 6.598882 -9.438327 0
M  V30 50 H 12.328195 8.625297 -8.864303 0
M  V30 51 H 8.624480 0.241587 -19.276689 0
M  V30 52 H 8.747094 1.032554 -20.926142 0
M  V30 53 H 9.360390 5.604747 -13.098203 0
M  V30 54 H 9.948690 8.048796 -12.691667 0
M  V30 55 H 8.445100 8.283357 -11.730749 0
M  V30 56 H 8.170964 1.027148 -17.200813 0
M  V30 57 H 7.688630 0.760136 -12.714476 0
M  V30 58 H 6.219515 0.725764 -13.674081 0
M  V30 59 H 10.234838 4.323925 -8.712398 0
M  V30 60 H 8.595359 4.262962 -8.142371 0
M  V30 61 H 6.792166 7.189344 -13.197927 0
M  V30 62 H 7.633365 6.449327 -14.507995 0
M  V30 63 H 10.634839 6.204565 -11.416363 0
M  V30 64 H 6.500018 2.763212 -12.052680 0
M  V30 END ATOM
M  V30 BEGIN BOND
M  V30 1 1 6 5 CFG=1
M  V30 2 1 7 6
M  V30 3 1 10 7
M  V30 4 1 12 4
M  V30 5 1 15 6
M  V30 6 1 16 8
M  V30 7 1 17 9
M  V30 8 2 18 11
M  V30 9 1 18 13
M  V30 10 1 19 7
M  V30 11 1 20 15
M  V30 12 1 20 18
M  V30 13 2 20 19
M  V30 14 1 21 9
M  V30 15 1 21 16
M  V30 16 2 22 21
M  V30 17 1 23 3
M  V30 18 1 23 4
M  V30 19 2 23 14
M  V30 20 1 24 1
M  V30 21 1 25 3
M  V30 22 1 25 12
M  V30 23 1 26 12
M  V30 24 1 27 7
M  V30 25 1 27 10
M  V30 26 1 28 1
M  V30 27 1 29 28
M  V30 28 1 30 2
M  V30 29 1 30 6
M  V30 30 1 30 16
M  V30 31 1 31 8
M  V30 32 1 32 3
M  V30 33 1 32 24
M  V30 34 1 33 17
M  V30 35 1 33 28
M  V30 36 1 34 1
M  V30 37 1 34 25
M  V30 38 1 34 29
M  V30 39 2 35 9
M  V30 40 1 35 31
M  V30 41 1 1 36 CFG=1
M  V30 42 1 37 2
M  V30 43 1 3 38 CFG=3
M  V30 44 1 39 4
M  V30 45 1 40 8
M  V30 46 1 41 8
M  V30 47 1 42 10
M  V30 48 1 43 10
M  V30 49 1 12 44 CFG=1
M  V30 50 1 45 17
M  V30 51 1 46 17
M  V30 52 1 47 24
M  V30 53 1 48 24
M  V30 54 1 25 49 CFG=1
M  V30 55 1 50 26
M  V30 56 1 51 27
M  V30 57 1 52 27
M  V30 58 1 28 53 CFG=3
M  V30 59 1 54 29
M  V30 60 1 55 29
M  V30 61 1 30 56 CFG=1
M  V30 62 1 57 31
M  V30 63 1 58 31
M  V30 64 1 59 32
M  V30 65 1 60 32
M  V30 66 1 61 33
M  V30 67 1 62 33
M  V30 68 1 34 63 CFG=3
M  V30 69 1 64 35
M  V30 END BOND
M  V30 END CTAB
M  END
>  <i_epik_Tot_Q>  (1) 
0

>  <i_epik_Tot_abs_Q>  (1) 
2

>  <i_i_glide_confnum>  (1) 
483

>  <i_i_glide_lignum>  (1) 
19

>  <i_i_glide_posenum>  (1) 
51

>  <i_i_glide_rotatable_bonds>  (1) 
8

>  <i_lp_mmshare_version>  (1) 
72125

>  <i_m_source_file_index>  (1) 
9

>  <i_f3d_flags>  (1) 
0

>  <num_sample>  (1) 
50

>  <b_lp_Chiralities_Consistent>  (1) 
1

>  <r_epik_Charging_Adjusted_Penalty>  (1) 
0.96578762746863478

>  <r_epik_Ionization_Penalty>  (1) 
0.96579538567658219

>  <r_epik_Ionization_Penalty_Charging>  (1) 
0

>  <r_epik_Ionization_Penalty_Neutral>  (1) 
0.96579538567658219

>  <r_epik_State_Penalty>  (1) 
0.96578762746863478

>  <r_glide_ring_energy>  (1) 
0

>  <r_i_docking_score>  (1) 
-2.6762198977938541

>  <r_i_glide_ecoul>  (1) 
0.3046636841948589

>  <r_i_glide_eff_state_penalty>  (1) 
0.96578762746863478

>  <r_i_glide_einternal>  (1) 
7.4854013187139188

>  <r_i_glide_emodel>  (1) 
-30.087049673130611

>  <r_i_glide_emodel_strain>  (1) 
1.1774903904724567

>  <r_i_glide_energy>  (1) 
-30.107381480951389

>  <r_i_glide_erotb>  (1) 
0.41978570389785574

>  <r_i_glide_esite>  (1) 
-0.061059129974782092

>  <r_i_glide_evdw>  (1) 
-30.41204516514625

>  <r_i_glide_gscore>  (1) 
-3.6420075252624891

>  <r_i_glide_gscore_strain>  (1) 
0

>  <r_i_glide_hbond>  (1) 
0

>  <r_i_glide_ligand_efficiency>  (1) 
-0.07646342565125297

>  <r_i_glide_ligand_efficiency_ln>  (1) 
-0.58748966306623762

>  <r_i_glide_ligand_efficiency_sa>  (1) 
-0.25011693560942366

>  <r_i_glide_lipo>  (1) 
-1.2103028427291054

>  <r_i_glide_metal>  (1) 
-0

>  <r_i_glide_rewards>  (1) 
-1.3155285508283734

>  <r_lp_Energy>  (1) 
65.271344999999997

>  <s_epik_Chemistry_Notes>  (1) 
This compound has an imine and may undergo hydrolysis. This compound contains an acetal/aminal-like group ( X-CH(R)-Y where X, Y are N, S, or O) that may be acid/base labile, releasing an aldehyde.

>  <s_epik_cmdline>  (1) 
J2VwaWtfcHl0aG9uJywgJy1waHQnLCAnMS4wJywgJy1waCcsICc3LjQnLCAnLXRuJywgJzgnLCAnLW1hJywgJzUwMCcsICctaW1hZScsICc8aW5maWxlLm1hZT4nLCAnLW9tYWUnLCAnPG91dGZpbGUubWFlPic=

>  <s_epik_input>  (1) 
W09IXVtDQEBIXTFbTkhdQyg9TylbQ0BIXShbQ0gyXVtDSDJdMilbQ0BIXTFbQ0BASF0oW0NASF0yMylbQ0gyXVtDQEBIXTNbQ0gyXVtDSDJdQzQ9W0NIXVtDSDJdW0NIMl1OKEM0PU8pW0NAQEhdKFtPSF0pW0NAQF0oRikoQzU2W0NIMl1bQ0gyXTYpT0MoPU41KVtOK10oPU8pW08tXQ==

>  <s_glide_docking_method>  (1) 
confgen

>  <s_i_glide_gridfile>  (1) 
gpcr_drd2_6luq_protein_autoprepared_prepared

>  <s_lp_Force_Field>  (1) 
S-OPLS

>  <s_lp_Variant>  (1) 
DiffSBDD_8_num_sample_50-2

>  <s_m_source_file>  (1) 
generated__ligand_DiffSBDD_2026-05-06_prepared.sdf

>  <GenAI_Model>  (1) 
DiffSBDD

>  <Protein>  (1) 
generic_title2

$$$$
DiffSBDD_24_num_sample_50
     RDKit          3D

  0  0  0  0  0  0  0  0  0  0999 V3000
M  V30 BEGIN CTAB
M  V30 COUNTS 84 90 0 0 1
M  V30 BEGIN ATOM
M  V30 1 N 9.838726 4.050011 -19.989681 0
M  V30 2 C 7.369861 3.421596 -12.618522 0
M  V30 3 O 5.465952 1.236895 -19.079865 0
M  V30 4 C 8.041331 1.912123 -21.688387 0 CFG=2
M  V30 5 C 13.997024 6.912146 -19.974060 0 CFG=1
M  V30 6 C 6.916577 5.643864 -11.329776 0 CFG=2
M  V30 7 C 7.248359 0.303700 -17.692763 0 CFG=2
M  V30 8 C 7.639215 2.174677 -19.377099 0
M  V30 9 N 13.939006 7.111676 -18.525607 0
M  V30 10 N 7.837904 0.691438 -15.347385 0
M  V30 11 C 8.576731 2.350878 -17.047505 0
M  V30 12 C 10.188027 2.796545 -20.698729 0
M  V30 13 C 12.579574 6.739310 -20.534380 0
M  V30 14 C 8.418502 2.831058 -18.479001 0
M  V30 15 C 15.293294 7.486491 -18.138878 0
M  V30 16 C 10.506596 5.267225 -20.486259 0
M  V30 17 C 13.412810 5.925924 -17.841135 0 CFG=2
M  V30 18 O 8.943691 5.145740 -18.201403 0
M  V30 19 C 5.434787 5.661562 -11.013687 0
M  V30 20 F 8.368312 -0.404849 -17.864928 0
M  V30 21 C 11.986333 5.649057 -18.367608 0
M  V30 22 C 5.834038 1.130590 -22.665518 0
M  V30 23 C 15.656622 8.660031 -19.052248 0 CFG=1
M  V30 24 C 4.575734 0.153962 -19.301296 0
M  V30 25 C 11.925366 5.496468 -19.904885 0 CFG=2
M  V30 26 C 9.375605 2.582260 -21.981617 0
M  V30 27 F 5.834822 6.824614 -13.128526 0
M  V30 28 C 7.288111 4.932314 -12.614068 0 CFG=2
M  V30 29 C 9.062060 4.106939 -18.852949 0
M  V30 30 C 7.119822 1.916364 -22.914045 0
M  V30 31 C 6.849862 0.902463 -19.065870 0 CFG=2
M  V30 32 C 7.464416 1.376621 -16.596339 0 CFG=1
M  V30 33 C 13.378449 6.126305 -16.312065 0
M  V30 34 S 14.864488 8.350029 -20.642485 0
M  V30 35 C 7.737666 1.354827 -14.045630 0 CFG=1
M  V30 36 O 7.432574 2.662086 -20.645101 0
M  V30 37 C 5.950020 5.629232 -12.441816 0 CFG=1
M  V30 38 Cl 15.035028 10.169295 -18.343856 0
M  V30 39 C 7.607126 2.870366 -14.021582 0
M  V30 40 C 6.651857 0.436381 -14.535428 0
M  V30 41 H 8.202566 3.131024 -11.977089 0
M  V30 42 H 6.460145 3.001983 -12.188406 0
M  V30 43 H 8.248046 0.878668 -21.409278 0
M  V30 44 H 14.597874 6.029158 -20.198806 0
M  V30 45 H 7.455861 6.568086 -11.134551 0
M  V30 46 H 6.509434 -0.425771 -17.362955 0
M  V30 47 H 9.555008 1.874927 -16.968390 0
M  V30 48 H 8.607737 3.235148 -16.420890 0
M  V30 49 H 10.183776 1.908966 -20.064800 0
M  V30 50 H 11.234256 2.880262 -20.992562 0
M  V30 51 H 11.985350 7.629812 -20.318931 0
M  V30 52 H 12.615464 6.639413 -21.620849 0
M  V30 53 H 15.348827 7.779469 -17.091667 0
M  V30 54 H 15.971689 6.645193 -18.295466 0
M  V30 55 H 10.578305 5.203181 -21.571775 0
M  V30 56 H 9.885530 6.145835 -20.302892 0
M  V30 57 H 14.050721 5.071170 -18.068681 0
M  V30 58 H 5.034419 4.743351 -10.590799 0
M  V30 59 H 5.006050 6.586312 -10.631110 0
M  V30 60 H 11.613845 4.746036 -17.884859 0
M  V30 61 H 11.324996 6.460661 -18.059355 0
M  V30 62 H 5.195272 1.136937 -23.549304 0
M  V30 63 H 5.263393 1.567995 -21.845082 0
M  V30 64 H 6.041648 0.090212 -22.410425 0
M  V30 65 H 16.734265 8.771517 -19.163717 0
M  V30 66 H 3.566072 0.546218 -19.418937 0
M  V30 67 H 4.560646 -0.541422 -18.462718 0
M  V30 68 H 4.822885 -0.392129 -20.211818 0
M  V30 69 H 12.535986 4.633944 -20.174154 0
M  V30 70 H 9.223265 3.529332 -22.500084 0
M  V30 71 H 9.942378 1.950031 -22.667002 0
M  V30 72 H 8.049401 5.429170 -13.213820 0
M  V30 73 H 6.872736 2.941928 -23.190798 0
M  V30 74 H 7.638705 1.483823 -23.770617 0
M  V30 75 H 7.032210 0.153569 -19.834745 0
M  V30 76 H 6.533864 1.935154 -16.486414 0
M  V30 77 H 12.870494 5.293604 -15.826763 0
M  V30 78 H 12.841740 7.037477 -16.042074 0
M  V30 79 H 14.374695 6.176218 -15.873129 0
M  V30 80 H 8.382865 0.957179 -13.263522 0
M  V30 81 H 8.544890 3.306395 -14.354316 0
M  V30 82 H 6.815159 3.203894 -14.691460 0
M  V30 83 H 5.700129 0.885693 -14.810592 0
M  V30 84 H 6.577195 -0.538998 -14.059722 0
M  V30 END ATOM
M  V30 BEGIN BOND
M  V30 1 1 9 5
M  V30 2 1 12 1
M  V30 3 1 13 5
M  V30 4 2 14 8
M  V30 5 1 14 11
M  V30 6 1 15 9
M  V30 7 1 16 1
M  V30 8 1 17 9
M  V30 9 1 19 6
M  V30 10 1 20 7
M  V30 11 1 21 17
M  V30 12 1 23 15
M  V30 13 1 24 3
M  V30 14 1 25 13
M  V30 15 1 25 16
M  V30 16 1 25 21
M  V30 17 1 26 4
M  V30 18 1 26 12
M  V30 19 1 28 2
M  V30 20 1 28 6
M  V30 21 1 29 1
M  V30 22 1 29 14
M  V30 23 2 29 18
M  V30 24 1 30 4
M  V30 25 1 30 22
M  V30 26 1 31 3
M  V30 27 1 31 7
M  V30 28 1 31 8
M  V30 29 1 32 7
M  V30 30 1 32 10
M  V30 31 1 32 11
M  V30 32 1 33 17
M  V30 33 1 34 5
M  V30 34 1 34 23
M  V30 35 1 35 10
M  V30 36 1 36 4
M  V30 37 1 36 8
M  V30 38 1 37 6
M  V30 39 1 37 19
M  V30 40 1 37 27 CFG=3
M  V30 41 1 37 28
M  V30 42 1 38 23
M  V30 43 1 39 2
M  V30 44 1 39 35
M  V30 45 1 40 10
M  V30 46 1 40 35
M  V30 47 1 41 2
M  V30 48 1 42 2
M  V30 49 1 4 43 CFG=1
M  V30 50 1 5 44 CFG=1
M  V30 51 1 6 45 CFG=3
M  V30 52 1 7 46 CFG=1
M  V30 53 1 47 11
M  V30 54 1 48 11
M  V30 55 1 49 12
M  V30 56 1 50 12
M  V30 57 1 51 13
M  V30 58 1 52 13
M  V30 59 1 53 15
M  V30 60 1 54 15
M  V30 61 1 55 16
M  V30 62 1 56 16
M  V30 63 1 17 57 CFG=1
M  V30 64 1 58 19
M  V30 65 1 59 19
M  V30 66 1 60 21
M  V30 67 1 61 21
M  V30 68 1 62 22
M  V30 69 1 63 22
M  V30 70 1 64 22
M  V30 71 1 23 65 CFG=3
M  V30 72 1 66 24
M  V30 73 1 67 24
M  V30 74 1 68 24
M  V30 75 1 25 69 CFG=1
M  V30 76 1 70 26
M  V30 77 1 71 26
M  V30 78 1 28 72 CFG=3
M  V30 79 1 73 30
M  V30 80 1 74 30
M  V30 81 1 31 75 CFG=3
M  V30 82 1 32 76 CFG=1
M  V30 83 1 77 33
M  V30 84 1 78 33
M  V30 85 1 79 33
M  V30 86 1 35 80 CFG=1
M  V30 87 1 81 39
M  V30 88 1 82 39
M  V30 89 1 83 40
M  V30 90 1 84 40
M  V30 END BOND
M  V30 END CTAB
M  END
>  <i_epik_Tot_Q>  (1) 
0

>  <i_epik_Tot_abs_Q>  (1) 
0

>  <i_i_glide_confnum>  (1) 
181

>  <i_i_glide_lignum>  (1) 
66

>  <i_i_glide_posenum>  (1) 
133

>  <i_i_glide_rotatable_bonds>  (1) 
8

>  <i_lp_mmshare_version>  (1) 
72125

>  <i_m_source_file_index>  (1) 
25

>  <i_f3d_flags>  (1) 
0

>  <num_sample>  (1) 
50

>  <b_lp_Chiralities_Consistent>  (1) 
1

>  <r_epik_Charging_Adjusted_Penalty>  (1) 
0.52172569417545378

>  <r_epik_Ionization_Penalty>  (1) 
0.52172594648505022

>  <r_epik_Ionization_Penalty_Charging>  (1) 
0

>  <r_epik_Ionization_Penalty_Neutral>  (1) 
0.52172594648505022

>  <r_epik_State_Penalty>  (1) 
0.52172569417545378

>  <r_glide_ring_energy>  (1) 
0

>  <r_i_docking_score>  (1) 
-2.6758938270322927

>  <r_i_glide_ecoul>  (1) 
0.017192101760827638

>  <r_i_glide_eff_state_penalty>  (1) 
0.52172569417545378

>  <r_i_glide_einternal>  (1) 
18.704631923772336

>  <r_i_glide_emodel>  (1) 
-30.690494224148132

>  <r_i_glide_emodel_strain>  (1) 
0

>  <r_i_glide_energy>  (1) 
-33.090493740876909

>  <r_i_glide_erotb>  (1) 
0.23292316522527595

>  <r_i_glide_esite>  (1) 
0

>  <r_i_glide_evdw>  (1) 
-33.107685842637736

>  <r_i_glide_gscore>  (1) 
-3.1976195212077467

>  <r_i_glide_gscore_strain>  (1) 
0

>  <r_i_glide_hbond>  (1) 
0

>  <r_i_glide_ligand_efficiency>  (1) 
-0.066897345675807324

>  <r_i_glide_ligand_efficiency_ln>  (1) 
-0.57068940526600942

>  <r_i_glide_ligand_efficiency_sa>  (1) 
-0.22878570400429377

>  <r_i_glide_lipo>  (1) 
-1.427467128347212

>  <r_i_glide_metal>  (1) 
-0

>  <r_i_glide_rewards>  (1) 
-0.35027008121804803

>  <r_lp_Energy>  (1) 
49.504489

>  <s_epik_Chemistry_Notes>  (1) 
This compound contains an acetal/aminal-like group ( X-CH(R)-Y where X, Y are N, S, or O) that may be acid/base labile, releasing an aldehyde.

>  <s_epik_cmdline>  (1) 
J2VwaWtfcHl0aG9uJywgJy1waHQnLCAnMS4wJywgJy1waCcsICc3LjQnLCAnLXRuJywgJzgnLCAnLW1hJywgJzUwMCcsICctaW1hZScsICc8aW5maWxlLm1hZT4nLCAnLW9tYWUnLCAnPG91dGZpbGUubWFlPic=

>  <s_epik_input>  (1) 
UzFbQ0BASF0oQ2wpW0NIMl1OKFtDQEhdMTIpW0NAQEhdKFtDSDNdKVtDSDJdW0NASF0oW0NIMl0yKVtDSDJdTihbQ0gyXVtDSDJdW0NAQEhdKE8zKVtDSDJdW0NIM10pQyg9TylDKD1DMzQpW0NIMl1bQ0BASF0oW0NASF0oRilbQ0BIXTRPW0NIM10pTjVbQ0BIXShbQ0gyXTUpW0NIMl1bQ0gyXVtDQEBIXTZbQ0hdKFtDSDJdNylDNjdG

>  <s_glide_docking_method>  (1) 
confgen

>  <s_i_glide_gridfile>  (1) 
gpcr_drd2_6luq_protein_autoprepared_prepared

>  <s_lp_Force_Field>  (1) 
S-OPLS

>  <s_lp_Variant>  (1) 
DiffSBDD_24_num_sample_50-3

>  <s_m_source_file>  (1) 
generated__ligand_DiffSBDD_2026-05-06_prepared.sdf

>  <GenAI_Model>  (1) 
DiffSBDD

>  <Protein>  (1) 
generic_title2

$$$$
DiffSBDD_47_num_sample_50
     RDKit          3D

  0  0  0  0  0  0  0  0  0  0999 V3000
M  V30 BEGIN CTAB
M  V30 COUNTS 61 63 0 0 1
M  V30 BEGIN ATOM
M  V30 1 C 5.130644 6.863831 -18.703392 0
M  V30 2 C 9.434851 4.575762 -10.884636 0
M  V30 3 O 9.994385 6.420373 -9.466972 0
M  V30 4 N 7.034850 4.201637 -17.673473 0
M  V30 5 C 5.976333 2.962674 -12.292178 0
M  V30 6 O 8.129920 4.752781 -18.525465 0
M  V30 7 N 6.097803 7.754995 -20.548440 0
M  V30 8 C 8.237696 4.258859 -15.331772 0
M  V30 9 C 9.375864 5.935599 -10.583268 0
M  V30 10 C 7.500836 1.618339 -13.833647 0
M  V30 11 O 8.790530 2.749871 -17.054079 0
M  V30 12 C 7.975257 6.321323 -12.547983 0
M  V30 13 C 8.057117 4.920141 -12.864797 0
M  V30 14 C 3.455217 7.765113 -16.980922 0
M  V30 15 O 8.634838 8.125025 -11.091649 0
M  V30 16 N 4.968928 7.641549 -19.810169 0
M  V30 17 F 7.834745 8.443267 -13.341202 0
M  V30 18 C 7.707073 3.498982 -16.586795 0 CFG=2
M  V30 19 C 7.119123 7.311940 -13.367408 0
M  V30 20 C 4.038221 6.569369 -17.725006 0
M  V30 21 C 8.817004 4.076439 -12.026994 0
M  V30 22 C 5.728623 7.427497 -12.707542 0
M  V30 23 N 7.011337 7.041387 -19.925808 0
M  V30 24 C 8.673445 6.806965 -11.412389 0
M  V30 25 C 8.452631 1.638053 -17.870906 0
M  V30 26 C 6.436407 6.483824 -18.775016 0
M  V30 27 C 6.679853 2.924977 -13.655072 0
M  V30 28 C 7.013664 7.224935 -14.867856 0
M  V30 29 C 7.238974 5.631151 -17.833957 0 CFG=1
M  V30 30 C 7.315186 4.298576 -14.066472 0 CFG=2
M  V30 31 H 9.969677 3.906541 -10.237043 0
M  V30 32 H 9.739567 7.323372 -9.332187 0
M  V30 33 H 6.507308 3.447287 -11.481429 0
M  V30 34 H 5.834837 1.939602 -11.948142 0
M  V30 35 H 5.040448 3.513438 -12.389398 0
M  V30 36 H 9.121386 3.769252 -14.993929 0
M  V30 37 H 8.696229 5.187786 -15.626182 0
M  V30 38 H 8.020842 1.312194 -12.928831 0
M  V30 39 H 8.236027 1.654659 -14.634936 0
M  V30 40 H 6.827069 0.792438 -14.067991 0
M  V30 41 H 2.675977 7.443699 -16.291847 0
M  V30 42 H 2.964195 8.436934 -17.682399 0
M  V30 43 H 4.216202 8.297037 -16.413554 0
M  V30 44 H 7.956762 8.169508 -10.396879 0
M  V30 45 H 6.990599 2.755247 -16.245295 0
M  V30 46 H 4.361643 5.807906 -17.014880 0
M  V30 47 H 3.199775 6.169985 -18.288334 0
M  V30 48 H 8.894466 3.032776 -12.242438 0
M  V30 49 H 5.254369 6.448457 -12.654377 0
M  V30 50 H 5.034855 8.067373 -13.253710 0
M  V30 51 H 5.800776 7.815914 -11.690914 0
M  V30 52 H 9.361806 1.110537 -18.154066 0
M  V30 53 H 7.955474 1.950428 -18.788989 0
M  V30 54 H 7.810692 0.929938 -17.346506 0
M  V30 55 H 4.112391 8.104796 -20.079228 0
M  V30 56 H 5.838552 2.787909 -14.313529 0
M  V30 57 H 6.284127 6.534032 -15.278875 0
M  V30 58 H 8.027506 6.969564 -15.104518 0
M  V30 59 H 6.774171 8.187376 -15.320245 0
M  V30 60 H 7.735308 6.218897 -17.084830 0
M  V30 61 H 6.413335 4.861992 -14.251060 0
M  V30 END ATOM
M  V30 BEGIN BOND
M  V30 1 1 6 4
M  V30 2 2 9 2
M  V30 3 1 9 3
M  V30 4 1 13 12
M  V30 5 1 16 1
M  V30 6 1 16 7
M  V30 7 1 18 4
M  V30 8 1 18 8
M  V30 9 1 18 11
M  V30 10 1 19 12
M  V30 11 1 19 17
M  V30 12 1 20 1
M  V30 13 1 20 14
M  V30 14 1 21 2
M  V30 15 2 21 13
M  V30 16 1 22 19
M  V30 17 2 23 7
M  V30 18 1 24 9
M  V30 19 2 24 12
M  V30 20 1 24 15
M  V30 21 1 25 11
M  V30 22 2 26 1
M  V30 23 1 26 23
M  V30 24 1 27 5
M  V30 25 1 27 10
M  V30 26 1 28 19
M  V30 27 1 29 4
M  V30 28 1 29 6
M  V30 29 1 29 26
M  V30 30 1 30 8
M  V30 31 1 30 13
M  V30 32 1 30 27
M  V30 33 1 31 2
M  V30 34 1 32 3
M  V30 35 1 33 5
M  V30 36 1 34 5
M  V30 37 1 35 5
M  V30 38 1 36 8
M  V30 39 1 37 8
M  V30 40 1 38 10
M  V30 41 1 39 10
M  V30 42 1 40 10
M  V30 43 1 41 14
M  V30 44 1 42 14
M  V30 45 1 43 14
M  V30 46 1 44 15
M  V30 47 1 18 45 CFG=1
M  V30 48 1 46 20
M  V30 49 1 47 20
M  V30 50 1 48 21
M  V30 51 1 49 22
M  V30 52 1 50 22
M  V30 53 1 51 22
M  V30 54 1 52 25
M  V30 55 1 53 25
M  V30 56 1 54 25
M  V30 57 1 55 16
M  V30 58 1 56 27
M  V30 59 1 57 28
M  V30 60 1 58 28
M  V30 61 1 59 28
M  V30 62 1 29 60 CFG=1
M  V30 63 1 30 61 CFG=3
M  V30 END BOND
M  V30 END CTAB
M  END
>  <i_epik_Tot_Q>  (1) 
0

>  <i_epik_Tot_abs_Q>  (1) 
0

>  <i_i_glide_confnum>  (1) 
47

>  <i_i_glide_lignum>  (1) 
116

>  <i_i_glide_posenum>  (1) 
104

>  <i_i_glide_rotatable_bonds>  (1) 
11

>  <i_lp_mmshare_version>  (1) 
72125

>  <i_m_source_file_index>  (1) 
48

>  <i_f3d_flags>  (1) 
0

>  <num_sample>  (1) 
50

>  <b_lp_Chiralities_Consistent>  (1) 
1

>  <r_epik_Charging_Adjusted_Penalty>  (1) 
0.83298032901439623

>  <r_epik_Ionization_Penalty>  (1) 
0.0039877577423364898

>  <r_epik_Ionization_Penalty_Charging>  (1) 
0

>  <r_epik_Ionization_Penalty_Neutral>  (1) 
0.0039877577423364898

>  <r_epik_State_Penalty>  (1) 
0.83298032901439623

>  <r_glide_ring_energy>  (1) 
0

>  <r_i_docking_score>  (1) 
-2.6617164079051081

>  <r_i_glide_ecoul>  (1) 
-8.6926655316703663

>  <r_i_glide_eff_state_penalty>  (1) 
0.83298032901439623

>  <r_i_glide_einternal>  (1) 
14.474522190030299

>  <r_i_glide_emodel>  (1) 
-10.322890564459179

>  <r_i_glide_emodel_strain>  (1) 
9.2622629474972982

>  <r_i_glide_energy>  (1) 
-19.295132850381957

>  <r_i_glide_erotb>  (1) 
0.55490112727109764

>  <r_i_glide_esite>  (1) 
-0.0024674955095430767

>  <r_i_glide_evdw>  (1) 
-10.602467318711591

>  <r_i_glide_gscore>  (1) 
-3.4946967369195043

>  <r_i_glide_gscore_strain>  (1) 
1.3155657368743245

>  <r_i_glide_hbond>  (1) 
-0.12248843096945188

>  <r_i_glide_ligand_efficiency>  (1) 
-0.088723880263503599

>  <r_i_glide_ligand_efficiency_ln>  (1) 
-0.60477096959916044

>  <r_i_glide_ligand_efficiency_sa>  (1) 
-0.27568572480911646

>  <r_i_glide_lipo>  (1) 
-2.1306511361408362

>  <r_i_glide_metal>  (1) 
-0

>  <r_i_glide_rewards>  (1) 
-1.275533342758961

>  <r_lp_Energy>  (1) 
29.114134

>  <r_lp_tautomer_probability>  (1) 
0.17382617382613486

>  <s_epik_Chemistry_Notes>  (1) 
This compound contains an acetal/aminal-like group ( X-CH(R)-Y where X, Y are N, S, or O) that may be acid/base labile, releasing an aldehyde. This compound has a N-S or N-O group and may undergo hydrolysis at high or low pH.

>  <s_epik_cmdline>  (1) 
J2VwaWtfcHl0aG9uJywgJy1waHQnLCAnMS4wJywgJy1waCcsICc3LjQnLCAnLXRuJywgJzgnLCAnLW1hJywgJzUwMCcsICctaW1hZScsICc8aW5maWxlLm1hZT4nLCAnLW9tYWUnLCAnPG91dGZpbGUubWFlPic=

>  <s_epik_input>  (1) 
W0NIM11bQ0gyXUMxPU5OPU5bQ0BIXTFbQ0BASF0yT04yW0NAQEhdKE9bQ0gzXSlbQ0gyXVtDQEBIXShbQ0hdKFtDSDNdKVtDSDNdKUMoQyhDKEYpKFtDSDNdKVtDSDNdKT1DM1tPSF0pPVtDSF1bQ0gyXUMzPU8=

>  <s_glide_docking_method>  (1) 
confgen

>  <s_i_glide_gridfile>  (1) 
gpcr_drd2_6luq_protein_autoprepared_prepared

>  <s_lp_Force_Field>  (1) 
S-OPLS

>  <s_lp_Variant>  (1) 
DiffSBDD_47_num_sample_50-3

>  <s_m_source_file>  (1) 
generated__ligand_DiffSBDD_2026-05-06_prepared.sdf

>  <GenAI_Model>  (1) 
DiffSBDD

>  <Protein>  (1) 
generic_title2

$$$$
DiffSBDD_47_num_sample_50
     RDKit          3D

  0  0  0  0  0  0  0  0  0  0999 V3000
M  V30 BEGIN CTAB
M  V30 COUNTS 61 63 0 0 1
M  V30 BEGIN ATOM
M  V30 1 C 6.432888 5.913935 -14.512555 0
M  V30 2 C 6.443339 4.357841 -19.191149 0
M  V30 3 O 7.389471 6.411152 -19.967328 0
M  V30 4 N 7.067015 2.882347 -15.190832 0
M  V30 5 C 8.760371 0.022398 -20.166402 0
M  V30 6 O 8.116278 3.764457 -15.803355 0
M  V30 7 N 6.916155 6.784987 -12.541587 0
M  V30 8 C 7.073482 0.837281 -16.685437 0
M  V30 9 C 7.559956 5.144944 -19.491669 0
M  V30 10 C 6.324384 -0.079397 -19.547466 0
M  V30 11 O 7.079312 0.695410 -14.366580 0
M  V30 12 C 9.059551 3.315273 -18.811268 0
M  V30 13 C 7.894827 2.513768 -18.485972 0
M  V30 14 C 6.007354 7.048739 -16.755782 0
M  V30 15 O 9.925550 5.442850 -19.604997 0
M  V30 16 N 6.196795 6.969303 -13.625293 0
M  V30 17 F 10.705234 1.506560 -18.317274 0
M  V30 18 C 7.546788 1.531513 -15.382712 0 CFG=2
M  V30 19 C 10.523761 2.779584 -18.631963 0
M  V30 20 C 5.741746 5.848672 -15.845354 0
M  V30 21 C 6.605221 3.058280 -18.691708 0
M  V30 22 C 11.252281 3.532495 -17.503525 0
M  V30 23 N 7.582040 5.622547 -12.735409 0
M  V30 24 C 8.858866 4.641415 -19.306940 0
M  V30 25 C 7.739765 0.790419 -13.114032 0
M  V30 26 C 7.314011 5.045523 -13.941471 0
M  V30 27 C 7.764817 -0.025071 -18.995360 0
M  V30 28 C 11.331547 2.815592 -19.951370 0
M  V30 29 C 7.913924 3.744908 -14.389917 0 CFG=1
M  V30 30 C 8.005524 1.077412 -17.912011 0 CFG=2
M  V30 31 H 5.450262 4.755958 -19.338521 0
M  V30 32 H 8.236299 6.802836 -20.130042 0
M  V30 33 H 8.707031 0.969644 -20.702972 0
M  V30 34 H 8.553560 -0.771207 -20.885100 0
M  V30 35 H 9.784182 -0.124407 -19.826998 0
M  V30 36 H 7.086614 -0.234994 -16.480789 0
M  V30 37 H 6.026308 1.079014 -16.859477 0
M  V30 38 H 6.084324 0.797400 -20.148253 0
M  V30 39 H 5.580522 -0.161440 -18.755630 0
M  V30 40 H 6.189818 -0.948800 -20.191621 0
M  V30 41 H 5.377624 7.002808 -17.644303 0
M  V30 42 H 7.034839 7.038746 -17.101503 0
M  V30 43 H 5.808842 7.997399 -16.255681 0
M  V30 44 H 10.756131 5.041991 -19.401306 0
M  V30 45 H 8.634839 1.506662 -15.339291 0
M  V30 46 H 4.667182 5.769327 -15.691352 0
M  V30 47 H 6.056746 4.969362 -16.394412 0
M  V30 48 H 5.731090 2.470860 -18.460017 0
M  V30 49 H 11.371986 4.595618 -17.702496 0
M  V30 50 H 12.249809 3.125225 -17.333857 0
M  V30 51 H 10.700235 3.444165 -16.570883 0
M  V30 52 H 7.333493 0.042311 -12.433617 0
M  V30 53 H 7.578498 1.763661 -12.657289 0
M  V30 54 H 8.811859 0.613279 -13.207472 0
M  V30 55 H 8.201882 5.245744 -12.032982 0
M  V30 56 H 7.931037 -0.984663 -18.503252 0
M  V30 57 H 11.531775 3.810834 -20.337526 0
M  V30 58 H 10.817639 2.260668 -20.736589 0
M  V30 59 H 12.308869 2.348666 -19.820347 0
M  V30 60 H 8.736855 3.373752 -13.785097 0
M  V30 61 H 8.944470 0.866353 -17.434501 0
M  V30 END ATOM
M  V30 BEGIN BOND
M  V30 1 1 6 4
M  V30 2 2 9 2
M  V30 3 1 9 3
M  V30 4 1 13 12
M  V30 5 1 16 1
M  V30 6 2 16 7
M  V30 7 1 18 4
M  V30 8 1 18 8
M  V30 9 1 18 11
M  V30 10 1 19 12
M  V30 11 1 19 17
M  V30 12 1 20 1
M  V30 13 1 20 14
M  V30 14 1 21 2
M  V30 15 2 21 13
M  V30 16 1 22 19
M  V30 17 1 23 7
M  V30 18 1 24 9
M  V30 19 2 24 12
M  V30 20 1 24 15
M  V30 21 1 25 11
M  V30 22 2 26 1
M  V30 23 1 26 23
M  V30 24 1 27 5
M  V30 25 1 27 10
M  V30 26 1 28 19
M  V30 27 1 29 4
M  V30 28 1 29 6
M  V30 29 1 29 26
M  V30 30 1 30 8
M  V30 31 1 30 13
M  V30 32 1 30 27
M  V30 33 1 31 2
M  V30 34 1 32 3
M  V30 35 1 33 5
M  V30 36 1 34 5
M  V30 37 1 35 5
M  V30 38 1 36 8
M  V30 39 1 37 8
M  V30 40 1 38 10
M  V30 41 1 39 10
M  V30 42 1 40 10
M  V30 43 1 41 14
M  V30 44 1 42 14
M  V30 45 1 43 14
M  V30 46 1 44 15
M  V30 47 1 18 45 CFG=3
M  V30 48 1 46 20
M  V30 49 1 47 20
M  V30 50 1 48 21
M  V30 51 1 49 22
M  V30 52 1 50 22
M  V30 53 1 51 22
M  V30 54 1 52 25
M  V30 55 1 53 25
M  V30 56 1 54 25
M  V30 57 1 55 23
M  V30 58 1 56 27
M  V30 59 1 57 28
M  V30 60 1 58 28
M  V30 61 1 59 28
M  V30 62 1 29 60 CFG=1
M  V30 63 1 30 61 CFG=1
M  V30 END BOND
M  V30 END CTAB
M  END
>  <i_epik_Tot_Q>  (1) 
0

>  <i_epik_Tot_abs_Q>  (1) 
0

>  <i_i_glide_confnum>  (1) 
35

>  <i_i_glide_lignum>  (1) 
115

>  <i_i_glide_posenum>  (1) 
30

>  <i_i_glide_rotatable_bonds>  (1) 
11

>  <i_lp_mmshare_version>  (1) 
72125

>  <i_m_source_file_index>  (1) 
48

>  <i_f3d_flags>  (1) 
0

>  <num_sample>  (1) 
50

>  <b_lp_Chiralities_Consistent>  (1) 
1

>  <r_epik_Charging_Adjusted_Penalty>  (1) 
0.72670062587857698

>  <r_epik_Ionization_Penalty>  (1) 
0.0032694115883081043

>  <r_epik_Ionization_Penalty_Charging>  (1) 
0

>  <r_epik_Ionization_Penalty_Neutral>  (1) 
0.0032694115883081043

>  <r_epik_State_Penalty>  (1) 
0.72670062587857698

>  <r_glide_ring_energy>  (1) 
0

>  <r_i_docking_score>  (1) 
-2.6432686279563922

>  <r_i_glide_ecoul>  (1) 
-1.0293305244507633

>  <r_i_glide_eff_state_penalty>  (1) 
0.72670062587857698

>  <r_i_glide_einternal>  (1) 
12.929250748976791

>  <r_i_glide_emodel>  (1) 
-27.437371644681466

>  <r_i_glide_emodel_strain>  (1) 
0.2421516898704752

>  <r_i_glide_energy>  (1) 
-25.910965733652191

>  <r_i_glide_erotb>  (1) 
0.55490112727109764

>  <r_i_glide_esite>  (1) 
-0.049014348852670343

>  <r_i_glide_evdw>  (1) 
-24.881635209201427

>  <r_i_glide_gscore>  (1) 
-3.3699692538349693

>  <r_i_glide_gscore_strain>  (1) 
0

>  <r_i_glide_hbond>  (1) 
0

>  <r_i_glide_ligand_efficiency>  (1) 
-0.088108954265213077

>  <r_i_glide_ligand_efficiency_ln>  (1) 
-0.60057943299015037

>  <r_i_glide_ligand_efficiency_sa>  (1) 
-0.27377500675847199

>  <r_i_glide_lipo>  (1) 
-1.2570540799676011

>  <r_i_glide_metal>  (1) 
-0

>  <r_i_glide_rewards>  (1) 
-1.2203206131581095

>  <r_lp_Energy>  (1) 
27.508982

>  <r_lp_tautomer_probability>  (1) 
0.17382617382613486

>  <s_epik_Chemistry_Notes>  (1) 
This compound contains an acetal/aminal-like group ( X-CH(R)-Y where X, Y are N, S, or O) that may be acid/base labile, releasing an aldehyde. This compound has a N-S or N-O group and may undergo hydrolysis at high or low pH.

>  <s_epik_cmdline>  (1) 
J2VwaWtfcHl0aG9uJywgJy1waHQnLCAnMS4wJywgJy1waCcsICc3LjQnLCAnLXRuJywgJzgnLCAnLW1hJywgJzUwMCcsICctaW1hZScsICc8aW5maWxlLm1hZT4nLCAnLW9tYWUnLCAnPG91dGZpbGUubWFlPic=

>  <s_epik_input>  (1) 
W0NIM11bQ0gyXUMxPU5OPU5bQ0BIXTFbQ0BASF0yT04yW0NAQEhdKE9bQ0gzXSlbQ0gyXVtDQEBIXShbQ0hdKFtDSDNdKVtDSDNdKUMoQyhDKEYpKFtDSDNdKVtDSDNdKT1DM1tPSF0pPVtDSF1bQ0gyXUMzPU8=

>  <s_glide_docking_method>  (1) 
confgen

>  <s_i_glide_gridfile>  (1) 
gpcr_drd2_6luq_protein_autoprepared_prepared

>  <s_lp_Force_Field>  (1) 
S-OPLS

>  <s_lp_Variant>  (1) 
DiffSBDD_47_num_sample_50-2

>  <s_m_source_file>  (1) 
generated__ligand_DiffSBDD_2026-05-06_prepared.sdf

>  <GenAI_Model>  (1) 
DiffSBDD

>  <Protein>  (1) 
generic_title2

$$$$
DiffSBDD_10_num_sample_50
     RDKit          3D

  0  0  0  0  0  0  0  0  0  0999 V3000
M  V30 BEGIN CTAB
M  V30 COUNTS 73 74 0 0 1
M  V30 BEGIN ATOM
M  V30 1 C 7.018880 6.017307 -18.380449 0 CFG=2
M  V30 2 C 10.362322 7.267751 -7.382698 0
M  V30 3 C 10.989210 6.778730 -12.018763 0
M  V30 4 C 7.569088 4.916533 -12.471478 0 CFG=1
M  V30 5 C 6.403948 5.833914 -16.969832 0 CFG=2
M  V30 6 N 9.434816 8.969286 -8.800114 0
M  V30 7 N 8.112473 3.986207 -14.570790 0
M  V30 8 C 7.081537 4.936863 -14.841081 0 CFG=1
M  V30 9 S 5.932021 6.878922 -19.675747 0
M  V30 10 C 10.167140 8.021236 -6.086157 0
M  V30 11 S 5.388988 5.240721 -20.907346 0 CHG=-1
M  V30 12 C 9.043275 5.551225 -19.888212 0
M  V30 13 O 12.591205 8.116977 -2.725600 0
M  V30 14 O 4.684981 7.400298 -19.098682 0
M  V30 15 C 6.475040 4.673111 -17.943478 0 CFG=2
M  V30 16 C 12.158685 8.402434 -10.378740 0
M  V30 17 C 7.951101 3.609709 -13.179287 0 CFG=1
M  V30 18 N 11.434936 9.217808 -4.282143 0 CHG=1
M  V30 19 N 10.215228 7.027200 -9.736995 0
M  V30 20 C 11.507811 8.238332 -5.386468 0
M  V30 21 C 7.118085 7.240948 -13.645251 0
M  V30 22 C 8.511129 6.245258 -18.625808 0
M  V30 23 C 5.072044 6.407876 -16.496519 0
M  V30 24 C 8.712038 5.609813 -11.680628 0
M  V30 25 C 11.043211 7.369384 -10.641446 0
M  V30 26 O 7.464823 3.727788 -17.583997 0
M  V30 27 C 10.015365 7.749101 -8.585140 0
M  V30 28 O 6.769026 7.768934 -20.494991 0
M  V30 29 F 9.039212 3.025411 -12.691813 0
M  V30 30 N 12.946408 8.169408 -9.160516 0 CHG=1
M  V30 31 C 12.632543 9.338106 -3.430864 0
M  V30 32 C 6.807625 5.735118 -13.544753 0 CFG=2
M  V30 33 O 7.391533 5.774587 -15.923075 0
M  V30 34 C 9.967316 5.998684 -12.475994 0
M  V30 35 H 10.810251 6.285133 -7.308771 0
M  V30 36 H 11.827097 7.011745 -12.659721 0
M  V30 37 H 6.839908 4.648083 -11.705490 0
M  V30 38 H 9.048853 9.470936 -8.015184 0
M  V30 39 H 8.051730 3.174609 -15.169925 0
M  V30 40 H 6.194746 4.351592 -15.086292 0
M  V30 41 H 9.485233 7.432499 -5.477656 0
M  V30 42 H 9.671865 8.971028 -6.269106 0
M  V30 43 H 10.108861 5.739854 -20.015812 0
M  V30 44 H 8.904298 4.472467 -19.829247 0
M  V30 45 H 8.535153 5.895156 -20.788515 0
M  V30 46 H 13.471899 7.865651 -2.487770 0
M  V30 47 H 5.571154 4.260797 -18.381687 0
M  V30 48 H 12.879336 8.415874 -11.195016 0
M  V30 49 H 11.720684 9.392342 -10.291715 0
M  V30 50 H 7.141221 2.883613 -13.098980 0
M  V30 51 H 10.682649 8.936038 -3.673402 0
M  V30 52 H 12.234851 8.604182 -6.108929 0
M  V30 53 H 11.834834 7.266070 -5.018552 0
M  V30 54 H 8.158539 7.426021 -13.891210 0
M  V30 55 H 6.507754 7.725492 -14.406715 0
M  V30 56 H 6.906327 7.742583 -12.701035 0
M  V30 57 H 8.688993 7.317826 -18.693035 0
M  V30 58 H 9.085681 5.898835 -17.766862 0
M  V30 59 H 4.253548 6.073248 -17.131966 0
M  V30 60 H 4.823160 6.081846 -15.490846 0
M  V30 61 H 5.107916 7.497361 -16.498607 0
M  V30 62 H 9.019722 4.937080 -10.878347 0
M  V30 63 H 8.280794 6.491936 -11.206579 0
M  V30 64 H 8.121828 4.208897 -17.099047 0
M  V30 65 H 13.628595 8.912103 -9.071681 0
M  V30 66 H 12.311635 8.172488 -8.375036 0
M  V30 67 H 12.533854 10.169301 -2.731593 0
M  V30 68 H 13.531730 9.454326 -4.032551 0
M  V30 69 H 5.738159 5.640457 -13.347097 0
M  V30 70 H 10.022959 5.613382 -13.484086 0
M  V30 71 H 8.940161 9.120823 -9.670923 0
M  V30 72 H 11.214142 10.124451 -4.668098 0
M  V30 73 H 13.407679 7.275896 -9.223286 0
M  V30 END ATOM
M  V30 BEGIN BOND
M  V30 1 1 5 1
M  V30 2 1 8 7
M  V30 3 1 9 1
M  V30 4 1 10 2
M  V30 5 1 11 9
M  V30 6 2 14 9
M  V30 7 1 15 1
M  V30 8 1 15 5
M  V30 9 1 17 4
M  V30 10 1 17 7
M  V30 11 1 20 10
M  V30 12 1 20 18
M  V30 13 1 1 22 CFG=1
M  V30 14 1 22 12
M  V30 15 1 23 5
M  V30 16 1 24 4
M  V30 17 1 25 3
M  V30 18 1 25 16
M  V30 19 2 25 19
M  V30 20 1 26 15
M  V30 21 2 27 2
M  V30 22 1 27 6
M  V30 23 1 27 19
M  V30 24 2 28 9
M  V30 25 1 29 17
M  V30 26 1 30 16
M  V30 27 1 31 13
M  V30 28 1 31 18
M  V30 29 1 32 4
M  V30 30 1 32 8
M  V30 31 1 32 21
M  V30 32 1 5 33 CFG=1
M  V30 33 1 33 8
M  V30 34 2 34 3
M  V30 35 1 34 24
M  V30 36 1 35 2
M  V30 37 1 36 3
M  V30 38 1 4 37 CFG=1
M  V30 39 1 38 6
M  V30 40 1 39 7
M  V30 41 1 8 40 CFG=3
M  V30 42 1 41 10
M  V30 43 1 42 10
M  V30 44 1 43 12
M  V30 45 1 44 12
M  V30 46 1 45 12
M  V30 47 1 46 13
M  V30 48 1 15 47 CFG=3
M  V30 49 1 48 16
M  V30 50 1 49 16
M  V30 51 1 17 50 CFG=3
M  V30 52 1 51 18
M  V30 53 1 52 20
M  V30 54 1 53 20
M  V30 55 1 54 21
M  V30 56 1 55 21
M  V30 57 1 56 21
M  V30 58 1 57 22
M  V30 59 1 58 22
M  V30 60 1 59 23
M  V30 61 1 60 23
M  V30 62 1 61 23
M  V30 63 1 62 24
M  V30 64 1 63 24
M  V30 65 1 64 26
M  V30 66 1 65 30
M  V30 67 1 66 30
M  V30 68 1 67 31
M  V30 69 1 68 31
M  V30 70 1 32 69 CFG=1
M  V30 71 1 70 34
M  V30 72 1 71 6
M  V30 73 1 72 18
M  V30 74 1 73 30
M  V30 END BOND
M  V30 END CTAB
M  END
>  <i_epik_Tot_Q>  (1) 
1

>  <i_epik_Tot_abs_Q>  (1) 
3

>  <i_i_glide_confnum>  (1) 
2768

>  <i_i_glide_lignum>  (1) 
31

>  <i_i_glide_posenum>  (1) 
104

>  <i_i_glide_rotatable_bonds>  (1) 
15

>  <i_lp_mmshare_version>  (1) 
72125

>  <i_m_source_file_index>  (1) 
11

>  <i_f3d_flags>  (1) 
0

>  <num_sample>  (1) 
50

>  <b_lp_Chiralities_Consistent>  (1) 
1

>  <r_epik_Charging_Adjusted_Penalty>  (1) 
2.168687317063887

>  <r_epik_Ionization_Penalty>  (1) 
1.1047352072338965

>  <r_epik_Ionization_Penalty_Charging>  (1) 
1.0999234457570315

>  <r_epik_Ionization_Penalty_Neutral>  (1) 
0.0048117614768649203

>  <r_epik_State_Penalty>  (1) 
1.0687638713068555

>  <r_glide_ring_energy>  (1) 
0

>  <r_i_docking_score>  (1) 
-2.6339814499054945

>  <r_i_glide_ecoul>  (1) 
4.0635357095979225

>  <r_i_glide_eff_state_penalty>  (1) 
1.0687638713068555

>  <r_i_glide_einternal>  (1) 
18.618701265170852

>  <r_i_glide_emodel>  (1) 
-28.461671890732738

>  <r_i_glide_emodel_strain>  (1) 
1.95632982115103

>  <r_i_glide_energy>  (1) 
-26.194227660686941

>  <r_i_glide_erotb>  (1) 
0.82219216958862984

>  <r_i_glide_esite>  (1) 
-0.10054898293356769

>  <r_i_glide_evdw>  (1) 
-30.257763370284863

>  <r_i_glide_gscore>  (1) 
-3.7027453212123498

>  <r_i_glide_gscore_strain>  (1) 
0

>  <r_i_glide_hbond>  (1) 
-0.0024165638588439205

>  <r_i_glide_ligand_efficiency>  (1) 
-0.077470042644279258

>  <r_i_glide_ligand_efficiency_ln>  (1) 
-0.58192038296128834

>  <r_i_glide_ligand_efficiency_sa>  (1) 
-0.25097286439587696

>  <r_i_glide_lipo>  (1) 
-1.9394077605604014

>  <r_i_glide_metal>  (1) 
-0

>  <r_i_glide_rewards>  (1) 
-1.5792063713736115

>  <r_lp_Energy>  (1) 
32.715631999999999

>  <s_epik_Chemistry_Notes>  (1) 
This compound has an imine and may undergo hydrolysis. This compound contains an acetal/aminal-like group ( X-CH(R)-Y where X, Y are N, S, or O) that may be acid/base labile, releasing an aldehyde.

>  <s_epik_cmdline>  (1) 
J2VwaWtfcHl0aG9uJywgJy1waHQnLCAnMS4wJywgJy1waCcsICc3LjQnLCAnLXRuJywgJzgnLCAnLW1hJywgJzUwMCcsICctaW1hZScsICc8aW5maWxlLm1hZT4nLCAnLW9tYWUnLCAnPG91dGZpbGUubWFlPic=

>  <s_epik_input>  (1) 
W1NIXVMoPU8pKD1PKVtDQEBdMShbQ0gyXVtDSDNdKVtDQEBdKFtDSDNdKShbQ0BASF0xW09IXSlPW0NASF0oW0NAQEhdMltDSDNdKVtOSF1bQ0BASF0oRilbQ0BIXTJbQ0gyXS9bQ0hdPVtDSF1cQyhbQ0gyXVtOSDJdKT1OXEMoPU5cW0hdKVxbQ0gyXVtDSDJdW0NIMl1bTkhdW0NIMl1bT0hd

>  <s_glide_docking_method>  (1) 
confgen

>  <s_i_glide_gridfile>  (1) 
gpcr_drd2_6luq_protein_autoprepared_prepared

>  <s_lp_Force_Field>  (1) 
S-OPLS

>  <s_lp_Variant>  (1) 
DiffSBDD_10_num_sample_50-11

>  <s_m_source_file>  (1) 
generated__ligand_DiffSBDD_2026-05-06_prepared.sdf

>  <GenAI_Model>  (1) 
DiffSBDD

>  <Protein>  (1) 
generic_title2

$$$$
DiffSBDD_19_num_sample_50
     RDKit          3D

  0  0  0  0  0  0  0  0  0  0999 V3000
M  V30 BEGIN CTAB
M  V30 COUNTS 77 82 0 0 1
M  V30 BEGIN ATOM
M  V30 1 C 7.488671 5.995357 -12.724071 0 CFG=1
M  V30 2 C 11.735953 5.316766 -16.729023 0
M  V30 3 O 5.434869 7.025389 -13.363607 0
M  V30 4 C 12.398795 4.356066 -17.375465 0
M  V30 5 C 7.693446 3.106671 -15.897407 0
M  V30 6 C 7.683182 1.832527 -16.184358 0
M  V30 7 C 10.234277 6.389165 -10.795433 0 CFG=2
M  V30 8 O 14.434129 5.383507 -17.012714 0 CHG=-1
M  V30 9 C 6.624036 3.748394 -12.467566 0 CFG=1
M  V30 10 C 9.637528 5.057802 -10.188253 0 CFG=1
M  V30 11 O 8.313833 3.951929 -16.649563 0
M  V30 12 O 10.285627 0.827838 -18.591109 0 CHG=-1
M  V30 13 C 11.730580 3.146564 -17.998356 0
M  V30 14 C 5.995319 6.114887 -12.448383 0 CFG=1
M  V30 15 C 8.224194 7.265987 -12.273409 0
M  V30 16 C 9.409044 8.019991 -6.584622 0
M  V30 17 C 9.616013 3.938537 -16.883134 0
M  V30 18 C 9.711487 4.973192 -8.638589 0
M  V30 19 N 13.847781 4.426291 -17.512727 0 CHG=1
M  V30 20 C 10.208273 7.105190 -7.532083 0
M  V30 21 C 9.674282 1.621002 -17.839188 0
M  V30 22 C 10.277196 2.912182 -17.527766 0
M  V30 23 C 11.287648 6.489377 -6.605079 0
M  V30 24 O 10.723932 6.171495 -12.111416 0
M  V30 25 C 11.347146 7.118630 -9.934468 0
M  V30 26 O 9.252450 6.125784 -7.943433 0
M  V30 27 C 9.055106 7.321615 -10.960008 0 CFG=2
M  V30 28 C 7.883492 4.629559 -12.152524 0 CFG=2
M  V30 29 C 10.245784 5.295042 -16.551916 0
M  V30 30 O 6.965338 3.631755 -14.856711 0
M  V30 31 C 9.962494 9.027316 -9.338008 0
M  V30 32 C 5.434352 4.709373 -12.625890 0
M  V30 33 C 9.341500 8.742566 -10.706590 0
M  V30 34 C 8.175963 4.716002 -10.638407 0
M  V30 35 C 10.819115 7.912010 -8.735597 0 CFG=1
M  V30 36 C 6.750190 2.822822 -13.700372 0
M  V30 37 O 14.417226 3.525424 -18.122155 0
M  V30 38 O 9.030444 4.113078 -12.802186 0
M  V30 39 C 8.432922 1.180325 -17.254404 0
M  V30 40 H 7.605273 5.927228 -13.808065 0
M  V30 41 H 12.264921 6.157169 -16.305437 0
M  V30 42 H 4.537911 7.195070 -13.104953 0
M  V30 43 H 7.067801 1.192487 -15.571636 0
M  V30 44 H 6.386206 3.102616 -11.626293 0
M  V30 45 H 10.234223 4.224000 -10.549605 0
M  V30 46 H 11.745974 3.246482 -19.083729 0
M  V30 47 H 12.311194 2.259613 -17.741177 0
M  V30 48 H 5.820312 6.465745 -11.428848 0
M  V30 49 H 8.866651 7.573544 -13.091478 0
M  V30 50 H 7.484129 8.066927 -12.238484 0
M  V30 51 H 9.967163 8.919324 -6.324938 0
M  V30 52 H 9.182817 7.499791 -5.659196 0
M  V30 53 H 8.447409 8.317578 -6.996831 0
M  V30 54 H 9.062911 4.169362 -8.296707 0
M  V30 55 H 10.685212 4.659584 -8.291653 0
M  V30 56 H 11.834696 7.278798 -6.095169 0
M  V30 57 H 12.025266 5.865292 -7.091932 0
M  V30 58 H 10.829173 5.874731 -5.829554 0
M  V30 59 H 10.878503 7.011443 -12.515454 0
M  V30 60 H 12.183658 6.569327 -9.563680 0
M  V30 61 H 11.850210 7.830856 -10.590546 0
M  V30 62 H 8.634803 7.101684 -10.020172 0
M  V30 63 H 9.805209 6.063638 -17.186431 0
M  V30 64 H 10.007976 5.542913 -15.516906 0
M  V30 65 H 10.633844 9.867081 -9.491661 0
M  V30 66 H 9.177489 9.368848 -8.674984 0
M  V30 67 H 4.980665 4.601549 -13.612715 0
M  V30 68 H 4.652362 4.505781 -11.894568 0
M  V30 69 H 10.011262 8.969288 -11.522153 0
M  V30 70 H 8.455246 9.369287 -10.817869 0
M  V30 71 H 7.927854 3.769300 -10.220960 0
M  V30 72 H 7.445526 5.360229 -10.149500 0
M  V30 73 H 11.680327 8.424704 -8.304293 0
M  V30 74 H 7.564114 2.114009 -13.531955 0
M  V30 75 H 5.841053 2.235692 -13.828311 0
M  V30 76 H 9.742936 4.734542 -12.672336 0
M  V30 77 H 8.098461 0.188768 -17.522139 0
M  V30 END ATOM
M  V30 BEGIN BOND
M  V30 1 2 4 2
M  V30 2 2 6 5
M  V30 3 1 10 7
M  V30 4 1 11 5
M  V30 5 1 13 4
M  V30 6 1 14 1
M  V30 7 1 14 3
M  V30 8 1 15 1
M  V30 9 1 17 11
M  V30 10 1 18 10
M  V30 11 1 19 4
M  V30 12 1 19 8
M  V30 13 1 20 16
M  V30 14 1 21 12
M  V30 15 1 22 13
M  V30 16 2 22 17
M  V30 17 1 22 21
M  V30 18 1 23 20
M  V30 19 1 7 24 CFG=3
M  V30 20 1 25 7
M  V30 21 1 26 18
M  V30 22 1 26 20
M  V30 23 1 27 7
M  V30 24 1 27 15
M  V30 25 1 28 1
M  V30 26 1 28 9
M  V30 27 1 29 2
M  V30 28 1 29 17
M  V30 29 1 30 5
M  V30 30 1 32 9
M  V30 31 1 32 14
M  V30 32 1 33 27
M  V30 33 1 33 31
M  V30 34 1 34 10
M  V30 35 1 34 28
M  V30 36 1 35 20
M  V30 37 1 35 25
M  V30 38 1 35 31
M  V30 39 1 36 9
M  V30 40 1 36 30
M  V30 41 2 37 19
M  V30 42 1 28 38 CFG=3
M  V30 43 1 39 6
M  V30 44 2 39 21
M  V30 45 1 1 40 CFG=3
M  V30 46 1 41 2
M  V30 47 1 42 3
M  V30 48 1 43 6
M  V30 49 1 9 44 CFG=1
M  V30 50 1 10 45 CFG=3
M  V30 51 1 46 13
M  V30 52 1 47 13
M  V30 53 1 14 48 CFG=1
M  V30 54 1 49 15
M  V30 55 1 50 15
M  V30 56 1 51 16
M  V30 57 1 52 16
M  V30 58 1 53 16
M  V30 59 1 54 18
M  V30 60 1 55 18
M  V30 61 1 56 23
M  V30 62 1 57 23
M  V30 63 1 58 23
M  V30 64 1 59 24
M  V30 65 1 60 25
M  V30 66 1 61 25
M  V30 67 1 27 62 CFG=1
M  V30 68 1 63 29
M  V30 69 1 64 29
M  V30 70 1 65 31
M  V30 71 1 66 31
M  V30 72 1 67 32
M  V30 73 1 68 32
M  V30 74 1 69 33
M  V30 75 1 70 33
M  V30 76 1 71 34
M  V30 77 1 72 34
M  V30 78 1 35 73 CFG=1
M  V30 79 1 74 36
M  V30 80 1 75 36
M  V30 81 1 76 38
M  V30 82 1 77 39
M  V30 END BOND
M  V30 END CTAB
M  END
>  <i_epik_Tot_Q>  (1) 
-1

>  <i_epik_Tot_abs_Q>  (1) 
3

>  <i_i_glide_confnum>  (1) 
11

>  <i_i_glide_lignum>  (1) 
55

>  <i_i_glide_posenum>  (1) 
134

>  <i_i_glide_rotatable_bonds>  (1) 
7

>  <i_lp_mmshare_version>  (1) 
72125

>  <i_m_source_file_index>  (1) 
20

>  <i_f3d_flags>  (1) 
0

>  <num_sample>  (1) 
50

>  <b_lp_Chiralities_Consistent>  (1) 
1

>  <r_epik_Charging_Adjusted_Penalty>  (1) 
0.37497455050254402

>  <r_epik_Ionization_Penalty>  (1) 
0.18748815805699803

>  <r_epik_Ionization_Penalty_Charging>  (1) 
0.18748727525127204

>  <r_epik_Ionization_Penalty_Neutral>  (1) 
8.8280572598136269e-07

>  <r_epik_State_Penalty>  (1) 
0.18748727525127201

>  <r_glide_ring_energy>  (1) 
0

>  <r_i_docking_score>  (1) 
-2.6017829506654895

>  <r_i_glide_ecoul>  (1) 
0.39453803231486395

>  <r_i_glide_eff_state_penalty>  (1) 
0.18748727525127201

>  <r_i_glide_einternal>  (1) 
4.8757756487693689

>  <r_i_glide_emodel>  (1) 
-10.114282614094066

>  <r_i_glide_emodel_strain>  (1) 
1.3193596058133892

>  <r_i_glide_energy>  (1) 
-11.122657862227891

>  <r_i_glide_erotb>  (1) 
0.20935287492175977

>  <r_i_glide_esite>  (1) 
-0.00028335711865025616

>  <r_i_glide_evdw>  (1) 
-11.517195894542755

>  <r_i_glide_gscore>  (1) 
-2.7892702259167614

>  <r_i_glide_gscore_strain>  (1) 
0

>  <r_i_glide_hbond>  (1) 
0

>  <r_i_glide_ligand_efficiency>  (1) 
-0.06671238335039717

>  <r_i_glide_ligand_efficiency_ln>  (1) 
-0.55789612062376082

>  <r_i_glide_ligand_efficiency_sa>  (1) 
-0.22623579780861466

>  <r_i_glide_lipo>  (1) 
-1.6441475006790671

>  <r_i_glide_metal>  (1) 
-0

>  <r_i_glide_rewards>  (1) 
-0.83751315316089592

>  <r_lp_Energy>  (1) 
69.26473

>  <s_epik_cmdline>  (1) 
J2VwaWtfcHl0aG9uJywgJy1waHQnLCAnMS4wJywgJy1waCcsICc3LjQnLCAnLXRuJywgJzgnLCAnLW1hJywgJzUwMCcsICctaW1hZScsICc8aW5maWxlLm1hZT4nLCAnLW9tYWUnLCAnPG91dGZpbGUubWFlPic=

>  <s_epik_input>  (1) 
W09IXVtDQEBdMTJbQ0BIXTNbQ0gyXU9DKFtDSDNdKShbQ0gzXSlbQ0BASF0oW0NIMl0xKVtDSDJdW0NIMl1bQ0BIXTJbQ0gyXVtDQEhdNFtDQF0oW0NIMl0zKShbT0hdKVtDQEBIXShbQ0gyXVtDQEBIXTRbT0hdKVtDSDJdT0MoTzUpPVtDSF1bQ0hdPUMoW09IXSlDKD1DNTYpW0NIMl1DKFtOK10oW08tXSk9Tyk9W0NIXVtDSDJdNg==

>  <s_glide_docking_method>  (1) 
confgen

>  <s_i_glide_gridfile>  (1) 
gpcr_drd2_6luq_protein_autoprepared_prepared

>  <s_lp_Force_Field>  (1) 
S-OPLS

>  <s_lp_Variant>  (1) 
DiffSBDD_19_num_sample_50-1

>  <s_m_source_file>  (1) 
generated__ligand_DiffSBDD_2026-05-06_prepared.sdf

>  <GenAI_Model>  (1) 
DiffSBDD

>  <Protein>  (1) 
generic_title2

$$$$
DiffSBDD_41_num_sample_50
     RDKit          3D

  0  0  0  0  0  0  0  0  0  0999 V3000
M  V30 BEGIN CTAB
M  V30 COUNTS 104 109 0 0 1
M  V30 BEGIN ATOM
M  V30 1 C 5.484739 5.334696 -11.569200 0
M  V30 2 C 7.299461 5.072311 -16.293081 0
M  V30 3 C 8.093997 4.545366 -15.071678 0
M  V30 4 C 10.125803 5.939349 -12.076443 0
M  V30 5 C 6.129332 6.329311 -12.165126 0
M  V30 6 O 6.645951 4.290190 -18.472095 0
M  V30 7 C 9.756292 -0.340596 -20.566253 0
M  V30 8 N 7.191352 -0.571488 -17.664339 0
M  V30 9 O 7.019383 -4.840297 -17.491314 0
M  V30 10 C 5.995137 0.793575 -15.688328 0 CFG=2
M  V30 11 C 10.240279 7.203610 -11.183370 0
M  V30 12 O 6.635006 1.923107 -15.089063 0
M  V30 13 C 8.563054 0.223088 -15.901121 0
M  V30 14 C 5.925080 -3.469392 -19.305254 0 CFG=1
M  V30 15 C 5.271475 1.677341 -20.030361 0
M  V30 16 C 7.418703 -4.395874 -19.929577 0 CFG=2
M  V30 17 C 6.287836 2.218534 -13.748281 0
M  V30 18 C 6.149166 3.752049 -13.501699 0 CFG=1
M  V30 19 C 6.143255 -4.038848 -20.720724 0
M  V30 20 C 5.435563 3.942485 -12.132855 0
M  V30 21 C 6.766831 -6.038901 -16.782843 0
M  V30 22 C 9.261555 1.808653 -19.131632 0
M  V30 23 O 9.030808 -1.258180 -19.745060 0
M  V30 24 C 8.635663 -5.177696 -20.390031 0
M  V30 25 C 7.560475 4.399470 -17.655570 0
M  V30 26 C 5.561355 1.019665 -18.673558 0
M  V30 27 N 6.792819 -0.665528 -19.973023 0 CHG=1
M  V30 28 N 8.812688 3.964794 -17.900197 0
M  V30 29 C 9.313374 1.145038 -20.528529 0
M  V30 30 C 6.884367 6.153421 -13.451690 0 CFG=2
M  V30 31 S 4.468231 -2.550041 -18.699501 0 CHG=-1
M  V30 32 C 7.423031 4.674342 -13.656171 0 CFG=2
M  V30 33 O 7.834647 7.168341 -13.532552 0
M  V30 34 C 10.200008 6.902584 -9.661953 0
M  V30 35 F 9.397004 -7.121310 -21.462993 0
M  V30 36 C 6.251313 -0.616690 -15.239429 0
M  V30 37 C 6.541272 -0.112746 -18.767302 0
M  V30 38 C 7.786553 -1.724064 -20.188389 0 CFG=2
M  V30 39 C 9.163912 5.836590 -9.363782 0
M  V30 40 C 8.655547 5.036282 -10.306325 0
M  V30 41 C 8.298888 -6.563374 -20.953663 0
M  V30 42 C 7.129392 0.001467 -16.306666 0 CFG=2
M  V30 43 F 7.812100 -7.358197 -20.000809 0
M  V30 44 N 9.029323 5.080971 -11.637438 0
M  V30 45 C 8.492686 4.151476 -12.623499 0
M  V30 46 C 6.452767 -4.826276 -18.799647 0 CFG=1
M  V30 47 C 9.202041 3.350830 -19.181024 0
M  V30 48 C 7.387645 -2.960122 -19.351297 0 CFG=1
M  V30 49 H 4.961281 5.510291 -10.640041 0
M  V30 50 H 7.461868 6.144551 -16.400480 0
M  V30 51 H 6.233706 4.968946 -16.107846 0
M  V30 52 H 8.393896 3.513531 -15.239136 0
M  V30 53 H 9.035623 5.095321 -15.051848 0
M  V30 54 H 11.033944 5.354008 -12.028287 0
M  V30 55 H 10.035512 6.199688 -13.127996 0
M  V30 56 H 6.129740 7.315415 -11.720660 0
M  V30 57 H 10.791730 -0.384365 -20.228529 0
M  V30 58 H 9.771686 -0.703569 -21.595032 0
M  V30 59 H 7.810817 -1.360814 -17.781742 0
M  V30 60 H 5.034928 0.969258 -16.157048 0
M  V30 61 H 9.403286 7.864093 -11.413167 0
M  V30 62 H 11.143898 7.759980 -11.428948 0
M  V30 63 H 8.634962 0.245035 -14.813796 0
M  V30 64 H 9.189417 -0.586382 -16.292211 0
M  V30 65 H 8.921352 1.174742 -16.291000 0
M  V30 66 H 4.635103 2.550231 -19.898333 0
M  V30 67 H 6.187083 2.020126 -20.510426 0
M  V30 68 H 4.754053 0.992565 -20.700893 0
M  V30 69 H 7.023459 1.758015 -13.089732 0
M  V30 70 H 5.336917 1.740598 -13.503000 0
M  V30 71 H 5.437999 4.113677 -14.241459 0
M  V30 72 H 5.496033 -4.870082 -21.009334 0
M  V30 73 H 6.231132 -3.314112 -21.529033 0
M  V30 74 H 5.826405 3.256857 -11.379304 0
M  V30 75 H 4.376216 3.770114 -12.293043 0
M  V30 76 H 7.224662 -5.984113 -15.795327 0
M  V30 77 H 5.695907 -6.195634 -16.647923 0
M  V30 78 H 7.188115 -6.899420 -17.304448 0
M  V30 79 H 8.378437 1.453410 -18.614881 0
M  V30 80 H 10.119922 1.498404 -18.535174 0
M  V30 81 H 9.165029 -4.601611 -21.149160 0
M  V30 82 H 9.326618 -5.293013 -19.554060 0
M  V30 83 H 7.837996 -1.939768 -21.255405 0
M  V30 84 H 4.635740 0.601106 -18.290468 0
M  V30 85 H 9.523524 4.083083 -17.193426 0
M  V30 86 H 10.017655 1.703244 -21.146465 0
M  V30 87 H 8.351263 1.259396 -21.025303 0
M  V30 88 H 6.161976 6.388061 -14.232395 0
M  V30 89 H 8.396734 7.071221 -12.775899 0
M  V30 90 H 9.943010 7.807142 -9.110196 0
M  V30 91 H 11.170371 6.573951 -9.294657 0
M  V30 92 H 6.649045 -0.751922 -14.236394 0
M  V30 93 H 5.547848 -1.381918 -15.561525 0
M  V30 94 H 5.932802 1.793648 -18.007017 0
M  V30 95 H 8.830155 5.746514 -8.339478 0
M  V30 96 H 7.908757 4.289009 -10.082988 0
M  V30 97 H 7.559097 -6.506856 -21.752840 0
M  V30 98 H 8.098213 3.309616 -12.060840 0
M  V30 99 H 9.348409 3.724418 -13.145227 0
M  V30 100 H 5.809088 -5.684873 -19.015742 0
M  V30 101 H 10.183287 3.738650 -19.456982 0
M  V30 102 H 8.531017 3.668913 -19.981101 0
M  V30 103 H 7.885174 -2.927792 -18.380083 0
M  V30 104 H 6.299622 -0.282916 -20.766868 0
M  V30 END ATOM
M  V30 BEGIN BOND
M  V30 1 1 3 2
M  V30 2 2 5 1
M  V30 3 1 11 4
M  V30 4 1 12 10
M  V30 5 1 17 12
M  V30 6 1 18 17
M  V30 7 1 19 14
M  V30 8 1 19 16
M  V30 9 1 20 1
M  V30 10 1 20 18
M  V30 11 1 21 9
M  V30 12 1 23 7
M  V30 13 1 16 24 CFG=3
M  V30 14 1 25 2
M  V30 15 2 25 6
M  V30 16 1 26 15
M  V30 17 1 28 25
M  V30 18 1 29 7
M  V30 19 1 29 22
M  V30 20 1 30 5
M  V30 21 1 14 31 CFG=1
M  V30 22 1 32 3
M  V30 23 1 32 18
M  V30 24 1 32 30
M  V30 25 1 33 30
M  V30 26 1 34 11
M  V30 27 1 36 10
M  V30 28 1 37 8
M  V30 29 1 37 26
M  V30 30 2 37 27
M  V30 31 1 38 23
M  V30 32 1 38 27
M  V30 33 1 39 34
M  V30 34 2 40 39
M  V30 35 1 41 24
M  V30 36 1 41 35
M  V30 37 1 42 8
M  V30 38 1 42 10
M  V30 39 1 42 13 CFG=1
M  V30 40 1 42 36
M  V30 41 1 43 41
M  V30 42 1 44 4
M  V30 43 1 44 40
M  V30 44 1 32 45 CFG=1
M  V30 45 1 45 44
M  V30 46 1 46 9
M  V30 47 1 46 14
M  V30 48 1 46 16
M  V30 49 1 47 22
M  V30 50 1 47 28
M  V30 51 1 48 14
M  V30 52 1 48 16
M  V30 53 1 48 38
M  V30 54 1 49 1
M  V30 55 1 50 2
M  V30 56 1 51 2
M  V30 57 1 52 3
M  V30 58 1 53 3
M  V30 59 1 54 4
M  V30 60 1 55 4
M  V30 61 1 56 5
M  V30 62 1 57 7
M  V30 63 1 58 7
M  V30 64 1 59 8
M  V30 65 1 10 60 CFG=3
M  V30 66 1 61 11
M  V30 67 1 62 11
M  V30 68 1 63 13
M  V30 69 1 64 13
M  V30 70 1 65 13
M  V30 71 1 66 15
M  V30 72 1 67 15
M  V30 73 1 68 15
M  V30 74 1 69 17
M  V30 75 1 70 17
M  V30 76 1 18 71 CFG=3
M  V30 77 1 72 19
M  V30 78 1 73 19
M  V30 79 1 74 20
M  V30 80 1 75 20
M  V30 81 1 76 21
M  V30 82 1 77 21
M  V30 83 1 78 21
M  V30 84 1 79 22
M  V30 85 1 80 22
M  V30 86 1 81 24
M  V30 87 1 82 24
M  V30 88 1 38 83 CFG=3
M  V30 89 1 84 26
M  V30 90 1 85 28
M  V30 91 1 86 29
M  V30 92 1 87 29
M  V30 93 1 30 88 CFG=3
M  V30 94 1 89 33
M  V30 95 1 90 34
M  V30 96 1 91 34
M  V30 97 1 92 36
M  V30 98 1 93 36
M  V30 99 1 94 26
M  V30 100 1 95 39
M  V30 101 1 96 40
M  V30 102 1 97 41
M  V30 103 1 98 45
M  V30 104 1 99 45
M  V30 105 1 46 100 CFG=3
M  V30 106 1 101 47
M  V30 107 1 102 47
M  V30 108 1 48 103 CFG=1
M  V30 109 1 104 27
M  V30 END BOND
M  V30 END CTAB
M  END
>  <i_epik_Tot_Q>  (1) 
0

>  <i_epik_Tot_abs_Q>  (1) 
2

>  <i_i_glide_confnum>  (1) 
135

>  <i_i_glide_lignum>  (1) 
104

>  <i_i_glide_posenum>  (1) 
134

>  <i_i_glide_rotatable_bonds>  (1) 
8

>  <i_lp_mmshare_version>  (1) 
72125

>  <i_m_source_file_index>  (1) 
42

>  <i_f3d_flags>  (1) 
0

>  <num_sample>  (1) 
50

>  <b_lp_Chiralities_Consistent>  (1) 
1

>  <r_epik_Charging_Adjusted_Penalty>  (1) 
2.5071679655586419

>  <r_epik_Ionization_Penalty>  (1) 
1.2556275080584867

>  <r_epik_Ionization_Penalty_Charging>  (1) 
1.2536750394976632

>  <r_epik_Ionization_Penalty_Neutral>  (1) 
0.0019524685608233448

>  <r_epik_State_Penalty>  (1) 
1.2534929260609784

>  <r_glide_ring_energy>  (1) 
0

>  <r_i_docking_score>  (1) 
-2.5961460535163656

>  <r_i_glide_ecoul>  (1) 
0.2203524812033891

>  <r_i_glide_eff_state_penalty>  (1) 
1.2534929260609784

>  <r_i_glide_einternal>  (1) 
11.775140499017738

>  <r_i_glide_emodel>  (1) 
-73.099804815158606

>  <r_i_glide_emodel_strain>  (1) 
2.1066353248924088

>  <r_i_glide_energy>  (1) 
-32.041766483158753

>  <r_i_glide_erotb>  (1) 
0.0044950300395880287

>  <r_i_glide_esite>  (1) 
-0.0068967016072350494

>  <r_i_glide_evdw>  (1) 
-32.262118964362145

>  <r_i_glide_gscore>  (1) 
-3.8496389795773442

>  <r_i_glide_gscore_strain>  (1) 
0

>  <r_i_glide_hbond>  (1) 
0

>  <r_i_glide_ligand_efficiency>  (1) 
-0.054086376114924284

>  <r_i_glide_ligand_efficiency_ln>  (1) 
-0.53295810370028185

>  <r_i_glide_ligand_efficiency_sa>  (1) 
-0.19656293566018662

>  <r_i_glide_lipo>  (1) 
-1.5741683873366532

>  <r_i_glide_metal>  (1) 
-0

>  <r_i_glide_rewards>  (1) 
-0.6930158446354453

>  <r_lp_Energy>  (1) 
122.17831199999999

>  <s_epik_Chemistry_Notes>  (1) 
This compound has an imine and may undergo hydrolysis. This compound contains an acetal/aminal-like group ( X-CH(R)-Y where X, Y are N, S, or O) that may be acid/base labile, releasing an aldehyde.

>  <s_epik_cmdline>  (1) 
J2VwaWtfcHl0aG9uJywgJy1waHQnLCAnMS4wJywgJy1waCcsICc3LjQnLCAnLXRuJywgJzgnLCAnLW1hJywgJzUwMCcsICctaW1hZScsICc8aW5maWxlLm1hZT4nLCAnLW9tYWUnLCAnPG91dGZpbGUubWFlPic=

>  <s_epik_input>  (1) 
W0NIXTE9W0NIXVtDSDJdW0NIMl1bQ0gyXU4xW0NIMl1bQ0BdMjNbQ0BIXShbQ0gyXVtDSF09W0NIXVtDQEhdM1tPSF0pW0NIMl1PW0NASF00W0NAQF0oW0NIM10pKFtDSDJdNClbTkhdW0NASF0oW0NIMl1bQ0gzXSkvTj1DKFtDQEBIXTVbQ0BdKFtDSDJdW0NIXShGKUYpKFtDSDJdW0NAXTU2W1NIXSlbQ0BIXTZPW0NIM10pL09bQ0gyXVtDSDJdW0NIMl1bQ0gyXVtOSF1DKD1PKVtDSDJdW0NIMl0y

>  <s_glide_docking_method>  (1) 
confgen

>  <s_i_glide_gridfile>  (1) 
gpcr_drd2_6luq_protein_autoprepared_prepared

>  <s_lp_Force_Field>  (1) 
S-OPLS

>  <s_lp_Variant>  (1) 
DiffSBDD_41_num_sample_50-4

>  <s_m_source_file>  (1) 
generated__ligand_DiffSBDD_2026-05-06_prepared.sdf

>  <GenAI_Model>  (1) 
DiffSBDD

>  <Protein>  (1) 
generic_title2

$$$$
DiffSBDD_21_num_sample_50
     RDKit          3D

  0  0  0  0  0  0  0  0  0  0999 V3000
M  V30 BEGIN CTAB
M  V30 COUNTS 58 61 0 0 1
M  V30 BEGIN ATOM
M  V30 1 C 14.468731 9.005055 -20.132478 0 CFG=2
M  V30 2 C 15.655226 -0.155093 -21.694147 0 CFG=2
M  V30 3 C 16.961476 7.202974 -20.978102 0
M  V30 4 O 15.397869 0.946896 -20.831234 0
M  V30 5 C 13.563685 -0.123969 -19.494143 0
M  V30 6 N 13.641442 2.381440 -18.119837 0
M  V30 7 C 15.810438 7.357469 -18.699065 0
M  V30 8 C 14.810671 5.136575 -15.747013 0
M  V30 9 O 15.575989 3.015182 -19.131138 0
M  V30 10 C 14.425168 -0.412212 -22.586883 0
M  V30 11 C 13.510166 6.768723 -17.171829 0
M  V30 12 C 14.848513 0.753861 -19.525290 0 CFG=2
M  V30 13 F 16.634836 -2.287371 -21.913797 0
M  V30 14 F 14.185050 9.183177 -22.439745 0
M  V30 15 C 14.739539 8.391041 -21.521373 0 CFG=1
M  V30 16 C 15.879641 6.428780 -17.640422 0
M  V30 17 C 13.431039 7.692607 -18.225744 0
M  V30 18 C 14.731564 6.136225 -16.878277 0
M  V30 19 C 16.220943 8.195913 -21.884124 0
M  V30 20 C 14.710869 2.162750 -18.913636 0
M  V30 21 C 13.581812 3.259589 -16.949117 0 CFG=1
M  V30 22 F 17.324736 -1.030698 -20.291666 0
M  V30 23 C 14.877635 3.690800 -16.253482 0
M  V30 24 C 17.060715 7.661212 -19.515384 0
M  V30 25 O 15.238539 10.169300 -19.915939 0
M  V30 26 O 13.245824 3.754169 -18.178361 0
M  V30 27 C 13.161369 -0.914651 -21.873695 0
M  V30 28 C 16.256831 -1.391023 -21.002996 0
M  V30 29 C 14.575526 7.996458 -18.994006 0
M  V30 30 C 12.675200 -0.000323 -20.738539 0
M  V30 31 H 13.434843 9.347874 -20.134070 0
M  V30 32 H 16.428377 0.217344 -22.367490 0
M  V30 33 H 17.973599 7.099485 -21.370499 0
M  V30 34 H 16.515193 6.209201 -21.036896 0
M  V30 35 H 13.834839 -1.166889 -19.344574 0
M  V30 36 H 12.957753 0.078171 -18.611872 0
M  V30 37 H 15.691585 5.369305 -15.149437 0
M  V30 38 H 13.949728 5.264033 -15.091665 0
M  V30 39 H 14.183351 0.511985 -23.113402 0
M  V30 40 H 14.695307 -1.128674 -23.363171 0
M  V30 41 H 12.629587 6.541272 -16.588665 0
M  V30 42 H 15.600276 0.256670 -18.911526 0
M  V30 43 H 14.205959 7.443685 -21.610115 0
M  V30 44 H 16.814789 5.938894 -17.412961 0
M  V30 45 H 12.488785 8.169305 -18.447100 0
M  V30 46 H 16.737717 9.156207 -21.877541 0
M  V30 47 H 16.281578 7.835888 -22.911666 0
M  V30 48 H 12.727047 3.131447 -16.291667 0
M  V30 49 H 15.765079 3.582247 -16.865991 0
M  V30 50 H 15.034840 3.021517 -15.409779 0
M  V30 51 H 17.316088 8.718495 -19.446457 0
M  V30 52 H 17.899459 7.138656 -19.054294 0
M  V30 53 H 14.949990 10.827023 -20.536281 0
M  V30 54 H 12.366086 -1.001976 -22.614564 0
M  V30 55 H 13.323434 -1.924823 -21.497923 0
M  V30 56 H 15.566986 -1.891909 -20.332468 0
M  V30 57 H 12.605877 1.037073 -21.069037 0
M  V30 58 H 11.659923 -0.294967 -20.471807 0
M  V30 END ATOM
M  V30 BEGIN BOND
M  V30 1 1 4 2
M  V30 2 1 10 2
M  V30 3 1 12 4
M  V30 4 1 12 5
M  V30 5 1 15 1
M  V30 6 1 15 14
M  V30 7 1 16 7
M  V30 8 2 17 11
M  V30 9 1 18 8
M  V30 10 1 18 11
M  V30 11 2 18 16
M  V30 12 1 19 3
M  V30 13 1 19 15
M  V30 14 1 20 6
M  V30 15 2 20 9
M  V30 16 1 20 12
M  V30 17 1 21 6
M  V30 18 1 23 8
M  V30 19 1 23 21
M  V30 20 1 24 3
M  V30 21 1 24 7
M  V30 22 1 25 1
M  V30 23 1 26 6
M  V30 24 1 26 21
M  V30 25 1 27 10
M  V30 26 1 28 2
M  V30 27 1 28 13
M  V30 28 1 28 22
M  V30 29 1 29 1
M  V30 30 2 29 7
M  V30 31 1 29 17
M  V30 32 1 30 5
M  V30 33 1 30 27
M  V30 34 1 1 31 CFG=3
M  V30 35 1 2 32 CFG=3
M  V30 36 1 33 3
M  V30 37 1 34 3
M  V30 38 1 35 5
M  V30 39 1 36 5
M  V30 40 1 37 8
M  V30 41 1 38 8
M  V30 42 1 39 10
M  V30 43 1 40 10
M  V30 44 1 41 11
M  V30 45 1 12 42 CFG=1
M  V30 46 1 15 43 CFG=1
M  V30 47 1 44 16
M  V30 48 1 45 17
M  V30 49 1 46 19
M  V30 50 1 47 19
M  V30 51 1 21 48 CFG=1
M  V30 52 1 49 23
M  V30 53 1 50 23
M  V30 54 1 51 24
M  V30 55 1 52 24
M  V30 56 1 53 25
M  V30 57 1 54 27
M  V30 58 1 55 27
M  V30 59 1 56 28
M  V30 60 1 57 30
M  V30 61 1 58 30
M  V30 END BOND
M  V30 END CTAB
M  END
>  <i_epik_Tot_Q>  (1) 
0

>  <i_epik_Tot_abs_Q>  (1) 
0

>  <i_i_glide_confnum>  (1) 
516

>  <i_i_glide_lignum>  (1) 
59

>  <i_i_glide_posenum>  (1) 
219

>  <i_i_glide_rotatable_bonds>  (1) 
7

>  <i_lp_mmshare_version>  (1) 
72125

>  <i_m_source_file_index>  (1) 
22

>  <i_f3d_flags>  (1) 
0

>  <num_sample>  (1) 
50

>  <b_lp_Chiralities_Consistent>  (1) 
1

>  <r_epik_Charging_Adjusted_Penalty>  (1) 
0

>  <r_epik_Ionization_Penalty>  (1) 
2.1179066564973658e-05

>  <r_epik_Ionization_Penalty_Charging>  (1) 
0

>  <r_epik_Ionization_Penalty_Neutral>  (1) 
2.1179066564973658e-05

>  <r_epik_State_Penalty>  (1) 
-0

>  <r_glide_ring_energy>  (1) 
1.9317522254523016

>  <r_i_docking_score>  (1) 
-2.5954974363219332

>  <r_i_glide_ecoul>  (1) 
-3.9611202666924106

>  <r_i_glide_eff_state_penalty>  (1) 
-0

>  <r_i_glide_einternal>  (1) 
3.4723716313959372

>  <r_i_glide_emodel>  (1) 
-28.512865973413685

>  <r_i_glide_emodel_strain>  (1) 
0

>  <r_i_glide_energy>  (1) 
-26.626439252639155

>  <r_i_glide_erotb>  (1) 
0.54329591006541389

>  <r_i_glide_esite>  (1) 
-0.023835574894002617

>  <r_i_glide_evdw>  (1) 
-22.665318985946744

>  <r_i_glide_gscore>  (1) 
-2.5954974363219332

>  <r_i_glide_gscore_strain>  (1) 
0

>  <r_i_glide_hbond>  (1) 
-0.2792881896492912

>  <r_i_glide_ligand_efficiency>  (1) 
-0.086516581210731108

>  <r_i_glide_ligand_efficiency_ln>  (1) 
-0.58972529774197902

>  <r_i_glide_ligand_efficiency_sa>  (1) 
-0.26882713344198056

>  <r_i_glide_lipo>  (1) 
-0.83617177604383752

>  <r_i_glide_metal>  (1) 
-0

>  <r_i_glide_rewards>  (1) 
-0.27206381649901706

>  <r_lp_Energy>  (1) 
33.981971000000001

>  <r_lp_tautomer_probability>  (1) 
1

>  <s_epik_Chemistry_Notes>  (1) 
This compound contains an acetal/aminal-like group ( X-CH(R)-Y where X, Y are N, S, or O) that may be acid/base labile, releasing an aldehyde. This compound has a N-S or N-O group and may undergo hydrolysis at high or low pH.

>  <s_epik_cmdline>  (1) 
J2VwaWtfcHl0aG9uJywgJy1waHQnLCAnMS4wJywgJy1waCcsICc3LjQnLCAnLXRuJywgJzgnLCAnLW1hJywgJzUwMCcsICctaW1hZScsICc8aW5maWxlLm1hZT4nLCAnLW9tYWUnLCAnPG91dGZpbGUubWFlPic=

>  <s_epik_input>  (1) 
W0NIMl0xW0NIMl1bQ0gyXVtDQEhdKEYpW0NASF0oW09IXSljKGMxMilbY0hdW2NIXWMoW2NIXTIpW0NIMl1bQ0gyXVtDQEBIXShPMylOM0MoPU8pW0NASF0oT1tDQEhdNFtDSF0oRilGKVtDSDJdW0NIMl1bQ0gyXVtDSDJdNA==

>  <s_glide_docking_method>  (1) 
confgen

>  <s_i_glide_gridfile>  (1) 
gpcr_drd2_6luq_protein_autoprepared_prepared

>  <s_lp_Force_Field>  (1) 
S-OPLS

>  <s_lp_Variant>  (1) 
DiffSBDD_21_num_sample_50-1

>  <s_m_source_file>  (1) 
generated__ligand_DiffSBDD_2026-05-06_prepared.sdf

>  <GenAI_Model>  (1) 
DiffSBDD

>  <Protein>  (1) 
generic_title2

$$$$
DiffSBDD_10_num_sample_50
     RDKit          3D

  0  0  0  0  0  0  0  0  0  0999 V3000
M  V30 BEGIN CTAB
M  V30 COUNTS 71 72 0 0 1
M  V30 BEGIN ATOM
M  V30 1 C 7.832491 0.944264 -20.391191 0 CFG=2
M  V30 2 C 9.131901 6.547011 -12.530754 0
M  V30 3 C 5.580596 7.154358 -15.022369 0
M  V30 4 C 7.205713 5.963372 -18.320717 0 CFG=1
M  V30 5 C 8.787385 2.131410 -20.148141 0 CFG=2
M  V30 6 N 8.437800 4.241257 -12.745754 0
M  V30 7 N 6.931436 4.917114 -20.412937 0
M  V30 8 C 8.193446 4.459857 -19.933365 0 CFG=1
M  V30 9 S 8.565181 -0.753929 -19.993284 0
M  V30 10 C 10.234881 6.298943 -11.527350 0
M  V30 11 S 9.475262 -1.302949 -21.829953 0 CHG=-1
M  V30 12 C 5.858482 0.872763 -18.727568 0
M  V30 13 O 9.034856 6.840954 -7.030474 0
M  V30 14 O 9.628013 -0.630679 -18.983821 0
M  V30 15 C 8.451438 1.696674 -21.561868 0 CFG=2
M  V30 16 C 5.994880 7.219729 -12.480865 0
M  V30 17 C 6.167864 5.281945 -19.232300 0 CFG=2
M  V30 18 N 9.434851 6.796563 -9.261690 0
M  V30 19 N 7.375517 5.870216 -14.001863 0
M  V30 20 C 10.270740 7.278863 -10.346101 0
M  V30 21 C 9.477369 4.709855 -17.710197 0
M  V30 22 C 6.315274 0.983311 -20.187205 0
M  V30 23 C 10.236435 2.079079 -19.698225 0
M  V30 24 C 6.913201 5.869455 -16.810437 0
M  V30 25 C 6.397344 6.676752 -13.855310 0
M  V30 26 O 7.616885 2.598419 -22.267663 0
M  V30 27 C 8.351250 5.580999 -13.057399 0
M  V30 28 O 7.471626 -1.711466 -19.767040 0
M  V30 29 F 5.153805 6.083547 -19.557134 0
M  V30 30 N 5.827727 6.169337 -11.491600 0
M  V30 31 C 9.686951 7.553067 -8.052168 0
M  V30 32 C 8.572421 5.383628 -18.764968 0 CFG=2
M  V30 33 O 8.043722 3.150372 -19.475625 0
M  V30 34 C 5.803654 6.797234 -16.319141 0
M  V30 35 H 8.987435 7.572858 -12.836063 0
M  V30 36 H 4.774492 7.826028 -14.776445 0
M  V30 37 H 7.229769 7.020592 -18.583532 0
M  V30 38 H 9.142288 3.885440 -12.115284 0
M  V30 39 H 6.473727 4.201359 -20.960711 0
M  V30 40 H 8.936788 4.492190 -20.732920 0
M  V30 41 H 11.160916 6.422132 -12.089108 0
M  V30 42 H 10.231049 5.265713 -11.182684 0
M  V30 43 H 4.769499 0.883470 -18.690994 0
M  V30 44 H 6.193737 -0.050768 -18.256500 0
M  V30 45 H 6.224205 1.708482 -18.129871 0
M  V30 46 H 8.092734 6.969461 -7.122833 0
M  V30 47 H 9.260760 1.304605 -22.169129 0
M  V30 48 H 6.756830 7.916514 -12.132385 0
M  V30 49 H 5.060668 7.778182 -12.547092 0
M  V30 50 H 5.759233 4.382793 -18.767997 0
M  V30 51 H 8.450563 6.965028 -9.491708 0
M  V30 52 H 9.975161 8.283635 -10.649518 0
M  V30 53 H 11.299921 7.342426 -9.989458 0
M  V30 54 H 8.977164 3.880511 -17.208820 0
M  V30 55 H 10.393194 4.334383 -18.160637 0
M  V30 56 H 9.792214 5.420453 -16.945669 0
M  V30 57 H 5.909140 1.910580 -20.588367 0
M  V30 58 H 5.869593 0.179545 -20.773843 0
M  V30 59 H 10.772870 1.274649 -20.201904 0
M  V30 60 H 10.742973 3.009762 -19.949927 0
M  V30 61 H 10.290244 1.923353 -18.620564 0
M  V30 62 H 7.832733 6.169292 -16.322385 0
M  V30 63 H 6.698159 4.840088 -16.521284 0
M  V30 64 H 7.168111 2.109908 -22.941867 0
M  V30 65 H 6.635256 5.562553 -11.562789 0
M  V30 66 H 5.924129 6.618993 -10.582472 0
M  V30 67 H 9.296383 8.568473 -8.130420 0
M  V30 68 H 10.753309 7.599149 -7.827636 0
M  V30 69 H 9.140933 6.206537 -19.201299 0
M  V30 70 H 5.152014 7.194960 -17.083778 0
M  V30 71 H 7.866053 3.551680 -13.212027 0
M  V30 END ATOM
M  V30 BEGIN BOND
M  V30 1 1 5 1
M  V30 2 1 8 7
M  V30 3 1 9 1
M  V30 4 1 10 2
M  V30 5 1 11 9
M  V30 6 2 14 9
M  V30 7 1 15 1
M  V30 8 1 15 5
M  V30 9 1 17 4
M  V30 10 1 17 7
M  V30 11 1 20 10
M  V30 12 1 20 18
M  V30 13 1 1 22 CFG=3
M  V30 14 1 22 12
M  V30 15 1 23 5
M  V30 16 1 24 4
M  V30 17 1 25 3
M  V30 18 1 25 16
M  V30 19 2 25 19
M  V30 20 1 26 15
M  V30 21 2 27 2
M  V30 22 1 27 6
M  V30 23 1 27 19
M  V30 24 2 28 9
M  V30 25 1 29 17
M  V30 26 1 30 16
M  V30 27 1 31 13
M  V30 28 1 31 18
M  V30 29 1 32 4
M  V30 30 1 32 8
M  V30 31 1 32 21
M  V30 32 1 5 33 CFG=3
M  V30 33 1 33 8
M  V30 34 2 34 3
M  V30 35 1 34 24
M  V30 36 1 35 2
M  V30 37 1 36 3
M  V30 38 1 4 37 CFG=3
M  V30 39 1 38 6
M  V30 40 1 39 7
M  V30 41 1 8 40 CFG=3
M  V30 42 1 41 10
M  V30 43 1 42 10
M  V30 44 1 43 12
M  V30 45 1 44 12
M  V30 46 1 45 12
M  V30 47 1 46 13
M  V30 48 1 15 47 CFG=3
M  V30 49 1 48 16
M  V30 50 1 49 16
M  V30 51 1 17 50 CFG=1
M  V30 52 1 51 18
M  V30 53 1 52 20
M  V30 54 1 53 20
M  V30 55 1 54 21
M  V30 56 1 55 21
M  V30 57 1 56 21
M  V30 58 1 57 22
M  V30 59 1 58 22
M  V30 60 1 59 23
M  V30 61 1 60 23
M  V30 62 1 61 23
M  V30 63 1 62 24
M  V30 64 1 63 24
M  V30 65 1 64 26
M  V30 66 1 65 30
M  V30 67 1 66 30
M  V30 68 1 67 31
M  V30 69 1 68 31
M  V30 70 1 32 69 CFG=3
M  V30 71 1 70 34
M  V30 72 1 71 6
M  V30 END BOND
M  V30 END CTAB
M  END
>  <i_epik_Tot_Q>  (1) 
-1

>  <i_epik_Tot_abs_Q>  (1) 
1

>  <i_i_glide_confnum>  (1) 
64

>  <i_i_glide_lignum>  (1) 
43

>  <i_i_glide_posenum>  (1) 
99

>  <i_i_glide_rotatable_bonds>  (1) 
15

>  <i_lp_mmshare_version>  (1) 
72125

>  <i_m_source_file_index>  (1) 
11

>  <i_f3d_flags>  (1) 
0

>  <num_sample>  (1) 
50

>  <b_lp_Chiralities_Consistent>  (1) 
1

>  <r_epik_Charging_Adjusted_Penalty>  (1) 
1.239197207418439

>  <r_epik_Ionization_Penalty>  (1) 
1.2496715491914541

>  <r_epik_Ionization_Penalty_Charging>  (1) 
1.1069707349969355e-11

>  <r_epik_Ionization_Penalty_Neutral>  (1) 
1.2496715491803843

>  <r_epik_State_Penalty>  (1) 
1.2391972074073692

>  <r_glide_ring_energy>  (1) 
0

>  <r_i_docking_score>  (1) 
-2.5632993896771641

>  <r_i_glide_ecoul>  (1) 
-6.9927835484741836

>  <r_i_glide_eff_state_penalty>  (1) 
1.2391972074073692

>  <r_i_glide_einternal>  (1) 
19.795248471413871

>  <r_i_glide_emodel>  (1) 
-29.408724222763553

>  <r_i_glide_emodel_strain>  (1) 
4.7743302908335892

>  <r_i_glide_energy>  (1) 
-35.425517770264662

>  <r_i_glide_erotb>  (1) 
0.82803537691766171

>  <r_i_glide_esite>  (1) 
-0.090742094324051698

>  <r_i_glide_evdw>  (1) 
-28.432734221790476

>  <r_i_glide_gscore>  (1) 
-3.8024965970845335

>  <r_i_glide_gscore_strain>  (1) 
0.19358257270839729

>  <r_i_glide_hbond>  (1) 
-0.43162558180722577

>  <r_i_glide_ligand_efficiency>  (1) 
-0.075391158519916596

>  <r_i_glide_ligand_efficiency_ln>  (1) 
-0.56630473329221465

>  <r_i_glide_ligand_efficiency_sa>  (1) 
-0.2442380868531033

>  <r_i_glide_lipo>  (1) 
-1.1825037859177909

>  <r_i_glide_metal>  (1) 
-0

>  <r_i_glide_rewards>  (1) 
-0.64868884130087334

>  <r_lp_Energy>  (1) 
20.991564

>  <s_epik_Chemistry_Notes>  (1) 
This compound has an imine and may undergo hydrolysis. This compound contains an acetal/aminal-like group ( X-CH(R)-Y where X, Y are N, S, or O) that may be acid/base labile, releasing an aldehyde.

>  <s_epik_cmdline>  (1) 
J2VwaWtfcHl0aG9uJywgJy1waHQnLCAnMS4wJywgJy1waCcsICc3LjQnLCAnLXRuJywgJzgnLCAnLW1hJywgJzUwMCcsICctaW1hZScsICc8aW5maWxlLm1hZT4nLCAnLW9tYWUnLCAnPG91dGZpbGUubWFlPic=

>  <s_epik_input>  (1) 
W1NIXVMoPU8pKD1PKVtDQEBdMShbQ0gyXVtDSDNdKVtDQEBdKFtDSDNdKShbQ0BASF0xW09IXSlPW0NASF0oW0NAQEhdMltDSDNdKVtOSF1bQ0BASF0oRilbQ0BIXTJbQ0gyXS9bQ0hdPVtDSF1cQyhbQ0gyXVtOSDJdKT1OXEMoPU5cW0hdKVxbQ0gyXVtDSDJdW0NIMl1bTkhdW0NIMl1bT0hd

>  <s_glide_docking_method>  (1) 
confgen

>  <s_i_glide_gridfile>  (1) 
gpcr_drd2_6luq_protein_autoprepared_prepared

>  <s_lp_Force_Field>  (1) 
S-OPLS

>  <s_lp_Variant>  (1) 
DiffSBDD_10_num_sample_50-23

>  <s_m_source_file>  (1) 
generated__ligand_DiffSBDD_2026-05-06_prepared.sdf

>  <GenAI_Model>  (1) 
DiffSBDD

>  <Protein>  (1) 
generic_title2

$$$$
DiffSBDD_10_num_sample_50
     RDKit          3D

  0  0  0  0  0  0  0  0  0  0999 V3000
M  V30 BEGIN CTAB
M  V30 COUNTS 71 72 0 0 1
M  V30 BEGIN ATOM
M  V30 1 C 5.818775 8.068246 -21.814733 0 CFG=2
M  V30 2 C 10.932029 7.776801 -10.088315 0
M  V30 3 C 7.792202 7.105807 -13.489880 0
M  V30 4 C 6.312908 5.999825 -16.859345 0 CFG=1
M  V30 5 C 5.440079 6.614643 -21.417453 0 CFG=2
M  V30 6 N 9.434816 5.924205 -9.676327 0
M  V30 7 N 6.881815 5.406657 -19.048779 0
M  V30 8 C 5.508315 5.803718 -19.112423 0 CFG=1
M  V30 9 S 4.772183 8.824509 -23.175763 0
M  V30 10 C 11.875659 7.496093 -8.942633 0
M  V30 11 S 3.434815 9.964677 -21.984943 0 CHG=-1
M  V30 12 C 7.291799 10.198210 -21.532541 0
M  V30 13 O 11.782635 8.998609 -4.978172 0
M  V30 14 O 5.587159 9.774375 -23.945694 0
M  V30 15 C 6.674108 6.915421 -22.254773 0 CFG=2
M  V30 16 C 9.337514 5.213420 -12.642568 0
M  V30 17 C 7.459660 6.041717 -17.879741 0 CFG=2
M  V30 18 N 10.826823 8.413122 -6.979753 0
M  V30 19 N 9.034891 7.364194 -11.464038 0
M  V30 20 C 11.920816 8.618741 -7.909846 0
M  V30 21 C 4.610211 7.769214 -17.717062 0
M  V30 22 C 6.435969 9.106282 -20.870304 0
M  V30 23 C 4.355201 5.717591 -21.987205 0
M  V30 24 C 6.424773 6.869742 -15.591520 0
M  V30 25 C 8.737346 6.617964 -12.456306 0
M  V30 26 O 7.844114 6.579096 -21.527908 0
M  V30 27 C 9.849472 7.036545 -10.385042 0
M  V30 28 O 3.985115 7.805182 -23.882982 0
M  V30 29 F 8.536388 5.369423 -17.474441 0
M  V30 30 N 8.464766 4.169946 -12.128326 0
M  V30 31 C 10.824297 9.407367 -5.929749 0
M  V30 32 C 5.071170 6.297197 -17.710685 0 CFG=2
M  V30 33 O 5.317330 6.841195 -20.017333 0
M  V30 34 C 7.400082 6.367893 -14.546624 0
M  V30 35 H 11.166797 8.633788 -10.691739 0
M  V30 36 H 7.422294 8.109455 -13.345217 0
M  V30 37 H 6.234885 4.969304 -16.525087 0
M  V30 38 H 9.860975 5.672841 -8.797395 0
M  V30 39 H 7.383646 5.683357 -19.890832 0
M  V30 40 H 4.905613 4.950536 -19.418140 0
M  V30 41 H 12.864568 7.369409 -9.381974 0
M  V30 42 H 11.618022 6.569190 -8.442125 0
M  V30 43 H 7.847695 10.760711 -20.784181 0
M  V30 44 H 8.009082 9.774818 -22.236041 0
M  V30 45 H 6.681000 10.925786 -22.065200 0
M  V30 46 H 12.485557 9.628784 -4.966658 0
M  V30 47 H 6.700876 6.632906 -23.305411 0
M  V30 48 H 9.583503 5.031052 -13.688037 0
M  V30 49 H 10.292039 5.146407 -12.121736 0
M  V30 50 H 7.750706 7.052480 -18.156350 0
M  V30 51 H 9.952966 8.438220 -7.492084 0
M  V30 52 H 11.835169 9.594119 -8.390719 0
M  V30 53 H 12.870566 8.587613 -7.375923 0
M  V30 54 H 5.419207 8.434907 -18.017176 0
M  V30 55 H 3.775162 7.915132 -18.404320 0
M  V30 56 H 4.263222 8.085517 -16.733549 0
M  V30 57 H 5.643848 9.554384 -20.272413 0
M  V30 58 H 7.062140 8.569507 -20.163913 0
M  V30 59 H 4.540134 5.510277 -23.040345 0
M  V30 60 H 4.327208 4.757724 -21.475054 0
M  V30 61 H 3.389096 6.196785 -21.891832 0
M  V30 62 H 5.454471 6.871481 -15.094115 0
M  V30 63 H 6.634837 7.911218 -15.836552 0
M  V30 64 H 8.539606 7.154751 -21.810964 0
M  V30 65 H 7.620546 4.124082 -12.679709 0
M  V30 66 H 8.918105 3.269692 -12.211042 0
M  V30 67 H 9.834924 9.369473 -5.491707 0
M  V30 68 H 11.015562 10.418205 -6.291652 0
M  V30 69 H 4.234960 5.706807 -17.351588 0
M  V30 70 H 7.774209 5.365004 -14.680729 0
M  V30 71 H 8.540448 5.492422 -9.870803 0
M  V30 END ATOM
M  V30 BEGIN BOND
M  V30 1 1 5 1
M  V30 2 1 8 7
M  V30 3 1 9 1
M  V30 4 1 10 2
M  V30 5 1 11 9
M  V30 6 2 14 9
M  V30 7 1 15 1
M  V30 8 1 15 5
M  V30 9 1 17 4
M  V30 10 1 17 7
M  V30 11 1 20 10
M  V30 12 1 20 18
M  V30 13 1 1 22 CFG=1
M  V30 14 1 22 12
M  V30 15 1 23 5
M  V30 16 1 24 4
M  V30 17 1 25 3
M  V30 18 1 25 16
M  V30 19 2 25 19
M  V30 20 1 26 15
M  V30 21 2 27 2
M  V30 22 1 27 6
M  V30 23 1 27 19
M  V30 24 2 28 9
M  V30 25 1 29 17
M  V30 26 1 30 16
M  V30 27 1 31 13
M  V30 28 1 31 18
M  V30 29 1 32 4
M  V30 30 1 32 8
M  V30 31 1 32 21
M  V30 32 1 5 33 CFG=1
M  V30 33 1 33 8
M  V30 34 2 34 3
M  V30 35 1 34 24
M  V30 36 1 35 2
M  V30 37 1 36 3
M  V30 38 1 4 37 CFG=1
M  V30 39 1 38 6
M  V30 40 1 39 7
M  V30 41 1 8 40 CFG=3
M  V30 42 1 41 10
M  V30 43 1 42 10
M  V30 44 1 43 12
M  V30 45 1 44 12
M  V30 46 1 45 12
M  V30 47 1 46 13
M  V30 48 1 15 47 CFG=3
M  V30 49 1 48 16
M  V30 50 1 49 16
M  V30 51 1 17 50 CFG=3
M  V30 52 1 51 18
M  V30 53 1 52 20
M  V30 54 1 53 20
M  V30 55 1 54 21
M  V30 56 1 55 21
M  V30 57 1 56 21
M  V30 58 1 57 22
M  V30 59 1 58 22
M  V30 60 1 59 23
M  V30 61 1 60 23
M  V30 62 1 61 23
M  V30 63 1 62 24
M  V30 64 1 63 24
M  V30 65 1 64 26
M  V30 66 1 65 30
M  V30 67 1 66 30
M  V30 68 1 67 31
M  V30 69 1 68 31
M  V30 70 1 32 69 CFG=1
M  V30 71 1 70 34
M  V30 72 1 71 6
M  V30 END BOND
M  V30 END CTAB
M  END
>  <i_epik_Tot_Q>  (1) 
-1

>  <i_epik_Tot_abs_Q>  (1) 
1

>  <i_i_glide_confnum>  (1) 
333

>  <i_i_glide_lignum>  (1) 
44

>  <i_i_glide_posenum>  (1) 
145

>  <i_i_glide_rotatable_bonds>  (1) 
15

>  <i_lp_mmshare_version>  (1) 
72125

>  <i_m_source_file_index>  (1) 
11

>  <i_f3d_flags>  (1) 
0

>  <num_sample>  (1) 
50

>  <b_lp_Chiralities_Consistent>  (1) 
1

>  <r_epik_Charging_Adjusted_Penalty>  (1) 
1.239197207418439

>  <r_epik_Ionization_Penalty>  (1) 
1.2496715491914541

>  <r_epik_Ionization_Penalty_Charging>  (1) 
1.1069707349969355e-11

>  <r_epik_Ionization_Penalty_Neutral>  (1) 
1.2496715491803843

>  <r_epik_State_Penalty>  (1) 
1.2391972074073692

>  <r_glide_ring_energy>  (1) 
0

>  <r_i_docking_score>  (1) 
-2.5605491605496882

>  <r_i_glide_ecoul>  (1) 
0.86955318688508898

>  <r_i_glide_eff_state_penalty>  (1) 
1.2391972074073692

>  <r_i_glide_einternal>  (1) 
9.237122433559362

>  <r_i_glide_emodel>  (1) 
-36.959248422290116

>  <r_i_glide_emodel_strain>  (1) 
2.3319621683725558

>  <r_i_glide_energy>  (1) 
-35.415216299260138

>  <r_i_glide_erotb>  (1) 
0.82803537691766171

>  <r_i_glide_esite>  (1) 
-0.076124610852489089

>  <r_i_glide_evdw>  (1) 
-36.28476948614523

>  <r_i_glide_gscore>  (1) 
-3.7997463679570571

>  <r_i_glide_gscore_strain>  (1) 
0

>  <r_i_glide_hbond>  (1) 
0

>  <r_i_glide_ligand_efficiency>  (1) 
-0.075310269427932008

>  <r_i_glide_ligand_efficiency_ln>  (1) 
-0.56569713053664117

>  <r_i_glide_ligand_efficiency_sa>  (1) 
-0.24397603759611541

>  <r_i_glide_lipo>  (1) 
-2.0590674526492174

>  <r_i_glide_metal>  (1) 
-0

>  <r_i_glide_rewards>  (1) 
-0.80878418509851424

>  <r_lp_Energy>  (1) 
18.399373000000001

>  <s_epik_Chemistry_Notes>  (1) 
This compound has an imine and may undergo hydrolysis. This compound contains an acetal/aminal-like group ( X-CH(R)-Y where X, Y are N, S, or O) that may be acid/base labile, releasing an aldehyde.

>  <s_epik_cmdline>  (1) 
J2VwaWtfcHl0aG9uJywgJy1waHQnLCAnMS4wJywgJy1waCcsICc3LjQnLCAnLXRuJywgJzgnLCAnLW1hJywgJzUwMCcsICctaW1hZScsICc8aW5maWxlLm1hZT4nLCAnLW9tYWUnLCAnPG91dGZpbGUubWFlPic=

>  <s_epik_input>  (1) 
W1NIXVMoPU8pKD1PKVtDQEBdMShbQ0gyXVtDSDNdKVtDQEBdKFtDSDNdKShbQ0BASF0xW09IXSlPW0NASF0oW0NAQEhdMltDSDNdKVtOSF1bQ0BASF0oRilbQ0BIXTJbQ0gyXVxbQ0hdPVtDSF1cQyhbQ0gyXVtOSDJdKT1OXEMoPU5cW0hdKVxbQ0gyXVtDSDJdW0NIMl1bTkhdW0NIMl1bT0hd

>  <s_glide_docking_method>  (1) 
confgen

>  <s_i_glide_gridfile>  (1) 
gpcr_drd2_6luq_protein_autoprepared_prepared

>  <s_lp_Force_Field>  (1) 
S-OPLS

>  <s_lp_Variant>  (1) 
DiffSBDD_10_num_sample_50-24

>  <s_m_source_file>  (1) 
generated__ligand_DiffSBDD_2026-05-06_prepared.sdf

>  <GenAI_Model>  (1) 
DiffSBDD

>  <Protein>  (1) 
generic_title2

$$$$
DiffSBDD_47_num_sample_50
     RDKit          3D

  0  0  0  0  0  0  0  0  0  0999 V3000
M  V30 BEGIN CTAB
M  V30 COUNTS 61 63 0 0 1
M  V30 BEGIN ATOM
M  V30 1 C 7.738466 3.556485 -18.382756 0
M  V30 2 C 9.241540 5.663716 -7.769197 0
M  V30 3 O 10.911186 7.218126 -7.043477 0
M  V30 4 N 8.234832 3.970550 -14.590568 0
M  V30 5 C 5.749684 3.404192 -10.507665 0
M  V30 6 O 7.315694 5.074494 -14.997080 0
M  V30 7 N 8.984754 5.172149 -18.724295 0
M  V30 8 C 8.420115 3.756016 -12.072659 0
M  V30 9 C 10.199168 6.641744 -8.054934 0
M  V30 10 C 5.288212 5.560080 -11.689983 0
M  V30 11 O 7.274654 2.111191 -13.432767 0
M  V30 12 C 9.679923 6.461925 -10.446104 0
M  V30 13 C 8.678984 5.487286 -10.146311 0
M  V30 14 C 5.615026 2.635967 -19.395698 0
M  V30 15 O 11.350683 8.019862 -9.618206 0
M  V30 16 N 8.363407 4.136562 -19.372660 0
M  V30 17 F 9.510400 6.152421 -12.886772 0
M  V30 18 C 7.624670 3.466824 -13.379271 0 CFG=2
M  V30 19 C 9.916565 6.930377 -11.899190 0
M  V30 20 C 6.886949 2.334680 -18.593694 0
M  V30 21 C 8.483963 5.084207 -8.803179 0
M  V30 22 C 11.399819 6.969560 -12.347347 0
M  V30 23 N 8.777148 5.251915 -17.372070 0
M  V30 24 C 10.425973 7.044814 -9.376380 0
M  V30 25 C 8.293841 1.166050 -13.719101 0
M  V30 26 C 7.985286 4.231278 -17.174794 0
M  V30 27 C 6.282325 4.806482 -10.801837 0
M  V30 28 C 9.042769 8.167050 -12.062011 0
M  V30 29 C 7.445067 3.894347 -15.805454 0 CFG=1
M  V30 30 C 7.772333 4.913535 -11.256595 0 CFG=2
M  V30 31 H 9.070446 5.369543 -6.747240 0
M  V30 32 H 11.413404 7.935191 -7.405116 0
M  V30 33 H 5.835267 2.721243 -11.349762 0
M  V30 34 H 4.693705 3.435838 -10.269476 0
M  V30 35 H 6.234842 3.001745 -9.631150 0
M  V30 36 H 8.634795 2.880669 -11.491667 0
M  V30 37 H 9.437282 4.000568 -12.371993 0
M  V30 38 H 5.006668 4.981512 -12.567194 0
M  V30 39 H 5.663636 6.524372 -12.023771 0
M  V30 40 H 4.398348 5.768468 -11.091751 0
M  V30 41 H 4.966900 1.762506 -19.448982 0
M  V30 42 H 5.851648 2.926596 -20.419021 0
M  V30 43 H 5.048209 3.448858 -18.942035 0
M  V30 44 H 11.326975 8.311845 -10.516416 0
M  V30 45 H 6.643228 3.920936 -13.287109 0
M  V30 46 H 6.613368 1.881435 -17.640278 0
M  V30 47 H 7.461494 1.575485 -19.125254 0
M  V30 48 H 7.730536 4.349851 -8.563599 0
M  V30 49 H 12.070468 7.608292 -11.786561 0
M  V30 50 H 11.484547 7.281293 -13.389747 0
M  V30 51 H 11.834623 5.973453 -12.292565 0
M  V30 52 H 7.890737 0.161183 -13.582436 0
M  V30 53 H 9.152841 1.272345 -13.062739 0
M  V30 54 H 8.635807 1.257847 -14.748559 0
M  V30 55 H 9.565772 5.837229 -19.215331 0
M  V30 56 H 6.199225 5.392277 -9.891620 0
M  V30 57 H 9.440291 8.969303 -11.473500 0
M  V30 58 H 8.042800 7.991193 -11.662583 0
M  V30 59 H 8.876520 8.451622 -13.088582 0
M  V30 60 H 6.622570 3.190548 -15.811834 0
M  V30 61 H 7.645034 5.724261 -11.954078 0
M  V30 END ATOM
M  V30 BEGIN BOND
M  V30 1 1 6 4
M  V30 2 2 9 2
M  V30 3 1 9 3
M  V30 4 1 13 12
M  V30 5 2 16 1
M  V30 6 1 16 7
M  V30 7 1 18 4
M  V30 8 1 18 8
M  V30 9 1 18 11
M  V30 10 1 19 12
M  V30 11 1 19 17
M  V30 12 1 20 1
M  V30 13 1 20 14
M  V30 14 1 21 2
M  V30 15 2 21 13
M  V30 16 1 22 19
M  V30 17 1 23 7
M  V30 18 1 24 9
M  V30 19 2 24 12
M  V30 20 1 24 15
M  V30 21 1 25 11
M  V30 22 1 26 1
M  V30 23 2 26 23
M  V30 24 1 27 5
M  V30 25 1 27 10
M  V30 26 1 28 19
M  V30 27 1 29 4
M  V30 28 1 29 6
M  V30 29 1 29 26
M  V30 30 1 30 8
M  V30 31 1 30 13
M  V30 32 1 30 27
M  V30 33 1 31 2
M  V30 34 1 32 3
M  V30 35 1 33 5
M  V30 36 1 34 5
M  V30 37 1 35 5
M  V30 38 1 36 8
M  V30 39 1 37 8
M  V30 40 1 38 10
M  V30 41 1 39 10
M  V30 42 1 40 10
M  V30 43 1 41 14
M  V30 44 1 42 14
M  V30 45 1 43 14
M  V30 46 1 44 15
M  V30 47 1 18 45 CFG=1
M  V30 48 1 46 20
M  V30 49 1 47 20
M  V30 50 1 48 21
M  V30 51 1 49 22
M  V30 52 1 50 22
M  V30 53 1 51 22
M  V30 54 1 52 25
M  V30 55 1 53 25
M  V30 56 1 54 25
M  V30 57 1 55 7
M  V30 58 1 56 27
M  V30 59 1 57 28
M  V30 60 1 58 28
M  V30 61 1 59 28
M  V30 62 1 29 60 CFG=3
M  V30 63 1 30 61 CFG=3
M  V30 END BOND
M  V30 END CTAB
M  END
>  <i_epik_Tot_Q>  (1) 
0

>  <i_epik_Tot_abs_Q>  (1) 
0

>  <i_i_glide_confnum>  (1) 
112

>  <i_i_glide_lignum>  (1) 
114

>  <i_i_glide_posenum>  (1) 
270

>  <i_i_glide_rotatable_bonds>  (1) 
11

>  <i_lp_mmshare_version>  (1) 
72125

>  <i_m_source_file_index>  (1) 
48

>  <i_f3d_flags>  (1) 
0

>  <num_sample>  (1) 
50

>  <b_lp_Chiralities_Consistent>  (1) 
1

>  <r_epik_Charging_Adjusted_Penalty>  (1) 
0.45906188326467423

>  <r_epik_Ionization_Penalty>  (1) 
0.024085043624638366

>  <r_epik_Ionization_Penalty_Charging>  (1) 
0

>  <r_epik_Ionization_Penalty_Neutral>  (1) 
0.024085043624638366

>  <r_epik_State_Penalty>  (1) 
0.45906188326467423

>  <r_glide_ring_energy>  (1) 
0

>  <r_i_docking_score>  (1) 
-2.5530827667953009

>  <r_i_glide_ecoul>  (1) 
0.59771888938316331

>  <r_i_glide_eff_state_penalty>  (1) 
0.45906188326467423

>  <r_i_glide_einternal>  (1) 
8.6100137787405266

>  <r_i_glide_emodel>  (1) 
-19.877405389123389

>  <r_i_glide_emodel_strain>  (1) 
3.1355122652119292

>  <r_i_glide_energy>  (1) 
-20.234399547959299

>  <r_i_glide_erotb>  (1) 
0.55490112727109764

>  <r_i_glide_esite>  (1) 
0

>  <r_i_glide_evdw>  (1) 
-20.832118437342462

>  <r_i_glide_gscore>  (1) 
-3.0121446500599749

>  <r_i_glide_gscore_strain>  (1) 
0

>  <r_i_glide_hbond>  (1) 
0

>  <r_i_glide_ligand_efficiency>  (1) 
-0.0851027588931767

>  <r_i_glide_ligand_efficiency_ln>  (1) 
-0.58008822268068871

>  <r_i_glide_ligand_efficiency_sa>  (1) 
-0.26443405877923248

>  <r_i_glide_lipo>  (1) 
-0.88678998153741651

>  <r_i_glide_metal>  (1) 
-0

>  <r_i_glide_rewards>  (1) 
-1.7283077073340074

>  <r_lp_Energy>  (1) 
27.782063999999998

>  <r_lp_tautomer_probability>  (1) 
0.65234765234750614

>  <s_epik_Chemistry_Notes>  (1) 
This compound contains an acetal/aminal-like group ( X-CH(R)-Y where X, Y are N, S, or O) that may be acid/base labile, releasing an aldehyde. This compound has a N-S or N-O group and may undergo hydrolysis at high or low pH.

>  <s_epik_cmdline>  (1) 
J2VwaWtfcHl0aG9uJywgJy1waHQnLCAnMS4wJywgJy1waCcsICc3LjQnLCAnLXRuJywgJzgnLCAnLW1hJywgJzUwMCcsICctaW1hZScsICc8aW5maWxlLm1hZT4nLCAnLW9tYWUnLCAnPG91dGZpbGUubWFlPic=

>  <s_epik_input>  (1) 
W0NIM11bQ0gyXUMxPU5OPU5bQ0BIXTFbQ0BASF0yT04yW0NAQEhdKE9bQ0gzXSlbQ0gyXVtDQEBIXShbQ0hdKFtDSDNdKVtDSDNdKUMoQyhDKEYpKFtDSDNdKVtDSDNdKT1DM1tPSF0pPVtDSF1bQ0gyXUMzPU8=

>  <s_glide_docking_method>  (1) 
confgen

>  <s_i_glide_gridfile>  (1) 
gpcr_drd2_6luq_protein_autoprepared_prepared

>  <s_lp_Force_Field>  (1) 
S-OPLS

>  <s_lp_Variant>  (1) 
DiffSBDD_47_num_sample_50-1

>  <s_m_source_file>  (1) 
generated__ligand_DiffSBDD_2026-05-06_prepared.sdf

>  <GenAI_Model>  (1) 
DiffSBDD

>  <Protein>  (1) 
generic_title2

$$$$
DiffSBDD_10_num_sample_50
     RDKit          3D

  0  0  0  0  0  0  0  0  0  0999 V3000
M  V30 BEGIN CTAB
M  V30 COUNTS 73 74 0 0 1
M  V30 BEGIN ATOM
M  V30 1 C 11.932784 0.831263 -19.199592 0 CFG=2
M  V30 2 C 8.459086 7.266771 -12.011238 0
M  V30 3 C 6.451383 3.312398 -13.159397 0
M  V30 4 C 7.734027 3.385515 -16.727426 0 CFG=1
M  V30 5 C 10.818625 1.766428 -19.707037 0 CFG=2
M  V30 6 N 10.221337 5.656332 -12.297391 0
M  V30 7 N 7.944016 2.292554 -18.838074 0
M  V30 8 C 9.058090 3.182663 -18.763268 0 CFG=1
M  V30 9 S 13.280847 0.326887 -20.405397 0
M  V30 10 C 9.353176 8.346777 -11.435715 0
M  V30 11 S 14.238709 2.194223 -20.711575 0 CHG=-1
M  V30 12 C 13.465997 1.768642 -17.361344 0
M  V30 13 O 9.431474 8.085938 -7.145176 0
M  V30 14 O 14.236309 -0.547475 -19.707520 0
M  V30 15 C 10.596515 0.268758 -19.658794 0 CFG=2
M  V30 16 C 6.710413 4.657585 -10.980005 0
M  V30 17 C 7.502732 2.055783 -17.477107 0 CFG=2
M  V30 18 N 9.434840 7.171782 -9.213496 0 CHG=1
M  V30 19 N 8.079889 5.104809 -12.965372 0
M  V30 20 C 9.457370 8.479133 -9.905943 0
M  V30 21 C 10.132645 4.574881 -16.886715 0
M  V30 22 C 12.383564 0.750692 -17.740798 0
M  V30 23 C 10.866021 2.544754 -21.017454 0
M  V30 24 C 8.028919 3.194214 -15.221078 0
M  V30 25 C 7.159834 4.418407 -12.423916 0
M  V30 26 O 9.731387 -0.131594 -18.618377 0
M  V30 27 C 8.910236 6.060149 -12.397679 0
M  V30 28 O 12.700422 -0.102833 -21.687500 0
M  V30 29 F 6.234932 1.658653 -17.472446 0
M  V30 30 N 5.751119 5.769307 -10.853258 0 CHG=1
M  V30 31 C 10.112142 7.100987 -7.897852 0
M  V30 32 C 8.821942 4.115162 -17.561304 0 CFG=2
M  V30 33 O 10.263197 2.486051 -18.589137 0
M  V30 34 C 6.826360 2.788192 -14.368253 0
M  V30 35 H 7.413171 7.511590 -12.117572 0
M  V30 36 H 5.584497 2.917746 -12.656939 0
M  V30 37 H 6.835386 3.995605 -16.816036 0
M  V30 38 H 10.947762 6.322359 -12.083460 0
M  V30 39 H 8.176637 1.415461 -19.286996 0
M  V30 40 H 9.119780 3.780975 -19.671174 0
M  V30 41 H 9.031363 9.283070 -11.891566 0
M  V30 42 H 10.351809 8.162408 -11.815119 0
M  V30 43 H 13.665431 1.740549 -16.291553 0
M  V30 44 H 14.406245 1.564652 -17.872512 0
M  V30 45 H 13.155898 2.782951 -17.613470 0
M  V30 46 H 8.756800 7.672906 -6.622299 0
M  V30 47 H 10.490923 -0.296354 -20.581652 0
M  V30 48 H 6.227577 3.759013 -10.598171 0
M  V30 49 H 7.570194 4.834017 -10.332941 0
M  V30 50 H 8.092392 1.248889 -17.042636 0
M  V30 51 H 9.822762 6.470646 -9.827982 0
M  V30 52 H 8.660633 9.118683 -9.526232 0
M  V30 53 H 10.392957 8.986142 -9.667843 0
M  V30 54 H 10.645016 3.761388 -16.376361 0
M  V30 55 H 10.824054 4.985070 -17.623524 0
M  V30 56 H 9.942647 5.360536 -16.155036 0
M  V30 57 H 11.527202 0.912840 -17.091650 0
M  V30 58 H 12.735453 -0.259740 -17.533307 0
M  V30 59 H 11.411030 2.007815 -21.789563 0
M  V30 60 H 9.861266 2.712259 -21.403827 0
M  V30 61 H 11.354744 3.507707 -20.863975 0
M  V30 62 H 8.651834 3.996383 -14.874199 0
M  V30 63 H 8.634847 2.300739 -15.148110 0
M  V30 64 H 9.829628 0.508870 -17.928232 0
M  V30 65 H 5.225337 5.635262 -9.998812 0
M  V30 66 H 6.242715 6.655063 -10.765732 0
M  V30 67 H 11.173089 7.339016 -7.987696 0
M  V30 68 H 10.003456 6.115289 -7.443894 0
M  V30 69 H 8.353056 5.011602 -17.971291 0
M  V30 70 H 6.234346 1.992058 -14.782114 0
M  V30 71 H 10.535258 4.808566 -12.760684 0
M  V30 72 H 8.438785 6.997904 -9.091978 0
M  V30 73 H 5.122778 5.794183 -11.642527 0
M  V30 END ATOM
M  V30 BEGIN BOND
M  V30 1 1 5 1
M  V30 2 1 8 7
M  V30 3 1 9 1
M  V30 4 1 10 2
M  V30 5 1 11 9
M  V30 6 2 14 9
M  V30 7 1 15 1
M  V30 8 1 15 5
M  V30 9 1 17 4
M  V30 10 1 17 7
M  V30 11 1 20 10
M  V30 12 1 20 18
M  V30 13 1 1 22 CFG=1
M  V30 14 1 22 12
M  V30 15 1 23 5
M  V30 16 1 24 4
M  V30 17 1 25 3
M  V30 18 1 25 16
M  V30 19 2 25 19
M  V30 20 1 26 15
M  V30 21 2 27 2
M  V30 22 1 27 6
M  V30 23 1 27 19
M  V30 24 2 28 9
M  V30 25 1 29 17
M  V30 26 1 30 16
M  V30 27 1 31 13
M  V30 28 1 31 18
M  V30 29 1 32 4
M  V30 30 1 32 8
M  V30 31 1 32 21
M  V30 32 1 5 33 CFG=1
M  V30 33 1 33 8
M  V30 34 2 34 3
M  V30 35 1 34 24
M  V30 36 1 35 2
M  V30 37 1 36 3
M  V30 38 1 4 37 CFG=1
M  V30 39 1 38 6
M  V30 40 1 39 7
M  V30 41 1 8 40 CFG=3
M  V30 42 1 41 10
M  V30 43 1 42 10
M  V30 44 1 43 12
M  V30 45 1 44 12
M  V30 46 1 45 12
M  V30 47 1 46 13
M  V30 48 1 15 47 CFG=3
M  V30 49 1 48 16
M  V30 50 1 49 16
M  V30 51 1 17 50 CFG=1
M  V30 52 1 51 18
M  V30 53 1 52 20
M  V30 54 1 53 20
M  V30 55 1 54 21
M  V30 56 1 55 21
M  V30 57 1 56 21
M  V30 58 1 57 22
M  V30 59 1 58 22
M  V30 60 1 59 23
M  V30 61 1 60 23
M  V30 62 1 61 23
M  V30 63 1 62 24
M  V30 64 1 63 24
M  V30 65 1 64 26
M  V30 66 1 65 30
M  V30 67 1 66 30
M  V30 68 1 67 31
M  V30 69 1 68 31
M  V30 70 1 32 69 CFG=3
M  V30 71 1 70 34
M  V30 72 1 71 6
M  V30 73 1 72 18
M  V30 74 1 73 30
M  V30 END BOND
M  V30 END CTAB
M  END
>  <i_epik_Tot_Q>  (1) 
1

>  <i_epik_Tot_abs_Q>  (1) 
3

>  <i_i_glide_confnum>  (1) 
2692

>  <i_i_glide_lignum>  (1) 
35

>  <i_i_glide_posenum>  (1) 
371

>  <i_i_glide_rotatable_bonds>  (1) 
15

>  <i_lp_mmshare_version>  (1) 
72125

>  <i_m_source_file_index>  (1) 
11

>  <i_f3d_flags>  (1) 
0

>  <num_sample>  (1) 
50

>  <b_lp_Chiralities_Consistent>  (1) 
1

>  <r_epik_Charging_Adjusted_Penalty>  (1) 
2.168687317063887

>  <r_epik_Ionization_Penalty>  (1) 
1.1047352072338965

>  <r_epik_Ionization_Penalty_Charging>  (1) 
1.0999234457570315

>  <r_epik_Ionization_Penalty_Neutral>  (1) 
0.0048117614768649203

>  <r_epik_State_Penalty>  (1) 
1.0687638713068555

>  <r_glide_ring_energy>  (1) 
0

>  <r_i_docking_score>  (1) 
-2.5524433337424197

>  <r_i_glide_ecoul>  (1) 
-10.60382626079242

>  <r_i_glide_eff_state_penalty>  (1) 
1.0687638713068555

>  <r_i_glide_einternal>  (1) 
10.158456789132645

>  <r_i_glide_emodel>  (1) 
-38.105653544905813

>  <r_i_glide_emodel_strain>  (1) 
6.5579576091195122

>  <r_i_glide_energy>  (1) 
-36.710082468650711

>  <r_i_glide_erotb>  (1) 
0.82219216958862984

>  <r_i_glide_esite>  (1) 
-0.22385093912333717

>  <r_i_glide_evdw>  (1) 
-26.106256207858294

>  <r_i_glide_gscore>  (1) 
-3.6212072050492754

>  <r_i_glide_gscore_strain>  (1) 
0.63948940227987805

>  <r_i_glide_hbond>  (1) 
-0.55186569398306584

>  <r_i_glide_ligand_efficiency>  (1) 
-0.075071862757129987

>  <r_i_glide_ligand_efficiency_ln>  (1) 
-0.56390632603417479

>  <r_i_glide_ligand_efficiency_sa>  (1) 
-0.24320369253188195

>  <r_i_glide_lipo>  (1) 
-0.97515455373256976

>  <r_i_glide_metal>  (1) 
-0

>  <r_i_glide_rewards>  (1) 
-0.43613084056703244

>  <r_lp_Energy>  (1) 
30.519554999999997

>  <s_epik_Chemistry_Notes>  (1) 
This compound has an imine and may undergo hydrolysis. This compound contains an acetal/aminal-like group ( X-CH(R)-Y where X, Y are N, S, or O) that may be acid/base labile, releasing an aldehyde.

>  <s_epik_cmdline>  (1) 
J2VwaWtfcHl0aG9uJywgJy1waHQnLCAnMS4wJywgJy1waCcsICc3LjQnLCAnLXRuJywgJzgnLCAnLW1hJywgJzUwMCcsICctaW1hZScsICc8aW5maWxlLm1hZT4nLCAnLW9tYWUnLCAnPG91dGZpbGUubWFlPic=

>  <s_epik_input>  (1) 
W1NIXVMoPU8pKD1PKVtDQEBdMShbQ0gyXVtDSDNdKVtDQEBdKFtDSDNdKShbQ0BASF0xW09IXSlPW0NASF0oW0NAQEhdMltDSDNdKVtOSF1bQ0BASF0oRilbQ0BIXTJbQ0gyXS9bQ0hdPVtDSF1cQyhbQ0gyXVtOSDJdKT1OXEMoPU5cW0hdKVxbQ0gyXVtDSDJdW0NIMl1bTkhdW0NIMl1bT0hd

>  <s_glide_docking_method>  (1) 
confgen

>  <s_i_glide_gridfile>  (1) 
gpcr_drd2_6luq_protein_autoprepared_prepared

>  <s_lp_Force_Field>  (1) 
S-OPLS

>  <s_lp_Variant>  (1) 
DiffSBDD_10_num_sample_50-15

>  <s_m_source_file>  (1) 
generated__ligand_DiffSBDD_2026-05-06_prepared.sdf

>  <GenAI_Model>  (1) 
DiffSBDD

>  <Protein>  (1) 
generic_title2

$$$$
DiffSBDD_35_num_sample_50
     RDKit          3D

  0  0  0  0  0  0  0  0  0  0999 V3000
M  V30 BEGIN CTAB
M  V30 COUNTS 55 58 0 0 1
M  V30 BEGIN ATOM
M  V30 1 C 11.847929 4.601194 -18.470574 0
M  V30 2 C 14.430135 0.406285 -17.491380 0
M  V30 3 C 13.394369 2.083648 -19.126531 0 CFG=1
M  V30 4 O 11.220196 5.721175 -16.408872 0
M  V30 5 C 15.766221 1.122170 -19.488867 0
M  V30 6 O 18.564587 8.421334 -18.770821 0
M  V30 7 O 10.037378 3.171635 -17.737957 0
M  V30 8 C 15.398040 5.504774 -17.323724 0 CFG=1
M  V30 9 C 15.945382 5.095985 -19.824948 0 CFG=1
M  V30 10 C 15.415805 6.381794 -20.442743 0
M  V30 11 C 11.964257 1.940998 -18.547926 0
M  V30 12 C 14.332661 0.824913 -18.980206 0
M  V30 13 C 17.369493 4.986284 -19.465295 0 CFG=1
M  V30 14 C 16.856640 5.685040 -17.216916 0 CFG=2
M  V30 15 C 14.932017 -0.595260 -20.962616 0
M  V30 16 C 18.109977 7.303999 -18.540020 0
M  V30 17 C 12.325160 5.327134 -17.195622 0 CFG=2
M  V30 18 C 18.394839 6.115137 -19.460519 0
M  V30 19 C 11.174432 3.240535 -18.204550 0
M  V30 20 O 11.449208 0.836102 -18.364961 0
M  V30 21 C 13.120530 6.574356 -17.551343 0
M  V30 22 C 14.465584 6.638882 -17.602570 0
M  V30 23 Cl 13.255999 2.587175 -20.839926 0
M  V30 24 O 17.333098 6.999139 -17.484805 0
M  V30 25 C 16.333105 4.794718 -18.347207 0 CFG=2
M  V30 26 C 15.864053 0.611319 -20.923989 0
M  V30 27 O 17.434899 4.970501 -16.148379 0
M  V30 28 C 13.892256 -0.383677 -19.851070 0
M  V30 29 H 11.124910 5.230110 -18.989192 0
M  V30 30 H 12.679876 4.503832 -19.160763 0
M  V30 31 H 15.045100 -0.483191 -17.373816 0
M  V30 32 H 14.860555 1.199045 -16.879131 0
M  V30 33 H 13.465802 0.144543 -17.060174 0
M  V30 34 H 13.882227 2.902889 -18.601112 0
M  V30 35 H 10.576120 6.130472 -16.966601 0
M  V30 36 H 16.043251 2.170805 -19.404142 0
M  V30 37 H 16.499127 0.561776 -18.908676 0
M  V30 38 H 14.984516 4.844163 -16.567634 0
M  V30 39 H 15.546726 4.235861 -20.356361 0
M  V30 40 H 15.796014 7.274514 -19.952841 0
M  V30 41 H 15.704164 6.428793 -21.492935 0
M  V30 42 H 14.326607 6.397989 -20.397018 0
M  V30 43 H 17.830606 4.062289 -19.809734 0
M  V30 44 H 15.503213 -1.505324 -20.770688 0
M  V30 45 H 14.466048 -0.713987 -21.941041 0
M  V30 46 H 12.908659 4.643526 -16.584058 0
M  V30 47 H 18.520332 6.478637 -20.480797 0
M  V30 48 H 19.356052 5.700132 -19.157048 0
M  V30 49 H 12.543322 7.460569 -17.776024 0
M  V30 50 H 14.924231 7.579405 -17.866110 0
M  V30 51 H 16.886225 0.350379 -21.200432 0
M  V30 52 H 15.530772 1.371364 -21.628743 0
M  V30 53 H 17.175455 5.392228 -15.342093 0
M  V30 54 H 13.834965 -1.295366 -19.255919 0
M  V30 55 H 12.904829 -0.231316 -20.285675 0
M  V30 END ATOM
M  V30 BEGIN BOND
M  V30 1 1 10 9
M  V30 2 1 11 3
M  V30 3 1 12 2
M  V30 4 1 12 3
M  V30 5 1 12 5
M  V30 6 1 13 9
M  V30 7 1 14 8
M  V30 8 2 16 6
M  V30 9 1 17 1
M  V30 10 1 17 4
M  V30 11 1 18 13
M  V30 12 1 18 16
M  V30 13 1 19 1
M  V30 14 2 19 7
M  V30 15 1 19 11
M  V30 16 2 20 11
M  V30 17 1 21 17
M  V30 18 1 22 8
M  V30 19 2 22 21
M  V30 20 1 23 3
M  V30 21 1 24 14
M  V30 22 1 24 16
M  V30 23 1 25 8
M  V30 24 1 25 9
M  V30 25 1 25 13
M  V30 26 1 25 14 CFG=3
M  V30 27 1 26 5
M  V30 28 1 26 15
M  V30 29 1 14 27 CFG=1
M  V30 30 1 28 12
M  V30 31 1 28 15
M  V30 32 1 29 1
M  V30 33 1 30 1
M  V30 34 1 31 2
M  V30 35 1 32 2
M  V30 36 1 33 2
M  V30 37 1 3 34 CFG=1
M  V30 38 1 35 4
M  V30 39 1 36 5
M  V30 40 1 37 5
M  V30 41 1 8 38 CFG=1
M  V30 42 1 9 39 CFG=3
M  V30 43 1 40 10
M  V30 44 1 41 10
M  V30 45 1 42 10
M  V30 46 1 13 43 CFG=3
M  V30 47 1 44 15
M  V30 48 1 45 15
M  V30 49 1 17 46 CFG=1
M  V30 50 1 47 18
M  V30 51 1 48 18
M  V30 52 1 49 21
M  V30 53 1 50 22
M  V30 54 1 51 26
M  V30 55 1 52 26
M  V30 56 1 53 27
M  V30 57 1 54 28
M  V30 58 1 55 28
M  V30 END BOND
M  V30 END CTAB
M  END
>  <i_epik_Tot_Q>  (1) 
0

>  <i_epik_Tot_abs_Q>  (1) 
0

>  <i_i_glide_confnum>  (1) 
508

>  <i_i_glide_lignum>  (1) 
89

>  <i_i_glide_posenum>  (1) 
265

>  <i_i_glide_rotatable_bonds>  (1) 
9

>  <i_lp_mmshare_version>  (1) 
72125

>  <i_m_source_file_index>  (1) 
36

>  <i_f3d_flags>  (1) 
0

>  <num_sample>  (1) 
50

>  <b_lp_Chiralities_Consistent>  (1) 
1

>  <r_epik_Charging_Adjusted_Penalty>  (1) 
0

>  <r_epik_Ionization_Penalty>  (1) 
1.4539570635880344e-05

>  <r_epik_Ionization_Penalty_Charging>  (1) 
0

>  <r_epik_Ionization_Penalty_Neutral>  (1) 
1.4539570635880344e-05

>  <r_epik_State_Penalty>  (1) 
-0

>  <r_glide_ring_energy>  (1) 
0.0026967274923194477

>  <r_i_docking_score>  (1) 
-2.5468446625975369

>  <r_i_glide_ecoul>  (1) 
-1.0410631101312671

>  <r_i_glide_eff_state_penalty>  (1) 
-0

>  <r_i_glide_einternal>  (1) 
6.6493838389799631

>  <r_i_glide_emodel>  (1) 
-22.964884071069051

>  <r_i_glide_emodel_strain>  (1) 
1.5678103893114326

>  <r_i_glide_energy>  (1) 
-24.746174164528902

>  <r_i_glide_erotb>  (1) 
0.81694813045343473

>  <r_i_glide_esite>  (1) 
0

>  <r_i_glide_evdw>  (1) 
-23.705111054397634

>  <r_i_glide_gscore>  (1) 
-2.5468446625975369

>  <r_i_glide_gscore_strain>  (1) 
0

>  <r_i_glide_hbond>  (1) 
-0.23027160839874988

>  <r_i_glide_ligand_efficiency>  (1) 
-0.090958737949912036

>  <r_i_glide_ligand_efficiency_ln>  (1) 
-0.58788652673613895

>  <r_i_glide_ligand_efficiency_sa>  (1) 
-0.27620430055443124

>  <r_i_glide_lipo>  (1) 
-0.87753387171746133

>  <r_i_glide_metal>  (1) 
-0

>  <r_i_glide_rewards>  (1) 
-0.91457229369518878

>  <r_lp_Energy>  (1) 
34.744050999999999

>  <r_lp_tautomer_probability>  (1) 
1

>  <s_epik_Chemistry_Notes>  (1) 
This compound has an ester and may undergo hydrolysis at high or low pH.

>  <s_epik_cmdline>  (1) 
J2VwaWtfcHl0aG9uJywgJy1waHQnLCAnMS4wJywgJy1waCcsICc3LjQnLCAnLXRuJywgJzgnLCAnLW1hJywgJzUwMCcsICctaW1hZScsICc8aW5maWxlLm1hZT4nLCAnLW9tYWUnLCAnPG91dGZpbGUubWFlPic=

>  <s_epik_input>  (1) 
W0NIMl0xW0NIMl1bQ0gyXVtDSDJdQzEoW0NIM10pW0NAQEhdKENsKUMoPU8pQyg9TylbQ0gyXVtDQEhdKFtPSF0pL1tDSF09W0NIXVxbQ0BASF0yW0NAXTMoW09IXSlPQyg9TylbQ0gyXVtDQEBIXShDMjM0KVtDQEBIXTRbQ0gzXQ==

>  <s_glide_docking_method>  (1) 
confgen

>  <s_i_glide_gridfile>  (1) 
gpcr_drd2_6luq_protein_autoprepared_prepared

>  <s_lp_Force_Field>  (1) 
S-OPLS

>  <s_lp_Variant>  (1) 
DiffSBDD_35_num_sample_50-1

>  <s_m_source_file>  (1) 
generated__ligand_DiffSBDD_2026-05-06_prepared.sdf

>  <GenAI_Model>  (1) 
DiffSBDD

>  <Protein>  (1) 
generic_title2

$$$$
DiffSBDD_26_num_sample_50
     RDKit          3D

  0  0  0  0  0  0  0  0  0  0999 V3000
M  V30 BEGIN CTAB
M  V30 COUNTS 88 94 0 0 1
M  V30 BEGIN ATOM
M  V30 1 C 11.377559 4.033690 -18.406000 0 CFG=2
M  V30 2 S 5.834800 0.460085 -18.522098 0 CHG=1
M  V30 3 C 16.413408 9.654655 -19.665477 0
M  V30 4 C 6.408943 2.820013 -19.961830 0
M  V30 5 C 11.065645 2.847122 -20.570460 0
M  V30 6 F 8.096935 0.824961 -17.316765 0
M  V30 7 C 13.329903 5.141072 -19.810391 0
M  V30 8 C 10.296660 4.913016 -18.871889 0
M  V30 9 F 7.199565 -1.329192 -22.537081 0
M  V30 10 C 15.657670 5.963170 -19.660853 0
M  V30 11 C 7.839172 3.304571 -20.296402 0
M  V30 12 C 12.716493 4.808393 -18.437108 0
M  V30 13 C 7.497871 -2.759673 -17.891675 0
M  V30 14 O 14.249710 6.223645 -19.701797 0
M  V30 15 C 14.634856 9.855513 -18.086791 0
M  V30 16 C 12.269255 1.728953 -18.510616 0
M  V30 17 C 10.265945 3.614586 -19.525279 0 CFG=2
M  V30 18 C 4.821849 -0.954189 -19.073648 0
M  V30 19 C 16.324750 7.339619 -19.414978 0 CFG=2
M  V30 20 C 6.084263 -2.963726 -18.365871 0 CFG=2
M  V30 21 C 6.867587 0.556626 -21.220907 0 CFG=1
M  V30 22 C 5.513112 -3.584312 -19.615696 0
M  V30 23 C 9.327914 5.769331 -18.139417 0
M  V30 24 C 11.528013 2.750921 -17.608951 0
M  V30 25 C 16.128872 5.388465 -21.014120 0
M  V30 26 C 6.473665 -0.911630 -21.501123 0 CFG=2
M  V30 27 C 8.924675 2.904092 -19.283943 0
M  V30 28 O 15.875128 7.916939 -18.194819 0
M  V30 29 C 5.701981 -2.085571 -19.533534 0 CFG=1
M  V30 30 C 7.519428 -0.136234 -18.034112 0 CFG=1
M  V30 31 O 6.787946 -1.719810 -20.379070 0
M  V30 32 C 10.149501 6.318664 -19.341794 0
M  V30 33 C 16.030391 8.417296 -20.442359 0
M  V30 34 C 7.597836 -1.405825 -17.150200 0
M  V30 35 C 11.662899 1.556471 -19.934304 0
M  V30 36 N 15.989878 9.369356 -18.298426 0
M  V30 37 C 16.032062 5.000006 -18.515787 0
M  V30 38 F 6.683296 1.225592 -22.361034 0
M  V30 39 C 6.052606 1.315244 -20.136282 0 CFG=1
M  V30 40 H 15.979771 10.569922 -20.071792 0
M  V30 41 H 17.497662 9.771338 -19.667729 0
M  V30 42 H 6.135123 3.157179 -18.961131 0
M  V30 43 H 5.744784 3.377311 -20.624534 0
M  V30 44 H 11.838706 3.465681 -21.008762 0
M  V30 45 H 10.421267 2.578616 -21.407433 0
M  V30 46 H 12.552606 5.496280 -20.485121 0
M  V30 47 H 13.770544 4.256923 -20.267710 0
M  V30 48 H 7.806727 4.393660 -20.339646 0
M  V30 49 H 8.125546 2.999554 -21.301987 0
M  V30 50 H 13.460269 4.288725 -17.836095 0
M  V30 51 H 12.557151 5.744714 -17.900701 0
M  V30 52 H 7.751054 -3.576248 -17.214394 0
M  V30 53 H 8.206957 -2.817824 -18.717812 0
M  V30 54 H 14.595390 10.942015 -18.174713 0
M  V30 55 H 14.283304 9.587090 -17.091692 0
M  V30 56 H 13.938643 9.427155 -18.809036 0
M  V30 57 H 13.304881 2.051720 -18.621580 0
M  V30 58 H 12.319622 0.761911 -18.009427 0
M  V30 59 H 4.196666 -1.282002 -18.242193 0
M  V30 60 H 4.134825 -0.651523 -19.862242 0
M  V30 61 H 17.406679 7.215107 -19.338632 0
M  V30 62 H 5.393833 -3.030900 -17.525200 0
M  V30 63 H 7.935914 0.603979 -21.014006 0
M  V30 64 H 4.492456 -3.959789 -19.575382 0
M  V30 65 H 6.193567 -4.156650 -20.243418 0
M  V30 66 H 8.264044 5.603806 -18.292327 0
M  V30 67 H 9.615968 6.089937 -17.140865 0
M  V30 68 H 12.087648 2.938312 -16.691697 0
M  V30 69 H 10.559243 2.366606 -17.292424 0
M  V30 70 H 17.217461 5.350942 -21.064109 0
M  V30 71 H 15.770633 4.373483 -21.182005 0
M  V30 72 H 15.781836 5.998001 -21.848527 0
M  V30 73 H 5.434842 -1.019025 -21.809662 0
M  V30 74 H 9.064624 1.829590 -19.307923 0
M  V30 75 H 8.573075 3.137222 -18.278474 0
M  V30 76 H 8.155610 -0.276825 -18.904914 0
M  V30 77 H 10.942927 7.029394 -19.119234 0
M  V30 78 H 9.622581 6.481477 -20.279502 0
M  V30 79 H 16.609233 8.303011 -21.358762 0
M  V30 80 H 14.972287 8.443276 -20.705574 0
M  V30 81 H 6.851259 -1.343956 -16.356978 0
M  V30 82 H 8.563763 -1.403369 -16.642335 0
M  V30 83 H 12.413779 1.133786 -20.602706 0
M  V30 84 H 10.884879 0.795909 -19.877522 0
M  V30 85 H 17.114417 4.906514 -18.424653 0
M  V30 86 H 15.652819 5.358829 -17.558442 0
M  V30 87 H 15.635512 3.998304 -18.680177 0
M  V30 88 H 5.029794 1.340489 -20.515896 0
M  V30 END ATOM
M  V30 BEGIN BOND
M  V30 1 1 8 1
M  V30 2 1 11 4
M  V30 3 1 1 12 CFG=3
M  V30 4 1 12 7
M  V30 5 1 14 7
M  V30 6 1 14 10
M  V30 7 1 17 1
M  V30 8 1 17 5
M  V30 9 1 17 8
M  V30 10 1 2 18 CFG=3
M  V30 11 1 19 10
M  V30 12 1 20 13
M  V30 13 1 22 20
M  V30 14 1 23 8
M  V30 15 1 24 1
M  V30 16 1 24 16
M  V30 17 1 25 10
M  V30 18 1 26 9
M  V30 19 1 26 21
M  V30 20 1 27 11
M  V30 21 1 17 27 CFG=1
M  V30 22 1 28 19
M  V30 23 1 29 18
M  V30 24 1 29 20
M  V30 25 1 29 22
M  V30 26 1 30 2
M  V30 27 1 30 6
M  V30 28 1 31 26
M  V30 29 1 29 31 CFG=3
M  V30 30 1 32 8
M  V30 31 1 32 23
M  V30 32 1 33 3
M  V30 33 1 33 19
M  V30 34 1 34 13
M  V30 35 1 34 30
M  V30 36 1 35 5
M  V30 37 1 35 16
M  V30 38 1 36 3
M  V30 39 1 36 15
M  V30 40 1 36 28
M  V30 41 1 37 10
M  V30 42 1 38 21
M  V30 43 1 39 2
M  V30 44 1 39 4
M  V30 45 1 39 21
M  V30 46 1 40 3
M  V30 47 1 41 3
M  V30 48 1 42 4
M  V30 49 1 43 4
M  V30 50 1 44 5
M  V30 51 1 45 5
M  V30 52 1 46 7
M  V30 53 1 47 7
M  V30 54 1 48 11
M  V30 55 1 49 11
M  V30 56 1 50 12
M  V30 57 1 51 12
M  V30 58 1 52 13
M  V30 59 1 53 13
M  V30 60 1 54 15
M  V30 61 1 55 15
M  V30 62 1 56 15
M  V30 63 1 57 16
M  V30 64 1 58 16
M  V30 65 1 59 18
M  V30 66 1 60 18
M  V30 67 1 19 61 CFG=1
M  V30 68 1 20 62 CFG=1
M  V30 69 1 21 63 CFG=1
M  V30 70 1 64 22
M  V30 71 1 65 22
M  V30 72 1 66 23
M  V30 73 1 67 23
M  V30 74 1 68 24
M  V30 75 1 69 24
M  V30 76 1 70 25
M  V30 77 1 71 25
M  V30 78 1 72 25
M  V30 79 1 26 73 CFG=3
M  V30 80 1 74 27
M  V30 81 1 75 27
M  V30 82 1 30 76 CFG=3
M  V30 83 1 77 32
M  V30 84 1 78 32
M  V30 85 1 79 33
M  V30 86 1 80 33
M  V30 87 1 81 34
M  V30 88 1 82 34
M  V30 89 1 83 35
M  V30 90 1 84 35
M  V30 91 1 85 37
M  V30 92 1 86 37
M  V30 93 1 87 37
M  V30 94 1 39 88 CFG=3
M  V30 END BOND
M  V30 END CTAB
M  END
>  <i_epik_Tot_Q>  (1) 
1

>  <i_epik_Tot_abs_Q>  (1) 
1

>  <i_i_glide_confnum>  (1) 
1053

>  <i_i_glide_lignum>  (1) 
68

>  <i_i_glide_posenum>  (1) 
333

>  <i_i_glide_rotatable_bonds>  (1) 
9

>  <i_lp_mmshare_version>  (1) 
72125

>  <i_m_source_file_index>  (1) 
27

>  <i_f3d_flags>  (1) 
0

>  <num_sample>  (1) 
50

>  <b_lp_Chiralities_Consistent>  (1) 
1

>  <r_epik_Charging_Adjusted_Penalty>  (1) 
0.0064700825840893978

>  <r_epik_Ionization_Penalty>  (1) 
0.0064700825864937349

>  <r_epik_Ionization_Penalty_Charging>  (1) 
0

>  <r_epik_Ionization_Penalty_Neutral>  (1) 
0.0064700825864937349

>  <r_epik_State_Penalty>  (1) 
0.0064700825840893978

>  <r_glide_ring_energy>  (1) 
0.038362801895993927

>  <r_i_docking_score>  (1) 
-2.537884699963509

>  <r_i_glide_ecoul>  (1) 
-4.371592848449847

>  <r_i_glide_eff_state_penalty>  (1) 
0.0064700825840893978

>  <r_i_glide_einternal>  (1) 
20.693721188675145

>  <r_i_glide_emodel>  (1) 
-18.755634216598608

>  <r_i_glide_emodel_strain>  (1) 
0

>  <r_i_glide_energy>  (1) 
-26.83435227444286

>  <r_i_glide_erotb>  (1) 
0.41602518103618852

>  <r_i_glide_esite>  (1) 
-0.010889257546903291

>  <r_i_glide_evdw>  (1) 
-22.462759425993013

>  <r_i_glide_gscore>  (1) 
-2.5443547825475985

>  <r_i_glide_gscore_strain>  (1) 
0

>  <r_i_glide_hbond>  (1) 
0

>  <r_i_glide_ligand_efficiency>  (1) 
-0.065073966665730995

>  <r_i_glide_ligand_efficiency_ln>  (1) 
-0.54419452181354444

>  <r_i_glide_ligand_efficiency_sa>  (1) 
-0.22067958039914942

>  <r_i_glide_lipo>  (1) 
-0.75168513363014777

>  <r_i_glide_metal>  (1) 
-0

>  <r_i_glide_rewards>  (1) 
-0.41892867383960808

>  <r_lp_Energy>  (1) 
87.03259899999999

>  <s_epik_Chemistry_Notes>  (1) 
This compound has a N-S or N-O group and may undergo hydrolysis at high or low pH.

>  <s_epik_cmdline>  (1) 
J2VwaWtfcHl0aG9uJywgJy1waHQnLCAnMS4wJywgJy1waCcsICc3LjQnLCAnLXRuJywgJzgnLCAnLW1hJywgJzUwMCcsICctaW1hZScsICc8aW5maWxlLm1hZT4nLCAnLW9tYWUnLCAnPG91dGZpbGUubWFlPic=

>  <s_epik_input>  (1) 
W0NIMl0xW0NIMl1OKFtDSDNdKU9bQ0BIXTFDKFtDSDNdKShbQ0gzXSlPW0NIMl1bQ0gyXVtDQEBdMihDMzRbQ0gyXVtDSDJdNClDMyhbQ0gyXVtDSDJdW0NIMl1bQ0gyXTIpW0NIMl1bQ0gyXVtDSDJdW0NAQEhdKFtDQEhdKEYpW0NAQEhdKEYpTzUpW1MrXShbQ0gyXTYpW0NAQEhdKEYpW0NIMl1bQ0gyXVtDQEBIXShDNTY3KVtDSDJdNw==

>  <s_glide_docking_method>  (1) 
confgen

>  <s_i_glide_gridfile>  (1) 
gpcr_drd2_6luq_protein_autoprepared_prepared

>  <s_lp_Force_Field>  (1) 
S-OPLS

>  <s_lp_Variant>  (1) 
DiffSBDD_26_num_sample_50-1

>  <s_m_source_file>  (1) 
generated__ligand_DiffSBDD_2026-05-06_prepared.sdf

>  <GenAI_Model>  (1) 
DiffSBDD

>  <Protein>  (1) 
generic_title2

$$$$
DiffSBDD_10_num_sample_50
     RDKit          3D

  0  0  0  0  0  0  0  0  0  0999 V3000
M  V30 BEGIN CTAB
M  V30 COUNTS 73 74 0 0 1
M  V30 BEGIN ATOM
M  V30 1 C 12.949910 1.349287 -18.778995 0 CFG=2
M  V30 2 C 9.569470 7.078342 -11.599866 0
M  V30 3 C 6.435261 5.160962 -14.429430 0
M  V30 4 C 8.899674 5.038728 -17.396178 0 CFG=1
M  V30 5 C 12.110885 2.421563 -19.491070 0 CFG=2
M  V30 6 N 9.434765 4.692307 -11.212378 0
M  V30 7 N 9.398904 3.596718 -19.176955 0
M  V30 8 C 10.631213 4.272445 -18.896860 0 CFG=1
M  V30 9 S 14.202673 0.396088 -19.798653 0
M  V30 10 C 10.414509 7.409197 -10.376542 0
M  V30 11 S 15.595948 1.935171 -20.233140 0 CHG=-1
M  V30 12 C 14.560084 2.194999 -16.967104 0
M  V30 13 O 9.852931 6.877015 -6.291911 0
M  V30 14 O 14.878605 -0.570756 -18.921556 0
M  V30 15 C 11.546722 1.032562 -19.273087 0 CFG=2
M  V30 16 C 6.301997 5.267973 -11.877981 0
M  V30 17 C 8.589162 3.653424 -17.977459 0 CFG=2
M  V30 18 N 10.450540 8.145813 -7.990553 0 CHG=1
M  V30 19 N 8.411938 5.610094 -13.085902 0
M  V30 20 C 9.597863 7.824848 -9.153257 0
M  V30 21 C 11.407715 5.148514 -16.602785 0
M  V30 22 C 13.299219 1.388149 -17.289584 0
M  V30 23 C 12.417382 2.996142 -20.869173 0
M  V30 24 C 8.532924 5.203202 -15.907368 0
M  V30 25 C 7.159066 5.362053 -13.133626 0
M  V30 26 O 10.566573 0.987125 -18.257070 0
M  V30 27 C 9.159723 5.836224 -11.934362 0
M  V30 28 O 13.610900 -0.054000 -21.068666 0
M  V30 29 F 7.304187 3.492568 -18.290271 0
M  V30 30 N 5.834842 6.603653 -11.491652 0 CHG=1
M  V30 31 C 10.911955 6.984783 -7.209024 0
M  V30 32 C 10.383067 5.282590 -17.751729 0 CFG=2
M  V30 33 O 11.645647 3.379101 -18.527921 0
M  V30 34 C 7.035912 5.100076 -15.646406 0
M  V30 35 H 9.296994 7.912716 -12.230944 0
M  V30 36 H 5.362989 5.062566 -14.348151 0
M  V30 37 H 8.318555 5.766586 -17.966079 0
M  V30 38 H 10.044799 4.708828 -10.409130 0
M  V30 39 H 9.540952 2.632296 -19.447424 0
M  V30 40 H 10.955766 4.813038 -19.786157 0
M  V30 41 H 11.106030 8.203744 -10.658252 0
M  V30 42 H 11.034836 6.569315 -10.105759 0
M  V30 43 H 14.704227 2.281909 -15.892304 0
M  V30 44 H 15.444788 1.711127 -17.374124 0
M  V30 45 H 14.498804 3.202380 -17.379113 0
M  V30 46 H 9.785240 5.980479 -5.992251 0
M  V30 47 H 11.360305 0.378394 -20.121623 0
M  V30 48 H 5.433477 4.640193 -12.081508 0
M  V30 49 H 6.825130 4.797870 -11.046124 0
M  V30 50 H 8.874051 2.858581 -17.287869 0
M  V30 51 H 9.904193 8.704764 -7.350978 0
M  V30 52 H 8.907828 7.027028 -8.874000 0
M  V30 53 H 9.034841 8.722276 -9.398986 0
M  V30 54 H 11.358436 4.169328 -16.129693 0
M  V30 55 H 12.425201 5.289568 -16.968089 0
M  V30 56 H 11.243801 5.895858 -15.826841 0
M  V30 57 H 12.474020 1.818378 -16.725155 0
M  V30 58 H 13.417466 0.365879 -16.932229 0
M  V30 59 H 12.863235 2.255794 -21.527616 0
M  V30 60 H 11.504931 3.342805 -21.352537 0
M  V30 61 H 13.113041 3.831626 -20.780178 0
M  V30 62 H 8.882293 6.169336 -15.560773 0
M  V30 63 H 9.046959 4.436585 -15.326636 0
M  V30 64 H 10.776870 1.687409 -17.653725 0
M  V30 65 H 4.995965 6.516398 -10.937081 0
M  V30 66 H 6.525277 7.071026 -10.897473 0
M  V30 67 H 11.835493 7.207182 -6.678425 0
M  V30 68 H 11.034187 6.079851 -7.805215 0
M  V30 69 H 10.478659 6.284152 -18.172604 0
M  V30 70 H 6.416611 4.964056 -16.519571 0
M  V30 71 H 9.209064 3.776304 -11.575635 0
M  V30 72 H 11.243967 8.683860 -8.306205 0
M  V30 73 H 5.646458 7.167147 -12.307177 0
M  V30 END ATOM
M  V30 BEGIN BOND
M  V30 1 1 5 1
M  V30 2 1 8 7
M  V30 3 1 9 1
M  V30 4 1 10 2
M  V30 5 1 11 9
M  V30 6 2 14 9
M  V30 7 1 15 1
M  V30 8 1 15 5
M  V30 9 1 17 4
M  V30 10 1 17 7
M  V30 11 1 20 10
M  V30 12 1 20 18
M  V30 13 1 1 22 CFG=1
M  V30 14 1 22 12
M  V30 15 1 23 5
M  V30 16 1 24 4
M  V30 17 1 25 3
M  V30 18 1 25 16
M  V30 19 2 25 19
M  V30 20 1 26 15
M  V30 21 2 27 2
M  V30 22 1 27 6
M  V30 23 1 27 19
M  V30 24 2 28 9
M  V30 25 1 29 17
M  V30 26 1 30 16
M  V30 27 1 31 13
M  V30 28 1 31 18
M  V30 29 1 32 4
M  V30 30 1 32 8
M  V30 31 1 32 21
M  V30 32 1 5 33 CFG=1
M  V30 33 1 33 8
M  V30 34 2 34 3
M  V30 35 1 34 24
M  V30 36 1 35 2
M  V30 37 1 36 3
M  V30 38 1 4 37 CFG=3
M  V30 39 1 38 6
M  V30 40 1 39 7
M  V30 41 1 8 40 CFG=3
M  V30 42 1 41 10
M  V30 43 1 42 10
M  V30 44 1 43 12
M  V30 45 1 44 12
M  V30 46 1 45 12
M  V30 47 1 46 13
M  V30 48 1 15 47 CFG=3
M  V30 49 1 48 16
M  V30 50 1 49 16
M  V30 51 1 17 50 CFG=1
M  V30 52 1 51 18
M  V30 53 1 52 20
M  V30 54 1 53 20
M  V30 55 1 54 21
M  V30 56 1 55 21
M  V30 57 1 56 21
M  V30 58 1 57 22
M  V30 59 1 58 22
M  V30 60 1 59 23
M  V30 61 1 60 23
M  V30 62 1 61 23
M  V30 63 1 62 24
M  V30 64 1 63 24
M  V30 65 1 64 26
M  V30 66 1 65 30
M  V30 67 1 66 30
M  V30 68 1 67 31
M  V30 69 1 68 31
M  V30 70 1 32 69 CFG=3
M  V30 71 1 70 34
M  V30 72 1 71 6
M  V30 73 1 72 18
M  V30 74 1 73 30
M  V30 END BOND
M  V30 END CTAB
M  END
>  <i_epik_Tot_Q>  (1) 
1

>  <i_epik_Tot_abs_Q>  (1) 
3

>  <i_i_glide_confnum>  (1) 
743

>  <i_i_glide_lignum>  (1) 
35

>  <i_i_glide_posenum>  (1) 
310

>  <i_i_glide_rotatable_bonds>  (1) 
15

>  <i_lp_mmshare_version>  (1) 
72125

>  <i_m_source_file_index>  (1) 
11

>  <i_f3d_flags>  (1) 
0

>  <num_sample>  (1) 
50

>  <b_lp_Chiralities_Consistent>  (1) 
1

>  <r_epik_Charging_Adjusted_Penalty>  (1) 
2.168687317063887

>  <r_epik_Ionization_Penalty>  (1) 
1.1047352072338965

>  <r_epik_Ionization_Penalty_Charging>  (1) 
1.0999234457570315

>  <r_epik_Ionization_Penalty_Neutral>  (1) 
0.0048117614768649203

>  <r_epik_State_Penalty>  (1) 
1.0687638713068555

>  <r_glide_ring_energy>  (1) 
0

>  <r_i_docking_score>  (1) 
-2.5076901707266899

>  <r_i_glide_ecoul>  (1) 
-5.7569669727752935

>  <r_i_glide_eff_state_penalty>  (1) 
1.0687638713068555

>  <r_i_glide_einternal>  (1) 
12.758525969299702

>  <r_i_glide_emodel>  (1) 
-41.275889036109092

>  <r_i_glide_emodel_strain>  (1) 
0.91462565247545058

>  <r_i_glide_energy>  (1) 
-35.698087626776029

>  <r_i_glide_erotb>  (1) 
0.82219216958862984

>  <r_i_glide_esite>  (1) 
-0.11760586950918546

>  <r_i_glide_evdw>  (1) 
-29.941120654000734

>  <r_i_glide_gscore>  (1) 
-3.5764540420335451

>  <r_i_glide_gscore_strain>  (1) 
0

>  <r_i_glide_hbond>  (1) 
-0.19226287768152373

>  <r_i_glide_ligand_efficiency>  (1) 
-0.073755593256667348

>  <r_i_glide_ligand_efficiency_ln>  (1) 
-0.55401909704029684

>  <r_i_glide_ligand_efficiency_sa>  (1) 
-0.23893949032452155

>  <r_i_glide_lipo>  (1) 
-0.80134307247274428

>  <r_i_glide_metal>  (1) 
-0

>  <r_i_glide_rewards>  (1) 
-0.92683331334239116

>  <r_lp_Energy>  (1) 
30.519554999999997

>  <s_epik_Chemistry_Notes>  (1) 
This compound has an imine and may undergo hydrolysis. This compound contains an acetal/aminal-like group ( X-CH(R)-Y where X, Y are N, S, or O) that may be acid/base labile, releasing an aldehyde.

>  <s_epik_cmdline>  (1) 
J2VwaWtfcHl0aG9uJywgJy1waHQnLCAnMS4wJywgJy1waCcsICc3LjQnLCAnLXRuJywgJzgnLCAnLW1hJywgJzUwMCcsICctaW1hZScsICc8aW5maWxlLm1hZT4nLCAnLW9tYWUnLCAnPG91dGZpbGUubWFlPic=

>  <s_epik_input>  (1) 
W1NIXVMoPU8pKD1PKVtDQEBdMShbQ0gyXVtDSDNdKVtDQEBdKFtDSDNdKShbQ0BASF0xW09IXSlPW0NASF0oW0NAQEhdMltDSDNdKVtOSF1bQ0BASF0oRilbQ0BIXTJbQ0gyXS9bQ0hdPVtDSF1cQyhbQ0gyXVtOSDJdKT1OXEMoPU5cW0hdKVxbQ0gyXVtDSDJdW0NIMl1bTkhdW0NIMl1bT0hd

>  <s_glide_docking_method>  (1) 
confgen

>  <s_i_glide_gridfile>  (1) 
gpcr_drd2_6luq_protein_autoprepared_prepared

>  <s_lp_Force_Field>  (1) 
S-OPLS

>  <s_lp_Variant>  (1) 
DiffSBDD_10_num_sample_50-15

>  <s_m_source_file>  (1) 
generated__ligand_DiffSBDD_2026-05-06_prepared.sdf

>  <GenAI_Model>  (1) 
DiffSBDD

>  <Protein>  (1) 
generic_title2

$$$$
DiffSBDD_29_num_sample_50
     RDKit          3D

  0  0  0  0  0  0  0  0  0  0999 V3000
M  V30 BEGIN CTAB
M  V30 COUNTS 64 67 0 0 1
M  V30 BEGIN ATOM
M  V30 1 C 7.506164 0.473074 -17.604885 0
M  V30 2 O 11.814538 5.814543 -18.017430 0
M  V30 3 C 13.936986 3.611855 -18.601778 0
M  V30 4 C 8.065607 1.234499 -16.438115 0
M  V30 5 O 13.596105 6.950986 -20.371052 0
M  V30 6 N 9.776579 4.026681 -18.561962 0 CFG=1 CHG=1
M  V30 7 C 13.950305 4.694280 -19.695674 0
M  V30 8 C 13.957043 4.762789 -16.317130 0
M  V30 9 C 13.034793 6.969575 -15.516270 0
M  V30 10 C 5.902579 -0.848395 -18.797034 0
M  V30 11 C 8.968422 3.426733 -17.472152 0
M  V30 12 C 9.595177 3.296576 -19.843396 0
M  V30 13 C 14.124666 8.271472 -20.396202 0
M  V30 14 C 13.054221 6.513451 -18.017705 0 CFG=1
M  V30 15 C 8.273644 0.492582 -18.705483 0
M  V30 16 C 10.037696 1.832552 -19.703453 0
M  V30 17 C 9.298497 1.932428 -17.241775 0 CFG=2
M  V30 18 C 13.764548 6.253399 -16.664849 0 CFG=2
M  V30 19 C 6.280640 -0.203162 -17.607394 0
M  V30 20 C 10.904179 6.180431 -19.044209 0
M  V30 21 N 7.969380 -0.096203 -19.888650 0
M  V30 22 C 13.956409 6.169301 -19.235324 0 CFG=2
M  V30 23 C 14.752232 3.937866 -17.342454 0
M  V30 24 N 9.437594 1.193877 -18.531477 0
M  V30 25 C 6.778825 -0.768468 -19.911205 0
M  V30 26 N 4.740918 -0.230692 -15.499273 0
M  V30 27 C 9.582346 5.493148 -18.688985 0
M  V30 28 C 5.424185 -0.228473 -16.431725 0
M  V30 29 C 13.708615 8.934957 -21.710593 0
M  V30 30 H 14.316726 2.688187 -19.040444 0
M  V30 31 H 12.908483 3.387488 -18.317654 0
M  V30 32 H 7.358722 1.945639 -16.007740 0
M  V30 33 H 8.412426 0.541917 -15.670377 0
M  V30 34 H 14.827592 4.542949 -20.325574 0
M  V30 35 H 13.099804 4.515423 -20.352882 0
M  V30 36 H 14.482641 4.702393 -15.363765 0
M  V30 37 H 12.988095 4.294029 -16.141235 0
M  V30 38 H 12.000102 6.634623 -15.434062 0
M  V30 39 H 13.516744 6.775580 -14.557779 0
M  V30 40 H 13.034830 8.049742 -15.666707 0
M  V30 41 H 4.968108 -1.387433 -18.864859 0
M  V30 42 H 7.914370 3.544276 -17.731144 0
M  V30 43 H 9.125287 3.971690 -16.540009 0
M  V30 44 H 10.175014 3.772499 -20.634850 0
M  V30 45 H 8.547915 3.342816 -20.147368 0
M  V30 46 H 13.757967 8.863272 -19.557435 0
M  V30 47 H 15.213201 8.245360 -20.329503 0
M  V30 48 H 12.832487 7.580575 -18.036880 0
M  V30 49 H 11.119302 1.796718 -19.570604 0
M  V30 50 H 9.842064 1.289559 -20.628121 0
M  V30 51 H 10.233422 1.841091 -16.691747 0
M  V30 52 H 14.755836 6.705259 -16.717535 0
M  V30 53 H 11.256178 5.856261 -20.022504 0
M  V30 54 H 10.769357 7.261891 -19.091607 0
M  V30 55 H 14.988782 6.414641 -18.979410 0
M  V30 56 H 15.695663 4.422480 -17.596346 0
M  V30 57 H 15.020543 2.994219 -16.865438 0
M  V30 58 H 6.519826 -1.249861 -20.842618 0
M  V30 59 H 8.808788 5.721351 -19.423663 0
M  V30 60 H 9.236641 5.909535 -17.741922 0
M  V30 61 H 14.081766 9.958050 -21.766609 0
M  V30 62 H 14.103957 8.387329 -22.565994 0
M  V30 63 H 12.623689 8.969085 -21.808848 0
M  V30 64 H 10.742476 3.913265 -18.282380 0
M  V30 END ATOM
M  V30 BEGIN BOND
M  V30 1 1 4 1
M  V30 2 1 7 3
M  V30 3 1 11 6
M  V30 4 1 12 6
M  V30 5 1 13 5
M  V30 6 1 14 2
M  V30 7 1 15 1
M  V30 8 1 16 12
M  V30 9 1 17 4
M  V30 10 1 17 11
M  V30 11 1 18 8
M  V30 12 1 18 9
M  V30 13 1 18 14
M  V30 14 2 19 1
M  V30 15 1 19 10
M  V30 16 1 20 2
M  V30 17 2 21 15
M  V30 18 1 22 5
M  V30 19 1 22 7
M  V30 20 1 22 14
M  V30 21 1 23 3
M  V30 22 1 23 8
M  V30 23 1 24 15
M  V30 24 1 24 16
M  V30 25 1 24 17
M  V30 26 2 25 10
M  V30 27 1 25 21
M  V30 28 1 27 6
M  V30 29 1 27 20
M  V30 30 1 28 19
M  V30 31 3 28 26
M  V30 32 1 29 13
M  V30 33 1 30 3
M  V30 34 1 31 3
M  V30 35 1 32 4
M  V30 36 1 33 4
M  V30 37 1 34 7
M  V30 38 1 35 7
M  V30 39 1 36 8
M  V30 40 1 37 8
M  V30 41 1 38 9
M  V30 42 1 39 9
M  V30 43 1 40 9
M  V30 44 1 41 10
M  V30 45 1 42 11
M  V30 46 1 43 11
M  V30 47 1 44 12
M  V30 48 1 45 12
M  V30 49 1 46 13
M  V30 50 1 47 13
M  V30 51 1 14 48 CFG=3
M  V30 52 1 49 16
M  V30 53 1 50 16
M  V30 54 1 17 51 CFG=1
M  V30 55 1 18 52 CFG=3
M  V30 56 1 53 20
M  V30 57 1 54 20
M  V30 58 1 22 55 CFG=1
M  V30 59 1 56 23
M  V30 60 1 57 23
M  V30 61 1 58 25
M  V30 62 1 59 27
M  V30 63 1 60 27
M  V30 64 1 61 29
M  V30 65 1 62 29
M  V30 66 1 63 29
M  V30 67 1 6 64 CFG=1
M  V30 END BOND
M  V30 END CTAB
M  END
>  <i_epik_Tot_Q>  (1) 
1

>  <i_epik_Tot_abs_Q>  (1) 
1

>  <i_i_glide_confnum>  (1) 
474

>  <i_i_glide_lignum>  (1) 
74

>  <i_i_glide_posenum>  (1) 
43

>  <i_i_glide_rotatable_bonds>  (1) 
6

>  <i_lp_mmshare_version>  (1) 
72125

>  <i_m_source_file_index>  (1) 
30

>  <i_f3d_flags>  (1) 
0

>  <num_sample>  (1) 
50

>  <b_lp_Chiralities_Consistent>  (1) 
1

>  <r_epik_Charging_Adjusted_Penalty>  (1) 
1.0026227849201053

>  <r_epik_Ionization_Penalty>  (1) 
0.50131159217577048

>  <r_epik_Ionization_Penalty_Charging>  (1) 
0.50131139246005263

>  <r_epik_Ionization_Penalty_Neutral>  (1) 
1.9971571790720627e-07

>  <r_epik_State_Penalty>  (1) 
0.50131139246005263

>  <r_glide_ring_energy>  (1) 
2.1772854531359442

>  <r_i_docking_score>  (1) 
-2.498364297139045

>  <r_i_glide_ecoul>  (1) 
-1.8589273470847421

>  <r_i_glide_eff_state_penalty>  (1) 
0.50131139246005263

>  <r_i_glide_einternal>  (1) 
4.1946857712958749

>  <r_i_glide_emodel>  (1) 
-28.625465945674424

>  <r_i_glide_emodel_strain>  (1) 
0

>  <r_i_glide_energy>  (1) 
-25.623666299813816

>  <r_i_glide_erotb>  (1) 
0.6137117962777916

>  <r_i_glide_esite>  (1) 
0

>  <r_i_glide_evdw>  (1) 
-23.764738952729076

>  <r_i_glide_gscore>  (1) 
-2.9996756895990977

>  <r_i_glide_gscore_strain>  (1) 
0

>  <r_i_glide_hbond>  (1) 
0

>  <r_i_glide_ligand_efficiency>  (1) 
-0.086150493004794659

>  <r_i_glide_ligand_efficiency_ln>  (1) 
-0.57206207099251671

>  <r_i_glide_ligand_efficiency_sa>  (1) 
-0.26468160919976153

>  <r_i_glide_lipo>  (1) 
-1.113783150778684

>  <r_i_glide_metal>  (1) 
-0

>  <r_i_glide_rewards>  (1) 
-1.0325282853990405

>  <r_lp_Energy>  (1) 
45.317810000000001

>  <s_epik_cmdline>  (1) 
J2VwaWtfcHl0aG9uJywgJy1waHQnLCAnMS4wJywgJy1waCcsICc3LjQnLCAnLXRuJywgJzgnLCAnLW1hJywgJzUwMCcsICctaW1hZScsICc8aW5maWxlLm1hZT4nLCAnLW9tYWUnLCAnPG91dGZpbGUubWFlPic=

>  <s_epik_input>  (1) 
TiNDYzFbY0hdW2NIXW5jKGMxMilOM1tDQEhdKFtDSDJdMilbQ0gyXU4oW0NIMl1bQ0gyXTMpW0NIMl1bQ0gyXU9bQ0BIXTRbQ0BASF0oW0NIM10pW0NIMl1bQ0gyXVtDSDJdW0NIMl1bQ0BIXTRPW0NIMl1bQ0gzXQ==

>  <s_glide_docking_method>  (1) 
confgen

>  <s_i_glide_gridfile>  (1) 
gpcr_drd2_6luq_protein_autoprepared_prepared

>  <s_lp_Force_Field>  (1) 
S-OPLS

>  <s_lp_Variant>  (1) 
DiffSBDD_29_num_sample_50-4

>  <s_m_source_file>  (1) 
generated__ligand_DiffSBDD_2026-05-06_prepared.sdf

>  <GenAI_Model>  (1) 
DiffSBDD

>  <Protein>  (1) 
generic_title2

$$$$
DiffSBDD_29_num_sample_50
     RDKit          3D

  0  0  0  0  0  0  0  0  0  0999 V3000
M  V30 BEGIN CTAB
M  V30 COUNTS 64 67 0 0 1
M  V30 BEGIN ATOM
M  V30 1 C 9.834860 6.569314 -10.110205 0
M  V30 2 O 7.121881 4.524305 -16.098524 0
M  V30 3 C 7.800846 2.833816 -19.661300 0
M  V30 4 C 10.180511 6.946969 -11.521789 0
M  V30 5 O 5.560725 5.419516 -18.142159 0
M  V30 6 N 6.530677 6.443553 -12.874230 0 CFG=2 CHG=1
M  V30 7 C 6.599128 3.457727 -18.937241 0
M  V30 8 C 9.152566 2.833245 -17.418818 0
M  V30 9 C 10.283750 4.917648 -16.517181 0
M  V30 10 C 9.905427 6.717607 -7.726033 0
M  V30 11 C 7.851838 7.091552 -12.649439 0
M  V30 12 C 6.089844 5.610947 -11.721944 0
M  V30 13 C 5.434533 6.827671 -18.047887 0
M  V30 14 C 7.803909 5.036570 -17.247429 0 CFG=1
M  V30 15 C 8.906495 5.607739 -10.000276 0
M  V30 16 C 7.138183 4.572290 -11.299960 0
M  V30 17 C 8.982490 6.107043 -12.234320 0 CFG=2
M  V30 18 C 9.199685 4.377413 -17.469540 0 CFG=2
M  V30 19 C 10.384414 7.153412 -8.968295 0
M  V30 20 C 7.477007 5.092204 -14.845933 0
M  V30 21 N 8.406798 5.124475 -8.837660 0
M  V30 22 C 6.847253 4.903680 -18.460923 0 CFG=2
M  V30 23 C 8.819564 2.131460 -18.748140 0
M  V30 24 N 8.483974 5.141925 -11.214647 0
M  V30 25 C 8.905821 5.714768 -7.710936 0
M  V30 26 N 12.234845 8.969285 -9.136400 0
M  V30 27 C 6.291878 5.864938 -14.233154 0
M  V30 28 C 11.409549 8.169884 -9.059570 0
M  V30 29 C 4.011643 7.107142 -17.565104 0
M  V30 30 H 8.301323 3.594268 -20.261751 0
M  V30 31 H 7.436836 2.098448 -20.379910 0
M  V30 32 H 10.124799 8.020897 -11.702958 0
M  V30 33 H 11.164705 6.569645 -11.800647 0
M  V30 34 H 5.769080 3.482696 -19.644659 0
M  V30 35 H 6.265533 2.819843 -18.118444 0
M  V30 36 H 10.118791 2.446348 -17.091610 0
M  V30 37 H 8.451898 2.507496 -16.649972 0
M  V30 38 H 10.147223 4.569388 -15.494011 0
M  V30 39 H 11.273236 4.584734 -16.832397 0
M  V30 40 H 10.301463 6.007632 -16.507325 0
M  V30 41 H 10.279594 7.139690 -6.804952 0
M  V30 42 H 7.699092 7.806538 -11.838862 0
M  V30 43 H 8.142062 7.691544 -13.509726 0
M  V30 44 H 5.137055 5.125352 -11.934209 0
M  V30 45 H 5.897430 6.273445 -10.878072 0
M  V30 46 H 6.139779 7.253344 -17.335933 0
M  V30 47 H 5.615354 7.293494 -19.017251 0
M  V30 48 H 7.965717 6.104857 -17.116304 0
M  V30 49 H 7.171149 3.769465 -12.036070 0
M  V30 50 H 6.823674 4.096886 -10.371293 0
M  V30 51 H 9.385010 5.561563 -13.085118 0
M  V30 52 H 9.541455 4.673248 -18.462361 0
M  V30 53 H 8.321943 5.768104 -14.954152 0
M  V30 54 H 7.785869 4.276134 -14.194086 0
M  V30 55 H 7.245410 5.475828 -19.300679 0
M  V30 56 H 9.739369 1.990264 -19.316956 0
M  V30 57 H 8.462405 1.126094 -18.520174 0
M  V30 58 H 8.502243 5.369302 -6.774537 0
M  V30 59 H 5.403219 5.233139 -14.218890 0
M  V30 60 H 6.050914 6.694044 -14.898754 0
M  V30 61 H 3.853465 8.169285 -17.394948 0
M  V30 62 H 3.276283 6.766914 -18.291694 0
M  V30 63 H 3.813952 6.586205 -16.629885 0
M  V30 64 H 5.878030 7.214494 -12.842693 0
M  V30 END ATOM
M  V30 BEGIN BOND
M  V30 1 1 4 1
M  V30 2 1 7 3
M  V30 3 1 11 6
M  V30 4 1 12 6
M  V30 5 1 13 5
M  V30 6 1 14 2
M  V30 7 1 15 1
M  V30 8 1 16 12
M  V30 9 1 17 4
M  V30 10 1 17 11
M  V30 11 1 18 8
M  V30 12 1 18 9
M  V30 13 1 18 14
M  V30 14 2 19 1
M  V30 15 1 19 10
M  V30 16 1 20 2
M  V30 17 2 21 15
M  V30 18 1 22 5
M  V30 19 1 22 7
M  V30 20 1 22 14
M  V30 21 1 23 3
M  V30 22 1 23 8
M  V30 23 1 24 15
M  V30 24 1 24 16
M  V30 25 1 24 17
M  V30 26 2 25 10
M  V30 27 1 25 21
M  V30 28 1 27 6
M  V30 29 1 27 20
M  V30 30 1 28 19
M  V30 31 3 28 26
M  V30 32 1 29 13
M  V30 33 1 30 3
M  V30 34 1 31 3
M  V30 35 1 32 4
M  V30 36 1 33 4
M  V30 37 1 34 7
M  V30 38 1 35 7
M  V30 39 1 36 8
M  V30 40 1 37 8
M  V30 41 1 38 9
M  V30 42 1 39 9
M  V30 43 1 40 9
M  V30 44 1 41 10
M  V30 45 1 42 11
M  V30 46 1 43 11
M  V30 47 1 44 12
M  V30 48 1 45 12
M  V30 49 1 46 13
M  V30 50 1 47 13
M  V30 51 1 14 48 CFG=1
M  V30 52 1 49 16
M  V30 53 1 50 16
M  V30 54 1 17 51 CFG=3
M  V30 55 1 18 52 CFG=3
M  V30 56 1 53 20
M  V30 57 1 54 20
M  V30 58 1 22 55 CFG=3
M  V30 59 1 56 23
M  V30 60 1 57 23
M  V30 61 1 58 25
M  V30 62 1 59 27
M  V30 63 1 60 27
M  V30 64 1 61 29
M  V30 65 1 62 29
M  V30 66 1 63 29
M  V30 67 1 6 64 CFG=3
M  V30 END BOND
M  V30 END CTAB
M  END
>  <i_epik_Tot_Q>  (1) 
1

>  <i_epik_Tot_abs_Q>  (1) 
1

>  <i_i_glide_confnum>  (1) 
403

>  <i_i_glide_lignum>  (1) 
73

>  <i_i_glide_posenum>  (1) 
361

>  <i_i_glide_rotatable_bonds>  (1) 
6

>  <i_lp_mmshare_version>  (1) 
72125

>  <i_m_source_file_index>  (1) 
30

>  <i_f3d_flags>  (1) 
0

>  <num_sample>  (1) 
50

>  <b_lp_Chiralities_Consistent>  (1) 
1

>  <r_epik_Charging_Adjusted_Penalty>  (1) 
1.0026227849201053

>  <r_epik_Ionization_Penalty>  (1) 
0.50131159217577048

>  <r_epik_Ionization_Penalty_Charging>  (1) 
0.50131139246005263

>  <r_epik_Ionization_Penalty_Neutral>  (1) 
1.9971571790720627e-07

>  <r_epik_State_Penalty>  (1) 
0.50131139246005263

>  <r_glide_ring_energy>  (1) 
1.2730141362043799

>  <r_i_docking_score>  (1) 
-2.4834126424011878

>  <r_i_glide_ecoul>  (1) 
-1.5075195410332709

>  <r_i_glide_eff_state_penalty>  (1) 
0.50131139246005263

>  <r_i_glide_einternal>  (1) 
3.8611027611509954

>  <r_i_glide_emodel>  (1) 
-38.623951009049009

>  <r_i_glide_emodel_strain>  (1) 
0.402159745072737

>  <r_i_glide_energy>  (1) 
-34.705430547433537

>  <r_i_glide_erotb>  (1) 
0.6137117962777916

>  <r_i_glide_esite>  (1) 
-0.0046048836885324114

>  <r_i_glide_evdw>  (1) 
-33.197911006400268

>  <r_i_glide_gscore>  (1) 
-2.9847240348612405

>  <r_i_glide_gscore_strain>  (1) 
0

>  <r_i_glide_hbond>  (1) 
0

>  <r_i_glide_ligand_efficiency>  (1) 
-0.08563491870348923

>  <r_i_glide_ligand_efficiency_ln>  (1) 
-0.56863852119879843

>  <r_i_glide_ligand_efficiency_sa>  (1) 
-0.26309760159896967

>  <r_i_glide_lipo>  (1) 
-1.2821066343402698

>  <r_i_glide_metal>  (1) 
-0

>  <r_i_glide_rewards>  (1) 
-0.42570083163522626

>  <r_lp_Energy>  (1) 
44.156497999999999

>  <s_epik_cmdline>  (1) 
J2VwaWtfcHl0aG9uJywgJy1waHQnLCAnMS4wJywgJy1waCcsICc3LjQnLCAnLXRuJywgJzgnLCAnLW1hJywgJzUwMCcsICctaW1hZScsICc8aW5maWxlLm1hZT4nLCAnLW9tYWUnLCAnPG91dGZpbGUubWFlPic=

>  <s_epik_input>  (1) 
TiNDYzFbY0hdW2NIXW5jKGMxMilOM1tDQEhdKFtDSDJdMilbQ0gyXU4oW0NIMl1bQ0gyXTMpW0NIMl1bQ0gyXU9bQ0BIXTRbQ0BASF0oW0NIM10pW0NIMl1bQ0gyXVtDSDJdW0NIMl1bQ0BIXTRPW0NIMl1bQ0gzXQ==

>  <s_glide_docking_method>  (1) 
confgen

>  <s_i_glide_gridfile>  (1) 
gpcr_drd2_6luq_protein_autoprepared_prepared

>  <s_lp_Force_Field>  (1) 
S-OPLS

>  <s_lp_Variant>  (1) 
DiffSBDD_29_num_sample_50-3

>  <s_m_source_file>  (1) 
generated__ligand_DiffSBDD_2026-05-06_prepared.sdf

>  <GenAI_Model>  (1) 
DiffSBDD

>  <Protein>  (1) 
generic_title2

$$$$
DiffSBDD_29_num_sample_50
     RDKit          3D

  0  0  0  0  0  0  0  0  0  0999 V3000
M  V30 BEGIN CTAB
M  V30 COUNTS 64 67 0 0 1
M  V30 BEGIN ATOM
M  V30 1 C 10.047851 6.752340 -9.439446 0
M  V30 2 O 8.524272 4.907463 -16.003831 0
M  V30 3 C 8.823131 2.525595 -19.137446 0
M  V30 4 C 10.661664 7.236109 -10.723296 0
M  V30 5 O 8.234835 2.071813 -15.468968 0
M  V30 6 N 7.391415 6.721259 -12.853514 0 CFG=2 CHG=1
M  V30 7 C 9.163699 2.426818 -17.641004 0
M  V30 8 C 8.281020 5.089295 -18.852020 0
M  V30 9 C 6.230850 6.019413 -17.684520 0
M  V30 10 C 9.619460 6.741647 -7.092500 0
M  V30 11 C 8.603035 7.385464 -12.302715 0
M  V30 12 C 6.735775 5.795372 -11.895034 0
M  V30 13 C 7.140884 1.494531 -14.775001 0
M  V30 14 C 7.496945 4.110412 -16.591662 0 CFG=1
M  V30 15 C 9.126366 5.790314 -9.587885 0
M  V30 16 C 7.710457 4.783164 -11.279761 0
M  V30 17 C 9.662659 6.413386 -11.723764 0 CFG=2
M  V30 18 C 7.075638 4.758633 -17.937409 0 CFG=2
M  V30 19 C 10.353900 7.241195 -8.167660 0
M  V30 20 C 8.433467 5.114350 -14.600678 0
M  V30 21 N 8.398333 5.243572 -8.593874 0
M  V30 22 C 7.933826 2.634706 -16.738658 0 CFG=2
M  V30 23 C 8.817199 3.944187 -19.733818 0
M  V30 24 N 8.982065 5.391508 -10.883333 0
M  V30 25 C 8.634828 5.769293 -7.358937 0
M  V30 26 N 12.235690 8.969305 -7.776584 0
M  V30 27 C 7.458234 6.272422 -14.276086 0
M  V30 28 C 11.391186 8.215158 -7.959391 0
M  V30 29 C 7.656304 0.952125 -13.438927 0
M  V30 30 H 7.860337 2.048416 -19.325342 0
M  V30 31 H 9.544833 1.933333 -19.700508 0
M  V30 32 H 10.568356 8.316244 -10.831032 0
M  V30 33 H 11.711962 6.969307 -10.817767 0
M  V30 34 H 9.539781 1.419229 -17.459427 0
M  V30 35 H 9.978522 3.099550 -17.370451 0
M  V30 36 H 8.008411 5.900980 -19.527097 0
M  V30 37 H 9.100918 5.498305 -18.262070 0
M  V30 38 H 6.814042 6.798596 -17.194374 0
M  V30 39 H 5.846481 6.430999 -18.618425 0
M  V30 40 H 5.370650 5.797489 -17.052914 0
M  V30 41 H 9.789569 7.096382 -6.086851 0
M  V30 42 H 8.243707 8.022590 -11.491997 0
M  V30 43 H 9.034721 8.067584 -13.026132 0
M  V30 44 H 5.895656 5.282572 -12.364113 0
M  V30 45 H 6.309628 6.398673 -11.092960 0
M  V30 46 H 6.361317 2.234907 -14.602106 0
M  V30 47 H 6.706241 0.683476 -15.360374 0
M  V30 48 H 6.634837 4.120665 -15.931679 0
M  V30 49 H 7.941684 4.000712 -11.997934 0
M  V30 50 H 7.217288 4.261196 -10.459455 0
M  V30 51 H 10.253009 5.932926 -12.500183 0
M  V30 52 H 6.423344 4.063123 -18.468178 0
M  V30 53 H 9.442455 5.368661 -14.294192 0
M  V30 54 H 8.165684 4.191761 -14.091771 0
M  V30 55 H 7.106664 2.066139 -17.168625 0
M  V30 56 H 8.244084 3.913943 -20.660686 0
M  V30 57 H 9.833540 4.202603 -20.033953 0
M  V30 58 H 8.027639 5.380965 -6.560999 0
M  V30 59 H 6.451245 6.003900 -14.594044 0
M  V30 60 H 7.732890 7.137830 -14.877262 0
M  V30 61 H 6.846067 0.516342 -12.854107 0
M  V30 62 H 8.409362 0.179122 -13.595903 0
M  V30 63 H 8.113929 1.742491 -12.844593 0
M  V30 64 H 6.726372 7.480537 -12.903170 0
M  V30 END ATOM
M  V30 BEGIN BOND
M  V30 1 1 4 1
M  V30 2 1 7 3
M  V30 3 1 11 6
M  V30 4 1 12 6
M  V30 5 1 13 5
M  V30 6 1 14 2
M  V30 7 1 15 1
M  V30 8 1 16 12
M  V30 9 1 17 4
M  V30 10 1 17 11
M  V30 11 1 18 8
M  V30 12 1 18 9
M  V30 13 1 18 14
M  V30 14 2 19 1
M  V30 15 1 19 10
M  V30 16 1 20 2
M  V30 17 2 21 15
M  V30 18 1 22 5
M  V30 19 1 22 7
M  V30 20 1 22 14
M  V30 21 1 23 3
M  V30 22 1 23 8
M  V30 23 1 24 15
M  V30 24 1 24 16
M  V30 25 1 24 17
M  V30 26 2 25 10
M  V30 27 1 25 21
M  V30 28 1 27 6
M  V30 29 1 27 20
M  V30 30 1 28 19
M  V30 31 3 28 26
M  V30 32 1 29 13
M  V30 33 1 30 3
M  V30 34 1 31 3
M  V30 35 1 32 4
M  V30 36 1 33 4
M  V30 37 1 34 7
M  V30 38 1 35 7
M  V30 39 1 36 8
M  V30 40 1 37 8
M  V30 41 1 38 9
M  V30 42 1 39 9
M  V30 43 1 40 9
M  V30 44 1 41 10
M  V30 45 1 42 11
M  V30 46 1 43 11
M  V30 47 1 44 12
M  V30 48 1 45 12
M  V30 49 1 46 13
M  V30 50 1 47 13
M  V30 51 1 14 48 CFG=1
M  V30 52 1 49 16
M  V30 53 1 50 16
M  V30 54 1 17 51 CFG=3
M  V30 55 1 18 52 CFG=3
M  V30 56 1 53 20
M  V30 57 1 54 20
M  V30 58 1 22 55 CFG=3
M  V30 59 1 56 23
M  V30 60 1 57 23
M  V30 61 1 58 25
M  V30 62 1 59 27
M  V30 63 1 60 27
M  V30 64 1 61 29
M  V30 65 1 62 29
M  V30 66 1 63 29
M  V30 67 1 6 64 CFG=3
M  V30 END BOND
M  V30 END CTAB
M  END
>  <i_epik_Tot_Q>  (1) 
1

>  <i_epik_Tot_abs_Q>  (1) 
1

>  <i_i_glide_confnum>  (1) 
403

>  <i_i_glide_lignum>  (1) 
73

>  <i_i_glide_posenum>  (1) 
361

>  <i_i_glide_rotatable_bonds>  (1) 
6

>  <i_lp_mmshare_version>  (1) 
72125

>  <i_m_source_file_index>  (1) 
30

>  <i_f3d_flags>  (1) 
0

>  <num_sample>  (1) 
50

>  <b_lp_Chiralities_Consistent>  (1) 
1

>  <r_epik_Charging_Adjusted_Penalty>  (1) 
1.0026227849201053

>  <r_epik_Ionization_Penalty>  (1) 
0.50131159217577048

>  <r_epik_Ionization_Penalty_Charging>  (1) 
0.50131139246005263

>  <r_epik_Ionization_Penalty_Neutral>  (1) 
1.9971571790720627e-07

>  <r_epik_State_Penalty>  (1) 
0.50131139246005263

>  <r_glide_ring_energy>  (1) 
1.2730141362043799

>  <r_i_docking_score>  (1) 
-2.4720052209191818

>  <r_i_glide_ecoul>  (1) 
-2.0475515148589816

>  <r_i_glide_eff_state_penalty>  (1) 
0.50131139246005263

>  <r_i_glide_einternal>  (1) 
28.237769529047767

>  <r_i_glide_emodel>  (1) 
-23.839778903498775

>  <r_i_glide_emodel_strain>  (1) 
0

>  <r_i_glide_energy>  (1) 
-31.731323882032584

>  <r_i_glide_erotb>  (1) 
0.6137117962777916

>  <r_i_glide_esite>  (1) 
-0.028700434409345672

>  <r_i_glide_evdw>  (1) 
-29.683772367173603

>  <r_i_glide_gscore>  (1) 
-2.9733166133792346

>  <r_i_glide_gscore_strain>  (1) 
0

>  <r_i_glide_hbond>  (1) 
0

>  <r_i_glide_ligand_efficiency>  (1) 
-0.085241559342040751

>  <r_i_glide_ligand_efficiency_ln>  (1) 
-0.56602651094666911

>  <r_i_glide_ligand_efficiency_sa>  (1) 
-0.26188907701425046

>  <r_i_glide_lipo>  (1) 
-1.2445649642816001

>  <r_i_glide_metal>  (1) 
-0

>  <r_i_glide_rewards>  (1) 
-0.52244166537855286

>  <r_lp_Energy>  (1) 
44.156497999999999

>  <s_epik_cmdline>  (1) 
J2VwaWtfcHl0aG9uJywgJy1waHQnLCAnMS4wJywgJy1waCcsICc3LjQnLCAnLXRuJywgJzgnLCAnLW1hJywgJzUwMCcsICctaW1hZScsICc8aW5maWxlLm1hZT4nLCAnLW9tYWUnLCAnPG91dGZpbGUubWFlPic=

>  <s_epik_input>  (1) 
TiNDYzFbY0hdW2NIXW5jKGMxMilOM1tDQEhdKFtDSDJdMilbQ0gyXU4oW0NIMl1bQ0gyXTMpW0NIMl1bQ0gyXU9bQ0BIXTRbQ0BASF0oW0NIM10pW0NIMl1bQ0gyXVtDSDJdW0NIMl1bQ0BIXTRPW0NIMl1bQ0gzXQ==

>  <s_glide_docking_method>  (1) 
confgen

>  <s_i_glide_gridfile>  (1) 
gpcr_drd2_6luq_protein_autoprepared_prepared

>  <s_lp_Force_Field>  (1) 
S-OPLS

>  <s_lp_Variant>  (1) 
DiffSBDD_29_num_sample_50-3

>  <s_m_source_file>  (1) 
generated__ligand_DiffSBDD_2026-05-06_prepared.sdf

>  <GenAI_Model>  (1) 
DiffSBDD

>  <Protein>  (1) 
generic_title2

$$$$
DiffSBDD_14_num_sample_50
     RDKit          3D

  0  0  0  0  0  0  0  0  0  0999 V3000
M  V30 BEGIN CTAB
M  V30 COUNTS 70 74 0 0 1
M  V30 BEGIN ATOM
M  V30 1 C 8.966098 3.781162 -16.933522 0 CFG=2
M  V30 2 C 9.376217 8.141414 -11.542086 0 CFG=1
M  V30 3 C 11.510241 4.193732 -16.967625 0
M  V30 4 C 8.981791 3.420344 -19.381779 0
M  V30 5 C 8.329554 4.983670 -14.102803 0
M  V30 6 C 11.604103 7.291351 -4.088131 0
M  V30 7 O 11.278635 6.193526 -3.347943 0
M  V30 8 C 9.497249 8.651580 -10.099033 0
M  V30 9 O 10.387964 6.576532 -10.201790 0
M  V30 10 C 10.591131 8.857117 -7.377189 0
M  V30 11 N 10.375857 7.614246 -8.125748 0 CHG=1
M  V30 12 N 9.241687 5.811652 -13.606490 0
M  V30 13 C 7.602841 4.470883 -16.588750 0 CFG=2
M  V30 14 C 10.120902 4.722591 -17.345952 0 CFG=1
M  V30 15 C 10.004862 5.632371 -12.393209 0
M  V30 16 C 12.614038 7.121359 -1.572536 0
M  V30 17 O 13.218586 8.038476 -2.434017 0
M  V30 18 C 9.579914 1.398383 -17.894683 0
M  V30 19 O 8.016403 3.912780 -13.593153 0
M  V30 20 C 6.876528 5.100231 -17.801786 0
M  V30 21 C 9.485122 6.614569 -11.295269 0 CFG=2
M  V30 22 C 10.956019 7.509178 -5.303594 0
M  V30 23 O 8.160966 8.505251 -12.139625 0
M  V30 24 C 12.197941 5.914427 -2.336153 0
M  V30 25 C 8.857376 2.726684 -18.030086 0
M  V30 26 S 10.038914 4.889361 -19.150546 0
M  V30 27 C 12.926470 9.320241 -4.415145 0
M  V30 28 C 7.656319 5.468405 -15.414804 0
M  V30 29 C 8.073945 1.448816 -17.800207 0
M  V30 30 C 11.290040 8.624405 -6.082289 0
M  V30 31 C 12.284344 9.523460 -5.643720 0
M  V30 32 C 10.641111 7.808624 -9.649284 0 CFG=2
M  V30 33 C 12.586161 8.217943 -3.632150 0
M  V30 34 H 9.249471 3.264136 -16.025849 0
M  V30 35 H 10.193605 8.441292 -12.183768 0
M  V30 36 H 11.626491 4.099659 -15.895820 0
M  V30 37 H 11.701932 3.226701 -17.432267 0
M  V30 38 H 12.274048 4.890221 -17.313527 0
M  V30 39 H 9.393272 2.755126 -20.139715 0
M  V30 40 H 8.013024 3.730468 -19.757260 0
M  V30 41 H 9.667800 9.660841 -9.770394 0
M  V30 42 H 8.634837 8.395245 -9.574793 0
M  V30 43 H 11.251772 9.486635 -7.972610 0
M  V30 44 H 9.633260 9.344251 -7.193109 0
M  V30 45 H 9.427890 7.275790 -7.978821 0
M  V30 46 H 9.391313 6.676647 -14.083113 0
M  V30 47 H 6.951159 3.688542 -16.210447 0
M  V30 48 H 10.028544 5.689982 -16.853588 0
M  V30 49 H 10.999145 5.993325 -12.677127 0
M  V30 50 H 10.120237 4.574936 -12.126722 0
M  V30 51 H 11.716314 7.592404 -1.159761 0
M  V30 52 H 13.303276 6.784717 -0.790215 0
M  V30 53 H 10.021475 0.981136 -18.798523 0
M  V30 54 H 10.152676 1.215488 -16.988449 0
M  V30 55 H 7.531551 5.757078 -18.373899 0
M  V30 56 H 6.521420 4.302942 -18.446719 0
M  V30 57 H 5.999748 5.699881 -17.532426 0
M  V30 58 H 8.524098 6.218488 -10.977571 0
M  V30 59 H 10.192760 6.813718 -5.637402 0
M  V30 60 H 7.453658 8.254771 -11.559764 0
M  V30 61 H 11.651566 5.386536 -1.584400 0
M  V30 62 H 13.055523 5.328828 -2.676674 0
M  V30 63 H 13.691793 9.997062 -4.077198 0
M  V30 64 H 6.667728 5.881737 -15.220488 0
M  V30 65 H 8.187745 6.349659 -15.754192 0
M  V30 66 H 7.642254 1.278957 -16.813071 0
M  V30 67 H 7.492381 1.058407 -18.631374 0
M  V30 68 H 12.558204 10.370483 -6.253592 0
M  V30 69 H 11.650704 8.149588 -9.913623 0
M  V30 70 H 11.017602 6.927021 -7.752147 0
M  V30 END ATOM
M  V30 BEGIN BOND
M  V30 1 1 7 6
M  V30 2 1 8 2
M  V30 3 1 11 10
M  V30 4 1 12 5
M  V30 5 1 13 1
M  V30 6 1 14 1
M  V30 7 1 14 3
M  V30 8 1 15 12
M  V30 9 1 17 16
M  V30 10 2 19 5
M  V30 11 1 20 13
M  V30 12 1 21 2
M  V30 13 1 21 9
M  V30 14 1 21 15
M  V30 15 1 22 6
M  V30 16 1 23 2
M  V30 17 1 24 7
M  V30 18 1 24 16
M  V30 19 1 25 1
M  V30 20 1 25 4
M  V30 21 1 25 18
M  V30 22 1 26 4
M  V30 23 1 26 14
M  V30 24 1 28 5
M  V30 25 1 28 13
M  V30 26 1 29 18
M  V30 27 1 29 25
M  V30 28 1 30 10
M  V30 29 2 30 22
M  V30 30 2 31 27
M  V30 31 1 31 30
M  V30 32 1 32 8
M  V30 33 1 32 9
M  V30 34 1 32 11
M  V30 35 2 33 6
M  V30 36 1 33 17
M  V30 37 1 33 27
M  V30 38 1 1 34 CFG=1
M  V30 39 1 2 35 CFG=3
M  V30 40 1 36 3
M  V30 41 1 37 3
M  V30 42 1 38 3
M  V30 43 1 39 4
M  V30 44 1 40 4
M  V30 45 1 41 8
M  V30 46 1 42 8
M  V30 47 1 43 10
M  V30 48 1 44 10
M  V30 49 1 45 11
M  V30 50 1 46 12
M  V30 51 1 13 47 CFG=1
M  V30 52 1 14 48 CFG=1
M  V30 53 1 49 15
M  V30 54 1 50 15
M  V30 55 1 51 16
M  V30 56 1 52 16
M  V30 57 1 53 18
M  V30 58 1 54 18
M  V30 59 1 55 20
M  V30 60 1 56 20
M  V30 61 1 57 20
M  V30 62 1 21 58 CFG=1
M  V30 63 1 59 22
M  V30 64 1 60 23
M  V30 65 1 61 24
M  V30 66 1 62 24
M  V30 67 1 63 27
M  V30 68 1 64 28
M  V30 69 1 65 28
M  V30 70 1 66 29
M  V30 71 1 67 29
M  V30 72 1 68 31
M  V30 73 1 32 69 CFG=1
M  V30 74 1 70 11
M  V30 END BOND
M  V30 END CTAB
M  END
>  <i_epik_Tot_Q>  (1) 
1

>  <i_epik_Tot_abs_Q>  (1) 
1

>  <i_i_glide_confnum>  (1) 
1311

>  <i_i_glide_lignum>  (1) 
51

>  <i_i_glide_posenum>  (1) 
375

>  <i_i_glide_rotatable_bonds>  (1) 
10

>  <i_lp_mmshare_version>  (1) 
72125

>  <i_m_source_file_index>  (1) 
15

>  <i_f3d_flags>  (1) 
0

>  <num_sample>  (1) 
50

>  <b_lp_Chiralities_Consistent>  (1) 
1

>  <r_epik_Charging_Adjusted_Penalty>  (1) 
1.0556351429747846

>  <r_epik_Ionization_Penalty>  (1) 
0.52782311309915253

>  <r_epik_Ionization_Penalty_Charging>  (1) 
0.52781757148739228

>  <r_epik_Ionization_Penalty_Neutral>  (1) 
5.5416117603015013e-06

>  <r_epik_State_Penalty>  (1) 
0.52781757148739217

>  <r_glide_ring_energy>  (1) 
0.80439354965357579

>  <r_i_docking_score>  (1) 
-2.4613953567273059

>  <r_i_glide_ecoul>  (1) 
-2.4162488502802839

>  <r_i_glide_eff_state_penalty>  (1) 
0.52781757148739217

>  <r_i_glide_einternal>  (1) 
10.507200886672575

>  <r_i_glide_emodel>  (1) 
-4.465343899003047

>  <r_i_glide_emodel_strain>  (1) 
1.6980186508459383

>  <r_i_glide_energy>  (1) 
-2.1548787791768667

>  <r_i_glide_erotb>  (1) 
0.79916653529319603

>  <r_i_glide_esite>  (1) 
-0.051709959653194221

>  <r_i_glide_evdw>  (1) 
0.2613700711034172

>  <r_i_glide_gscore>  (1) 
-2.9892129282146982

>  <r_i_glide_gscore_strain>  (1) 
0

>  <r_i_glide_hbond>  (1) 
-0.077544275846713126

>  <r_i_glide_ligand_efficiency>  (1) 
-0.074587738082645627

>  <r_i_glide_ligand_efficiency_ln>  (1) 
-0.54740158291306251

>  <r_i_glide_ligand_efficiency_sa>  (1) 
-0.23924273049682296

>  <r_i_glide_lipo>  (1) 
-2.4948093381044703

>  <r_i_glide_metal>  (1) 
-0

>  <r_i_glide_rewards>  (1) 
-0.81494706591664512

>  <r_lp_Energy>  (1) 
8.7074730000000002

>  <r_lp_tautomer_probability>  (1) 
1

>  <s_epik_Chemistry_Notes>  (1) 
This compound contains an acetal/aminal-like group ( X-CH(R)-Y where X, Y are N, S, or O) that may be acid/base labile, releasing an aldehyde.

>  <s_epik_cmdline>  (1) 
J2VwaWtfcHl0aG9uJywgJy1waHQnLCAnMS4wJywgJy1waCcsICc3LjQnLCAnLXRuJywgJzgnLCAnLW1hJywgJzUwMCcsICctaW1hZScsICc8aW5maWxlLm1hZT4nLCAnLW9tYWUnLCAnPG91dGZpbGUubWFlPic=

>  <s_epik_input>  (1) 
W0NIMl0xU1tDQEhdKFtDSDNdKVtDQEhdKEMxMltDSDJdW0NIMl0yKVtDQEhdKFtDSDNdKVtDSDJdQyg9TylbTkhdW0NIMl1bQ0BIXTNPW0NAQEhdKFtDSDJdW0NAQEhdM1tPSF0pW05IXVtDSDJdYyhbY0hdNClbY0hdW2NIXWMoYzQ1KU9bQ0gyXVtDSDJdTzU=

>  <s_glide_docking_method>  (1) 
confgen

>  <s_i_glide_gridfile>  (1) 
gpcr_drd2_6luq_protein_autoprepared_prepared

>  <s_lp_Force_Field>  (1) 
S-OPLS

>  <s_lp_Variant>  (1) 
DiffSBDD_14_num_sample_50-2

>  <s_m_source_file>  (1) 
generated__ligand_DiffSBDD_2026-05-06_prepared.sdf

>  <GenAI_Model>  (1) 
DiffSBDD

>  <Protein>  (1) 
generic_title2

$$$$
DiffSBDD_36_num_sample_50
     RDKit          3D

  0  0  0  0  0  0  0  0  0  0999 V3000
M  V30 BEGIN CTAB
M  V30 COUNTS 76 79 0 0 1
M  V30 BEGIN ATOM
M  V30 1 C 10.831348 1.959916 -19.646324 0
M  V30 2 O 15.781764 7.636720 -19.970934 0
M  V30 3 C 10.168604 6.795869 -20.424967 0
M  V30 4 S 14.954900 6.374199 -19.718613 0
M  V30 5 C 8.314714 2.111801 -19.406943 0 CFG=2
M  V30 6 C 10.860023 3.308982 -20.384027 0
M  V30 7 C 12.943126 7.279183 -17.918819 0 CFG=1
M  V30 8 C 9.527486 3.616916 -21.111938 0 CFG=1
M  V30 9 F 9.810837 2.743367 -17.687912 0
M  V30 10 O 13.834845 8.321889 -17.567796 0
M  V30 11 C 8.196512 7.226553 -22.030456 0
M  V30 12 C 7.108910 1.997304 -18.460515 0
M  V30 13 C 9.647011 1.861013 -18.675758 0 CFG=2
M  V30 14 C 11.863059 5.924912 -22.141384 0
M  V30 15 C 15.567790 5.725591 -18.084921 0
M  V30 16 C 13.497250 8.576107 -21.359743 0
M  V30 17 C 15.278495 4.046985 -16.206229 0
M  V30 18 O 13.337127 4.876415 -17.349483 0
M  V30 19 C 7.592686 6.490265 -20.861279 0
M  V30 20 C 8.337118 3.469449 -20.135353 0
M  V30 21 C 14.690907 3.380470 -18.532992 0
M  V30 22 C 13.161422 6.817542 -19.381224 0 CFG=1
M  V30 23 C 9.033668 6.226535 -21.255551 0
M  V30 24 C 14.712461 4.560775 -17.543048 0
M  V30 25 C 11.400041 7.130809 -21.292978 0 CFG=2
M  V30 26 C 9.463494 4.932793 -21.967878 0 CFG=1
M  V30 27 C 13.403883 6.552194 -15.478096 0
M  V30 28 C 12.533091 7.782190 -20.456581 0 CFG=2
M  V30 29 C 11.373415 5.737189 -16.648128 0
M  V30 30 C 10.699221 5.207380 -22.860172 0
M  V30 31 C 12.847891 6.131346 -16.857333 0
M  V30 32 H 10.767357 1.151244 -20.375562 0
M  V30 33 H 11.767763 1.813259 -19.106901 0
M  V30 34 H 10.402658 6.101277 -19.627145 0
M  V30 35 H 9.821741 7.702041 -19.926376 0
M  V30 36 H 8.202734 1.333155 -20.163177 0
M  V30 37 H 11.676016 3.259388 -21.101842 0
M  V30 38 H 11.107923 4.088042 -19.668747 0
M  V30 39 H 11.974045 7.769352 -17.891726 0
M  V30 40 H 9.418708 2.809569 -21.838282 0
M  V30 41 H 13.477583 9.140520 -17.891669 0
M  V30 42 H 8.411711 8.285401 -21.898040 0
M  V30 43 H 7.858530 6.947067 -23.026453 0
M  V30 44 H 7.142631 2.754923 -17.676949 0
M  V30 45 H 6.170764 2.123711 -19.001652 0
M  V30 46 H 7.080455 1.020652 -17.976320 0
M  V30 47 H 9.638955 0.877813 -18.203656 0
M  V30 48 H 12.578852 6.263691 -22.890718 0
M  V30 49 H 12.418453 5.220586 -21.531010 0
M  V30 50 H 15.644197 6.541783 -17.371523 0
M  V30 51 H 16.591285 5.384662 -18.240077 0
M  V30 52 H 14.116993 7.926766 -21.977343 0
M  V30 53 H 12.951707 9.232989 -22.037428 0
M  V30 54 H 14.146823 9.222793 -20.769602 0
M  V30 55 H 16.234932 3.549954 -16.343084 0
M  V30 56 H 15.446504 4.847532 -15.491632 0
M  V30 57 H 14.603572 3.326343 -15.744726 0
M  V30 58 H 6.834237 5.749364 -21.102026 0
M  V30 59 H 7.413336 7.055085 -19.948517 0
M  V30 60 H 8.369441 4.266982 -19.392306 0
M  V30 61 H 7.402208 3.584409 -20.683530 0
M  V30 62 H 15.698409 3.049294 -18.785350 0
M  V30 63 H 14.160030 2.526821 -18.110156 0
M  V30 64 H 14.184071 3.638328 -19.463041 0
M  V30 65 H 12.637163 5.869245 -19.456173 0
M  V30 66 H 11.053495 7.885631 -22.000838 0
M  V30 67 H 8.656397 4.724612 -22.672350 0
M  V30 68 H 12.873746 7.423939 -15.095036 0
M  V30 69 H 13.303152 5.769301 -14.733677 0
M  V30 70 H 14.454518 6.818642 -15.521294 0
M  V30 71 H 12.027914 8.569295 -19.899214 0
M  V30 72 H 10.773896 6.569295 -16.291659 0
M  V30 73 H 10.917939 5.374740 -17.567879 0
M  V30 74 H 11.281838 4.936011 -15.913342 0
M  V30 75 H 10.381619 5.842444 -23.688354 0
M  V30 76 H 11.051230 4.283786 -23.320141 0
M  V30 END ATOM
M  V30 BEGIN BOND
M  V30 1 2 4 2
M  V30 2 1 6 1
M  V30 3 1 8 6
M  V30 4 1 10 7
M  V30 5 1 12 5
M  V30 6 1 13 1
M  V30 7 1 13 5
M  V30 8 1 13 9
M  V30 9 1 4 15 CFG=1
M  V30 10 1 19 11
M  V30 11 1 20 5
M  V30 12 1 20 8
M  V30 13 1 22 4
M  V30 14 1 22 7
M  V30 15 1 23 3
M  V30 16 1 23 11
M  V30 17 1 23 19
M  V30 18 1 24 15
M  V30 19 1 24 17
M  V30 20 1 24 18
M  V30 21 1 24 21
M  V30 22 1 25 3
M  V30 23 1 25 14
M  V30 24 1 26 8
M  V30 25 1 26 23
M  V30 26 1 28 16
M  V30 27 1 28 22
M  V30 28 1 28 25
M  V30 29 1 30 14
M  V30 30 1 30 26
M  V30 31 1 31 7
M  V30 32 1 31 18
M  V30 33 1 31 27
M  V30 34 1 31 29
M  V30 35 1 32 1
M  V30 36 1 33 1
M  V30 37 1 34 3
M  V30 38 1 35 3
M  V30 39 1 5 36 CFG=3
M  V30 40 1 37 6
M  V30 41 1 38 6
M  V30 42 1 7 39 CFG=3
M  V30 43 1 8 40 CFG=3
M  V30 44 1 41 10
M  V30 45 1 42 11
M  V30 46 1 43 11
M  V30 47 1 44 12
M  V30 48 1 45 12
M  V30 49 1 46 12
M  V30 50 1 13 47 CFG=1
M  V30 51 1 48 14
M  V30 52 1 49 14
M  V30 53 1 50 15
M  V30 54 1 51 15
M  V30 55 1 52 16
M  V30 56 1 53 16
M  V30 57 1 54 16
M  V30 58 1 55 17
M  V30 59 1 56 17
M  V30 60 1 57 17
M  V30 61 1 58 19
M  V30 62 1 59 19
M  V30 63 1 60 20
M  V30 64 1 61 20
M  V30 65 1 62 21
M  V30 66 1 63 21
M  V30 67 1 64 21
M  V30 68 1 22 65 CFG=1
M  V30 69 1 25 66 CFG=3
M  V30 70 1 26 67 CFG=3
M  V30 71 1 68 27
M  V30 72 1 69 27
M  V30 73 1 70 27
M  V30 74 1 28 71 CFG=1
M  V30 75 1 72 29
M  V30 76 1 73 29
M  V30 77 1 74 29
M  V30 78 1 75 30
M  V30 79 1 76 30
M  V30 END BOND
M  V30 END CTAB
M  END
>  <i_epik_Tot_Q>  (1) 
0

>  <i_epik_Tot_abs_Q>  (1) 
0

>  <i_i_glide_confnum>  (1) 
14

>  <i_i_glide_lignum>  (1) 
91

>  <i_i_glide_posenum>  (1) 
304

>  <i_i_glide_rotatable_bonds>  (1) 
4

>  <i_lp_mmshare_version>  (1) 
72125

>  <i_m_source_file_index>  (1) 
37

>  <i_f3d_flags>  (1) 
0

>  <num_sample>  (1) 
50

>  <b_lp_Chiralities_Consistent>  (1) 
1

>  <r_epik_Charging_Adjusted_Penalty>  (1) 
0

>  <r_epik_Ionization_Penalty>  (1) 
1.4246355220095789e-06

>  <r_epik_Ionization_Penalty_Charging>  (1) 
0

>  <r_epik_Ionization_Penalty_Neutral>  (1) 
1.4246355220095789e-06

>  <r_epik_State_Penalty>  (1) 
-0

>  <r_glide_ring_energy>  (1) 
0

>  <r_i_docking_score>  (1) 
-2.4479766716025524

>  <r_i_glide_ecoul>  (1) 
-2.1827686929218704

>  <r_i_glide_eff_state_penalty>  (1) 
-0

>  <r_i_glide_einternal>  (1) 
55.078928894742859

>  <r_i_glide_emodel>  (1) 
5.8440235422779061

>  <r_i_glide_emodel_strain>  (1) 
0.50012048899175454

>  <r_i_glide_energy>  (1) 
-19.359398174459052

>  <r_i_glide_erotb>  (1) 
0.28908081276348274

>  <r_i_glide_esite>  (1) 
0

>  <r_i_glide_evdw>  (1) 
-17.176629481537184

>  <r_i_glide_gscore>  (1) 
-2.4479766716025524

>  <r_i_glide_gscore_strain>  (1) 
0

>  <r_i_glide_hbond>  (1) 
-0.29783657059230595

>  <r_i_glide_ligand_efficiency>  (1) 
-0.078966989406533947

>  <r_i_glide_ligand_efficiency_ln>  (1) 
-0.55209376092162177

>  <r_i_glide_ligand_efficiency_sa>  (1) 
-0.24806537269928189

>  <r_i_glide_lipo>  (1) 
-0.87906886632927861

>  <r_i_glide_metal>  (1) 
-0

>  <r_i_glide_rewards>  (1) 
-0.37390526942931063

>  <r_lp_Energy>  (1) 
32.420203000000001

>  <r_lp_tautomer_probability>  (1) 
1

>  <s_epik_cmdline>  (1) 
J2VwaWtfcHl0aG9uJywgJy1waHQnLCAnMS4wJywgJy1waCcsICc3LjQnLCAnLXRuJywgJzgnLCAnLW1hJywgJzUwMCcsICctaW1hZScsICc8aW5maWxlLm1hZT4nLCAnLW9tYWUnLCAnPG91dGZpbGUubWFlPic=

>  <s_epik_input>  (1) 
W0NIM11bQ0BASF0xW0NASF0oRilbQ0gyXVtDSDJdW0NAQEhdKFtDSDJdMSlbQ0BASF0yW0NIMl1bQ0gyXVtDQEBIXShbQ0gyXUMyM1tDSDJdW0NIMl0zKVtDQEhdKFtDSDNdKVtDQEhdKFtDQEhdKFtPSF0pQyhPNCkoW0NIM10pW0NIM10pUyg9TylbQ0gyXUM0KFtDSDNdKVtDSDNd

>  <s_glide_docking_method>  (1) 
confgen

>  <s_i_glide_gridfile>  (1) 
gpcr_drd2_6luq_protein_autoprepared_prepared

>  <s_lp_Force_Field>  (1) 
S-OPLS

>  <s_lp_Variant>  (1) 
DiffSBDD_36_num_sample_50-1

>  <s_m_source_file>  (1) 
generated__ligand_DiffSBDD_2026-05-06_prepared.sdf

>  <GenAI_Model>  (1) 
DiffSBDD

>  <Protein>  (1) 
generic_title2

$$$$
DiffSBDD_10_num_sample_50
     RDKit          3D

  0  0  0  0  0  0  0  0  0  0999 V3000
M  V30 BEGIN CTAB
M  V30 COUNTS 71 72 0 0 1
M  V30 BEGIN ATOM
M  V30 1 C 14.184390 1.902110 -19.239379 0 CFG=2
M  V30 2 C 8.538969 4.682869 -10.983373 0
M  V30 3 C 8.136646 4.257654 -14.107768 0
M  V30 4 C 9.614748 4.605489 -17.594569 0 CFG=1
M  V30 5 C 13.100151 2.748105 -19.950833 0 CFG=2
M  V30 6 N 6.383142 5.769216 -11.092222 0
M  V30 7 N 10.141988 3.247669 -19.470509 0
M  V30 8 C 11.202934 4.201499 -19.389376 0 CFG=1
M  V30 9 S 15.641207 1.349115 -20.297169 0
M  V30 10 C 9.213497 5.723903 -10.108046 0
M  V30 11 S 16.545090 3.235476 -20.619243 0 CHG=-1
M  V30 12 C 14.719236 0.784832 -16.962069 0
M  V30 13 O 9.434846 8.228311 -8.305521 0
M  V30 14 O 16.592610 0.567988 -19.493290 0
M  V30 15 C 12.889203 1.266996 -19.717181 0 CFG=2
M  V30 16 C 6.580138 2.191931 -14.064501 0
M  V30 17 C 9.540998 3.173046 -18.153302 0 CFG=2
M  V30 18 N 10.235211 6.123162 -7.856684 0
M  V30 19 N 6.696459 3.767670 -12.209504 0
M  V30 20 C 9.413774 5.224311 -8.666603 0
M  V30 21 C 12.000507 5.781959 -17.522993 0
M  V30 22 C 14.548833 2.087935 -17.761611 0
M  V30 23 C 13.227735 3.353638 -21.347211 0
M  V30 24 C 9.684728 4.700910 -16.055133 0
M  V30 25 C 7.114792 3.441761 -13.373065 0
M  V30 26 O 11.959364 0.993870 -18.689737 0
M  V30 27 C 7.256672 4.754896 -11.405374 0
M  V30 28 O 15.181153 0.820367 -21.590643 0
M  V30 29 F 8.291090 2.722520 -18.249341 0
M  V30 30 N 7.359772 1.013480 -13.725912 0
M  V30 31 C 9.473644 7.235180 -7.308846 0
M  V30 32 C 10.799413 5.262852 -18.345127 0 CFG=2
M  V30 33 O 12.411033 3.592849 -19.008197 0
M  V30 34 C 8.634911 3.898851 -15.307154 0
M  V30 35 H 9.147174 3.837576 -11.274830 0
M  V30 36 H 8.466873 5.161925 -13.619507 0
M  V30 37 H 8.707645 5.121638 -17.913174 0
M  V30 38 H 6.634907 6.507957 -10.428669 0
M  V30 39 H 10.472099 2.331434 -19.746142 0
M  V30 40 H 11.335577 4.691375 -20.352818 0
M  V30 41 H 8.634671 6.640340 -10.123536 0
M  V30 42 H 10.169513 5.982000 -10.561685 0
M  V30 43 H 15.063402 1.001934 -15.951135 0
M  V30 44 H 13.779232 0.242736 -16.874128 0
M  V30 45 H 15.435202 0.103611 -17.411210 0
M  V30 46 H 8.570185 8.169208 -8.717290 0
M  V30 47 H 12.869002 0.575221 -20.556292 0
M  V30 48 H 5.567527 2.013937 -13.701436 0
M  V30 49 H 6.492987 2.317406 -15.142026 0
M  V30 50 H 10.100846 2.478824 -17.526895 0
M  V30 51 H 10.575025 5.587380 -7.070537 0
M  V30 52 H 9.926083 4.262457 -8.698667 0
M  V30 53 H 8.451618 5.040707 -8.185106 0
M  V30 54 H 12.468545 4.997038 -16.928340 0
M  V30 55 H 12.767694 6.197694 -18.176542 0
M  V30 56 H 11.697341 6.574369 -16.839458 0
M  V30 57 H 15.466587 2.672490 -17.718707 0
M  V30 58 H 13.795026 2.693945 -17.261049 0
M  V30 59 H 13.855375 2.762614 -22.005756 0
M  V30 60 H 12.255085 3.417442 -21.832052 0
M  V30 61 H 13.660275 4.352138 -21.283543 0
M  V30 62 H 9.640481 5.743558 -15.739003 0
M  V30 63 H 10.647824 4.317058 -15.723001 0
M  V30 64 H 12.047992 1.691672 -18.054420 0
M  V30 65 H 6.952447 0.194120 -14.156479 0
M  V30 66 H 8.295333 1.097588 -14.094684 0
M  V30 67 H 10.005881 7.637950 -6.447051 0
M  V30 68 H 8.477861 6.941336 -6.976012 0
M  V30 69 H 10.397088 6.110939 -18.902120 0
M  V30 70 H 8.299498 2.993182 -15.782576 0
M  V30 71 H 5.411283 5.725498 -11.353661 0
M  V30 END ATOM
M  V30 BEGIN BOND
M  V30 1 1 5 1
M  V30 2 1 8 7
M  V30 3 1 9 1
M  V30 4 1 10 2
M  V30 5 1 11 9
M  V30 6 2 14 9
M  V30 7 1 15 1
M  V30 8 1 15 5
M  V30 9 1 17 4
M  V30 10 1 17 7
M  V30 11 1 20 10
M  V30 12 1 20 18
M  V30 13 1 1 22 CFG=1
M  V30 14 1 22 12
M  V30 15 1 23 5
M  V30 16 1 24 4
M  V30 17 1 25 3
M  V30 18 1 25 16
M  V30 19 2 25 19
M  V30 20 1 26 15
M  V30 21 2 27 2
M  V30 22 1 27 6
M  V30 23 1 27 19
M  V30 24 2 28 9
M  V30 25 1 29 17
M  V30 26 1 30 16
M  V30 27 1 31 13
M  V30 28 1 31 18
M  V30 29 1 32 4
M  V30 30 1 32 8
M  V30 31 1 32 21
M  V30 32 1 5 33 CFG=1
M  V30 33 1 33 8
M  V30 34 2 34 3
M  V30 35 1 34 24
M  V30 36 1 35 2
M  V30 37 1 36 3
M  V30 38 1 4 37 CFG=3
M  V30 39 1 38 6
M  V30 40 1 39 7
M  V30 41 1 8 40 CFG=3
M  V30 42 1 41 10
M  V30 43 1 42 10
M  V30 44 1 43 12
M  V30 45 1 44 12
M  V30 46 1 45 12
M  V30 47 1 46 13
M  V30 48 1 15 47 CFG=3
M  V30 49 1 48 16
M  V30 50 1 49 16
M  V30 51 1 17 50 CFG=1
M  V30 52 1 51 18
M  V30 53 1 52 20
M  V30 54 1 53 20
M  V30 55 1 54 21
M  V30 56 1 55 21
M  V30 57 1 56 21
M  V30 58 1 57 22
M  V30 59 1 58 22
M  V30 60 1 59 23
M  V30 61 1 60 23
M  V30 62 1 61 23
M  V30 63 1 62 24
M  V30 64 1 63 24
M  V30 65 1 64 26
M  V30 66 1 65 30
M  V30 67 1 66 30
M  V30 68 1 67 31
M  V30 69 1 68 31
M  V30 70 1 32 69 CFG=3
M  V30 71 1 70 34
M  V30 72 1 71 6
M  V30 END BOND
M  V30 END CTAB
M  END
>  <i_epik_Tot_Q>  (1) 
-1

>  <i_epik_Tot_abs_Q>  (1) 
1

>  <i_i_glide_confnum>  (1) 
1388

>  <i_i_glide_lignum>  (1) 
42

>  <i_i_glide_posenum>  (1) 
70

>  <i_i_glide_rotatable_bonds>  (1) 
15

>  <i_lp_mmshare_version>  (1) 
72125

>  <i_m_source_file_index>  (1) 
11

>  <i_f3d_flags>  (1) 
0

>  <num_sample>  (1) 
50

>  <b_lp_Chiralities_Consistent>  (1) 
1

>  <r_epik_Charging_Adjusted_Penalty>  (1) 
1.239197207418439

>  <r_epik_Ionization_Penalty>  (1) 
1.2496715491914541

>  <r_epik_Ionization_Penalty_Charging>  (1) 
1.1069707349969355e-11

>  <r_epik_Ionization_Penalty_Neutral>  (1) 
1.2496715491803843

>  <r_epik_State_Penalty>  (1) 
1.2391972074073692

>  <r_glide_ring_energy>  (1) 
0

>  <r_i_docking_score>  (1) 
-2.4455128741175969

>  <r_i_glide_ecoul>  (1) 
-8.0115827407962215

>  <r_i_glide_eff_state_penalty>  (1) 
1.2391972074073692

>  <r_i_glide_einternal>  (1) 
6.8853077777407243

>  <r_i_glide_emodel>  (1) 
-45.142334034367735

>  <r_i_glide_emodel_strain>  (1) 
0.40914969526450307

>  <r_i_glide_energy>  (1) 
-39.017017350349988

>  <r_i_glide_erotb>  (1) 
0.82803537691766171

>  <r_i_glide_esite>  (1) 
-0.18639741433240015

>  <r_i_glide_evdw>  (1) 
-31.005434609553767

>  <r_i_glide_gscore>  (1) 
-3.6847100815249658

>  <r_i_glide_gscore_strain>  (1) 
0

>  <r_i_glide_hbond>  (1) 
-0.30399999999999999

>  <r_i_glide_ligand_efficiency>  (1) 
-0.071926849238752852

>  <r_i_glide_ligand_efficiency_ln>  (1) 
-0.54028238820525198

>  <r_i_glide_ligand_efficiency_sa>  (1) 
-0.23301506962257013

>  <r_i_glide_lipo>  (1) 
-0.91155917688197363

>  <r_i_glide_metal>  (1) 
-0

>  <r_i_glide_rewards>  (1) 
-0.35877972563113208

>  <r_lp_Energy>  (1) 
16.483426999999999

>  <s_epik_Chemistry_Notes>  (1) 
This compound has an imine and may undergo hydrolysis. This compound contains an acetal/aminal-like group ( X-CH(R)-Y where X, Y are N, S, or O) that may be acid/base labile, releasing an aldehyde.

>  <s_epik_cmdline>  (1) 
J2VwaWtfcHl0aG9uJywgJy1waHQnLCAnMS4wJywgJy1waCcsICc3LjQnLCAnLXRuJywgJzgnLCAnLW1hJywgJzUwMCcsICctaW1hZScsICc8aW5maWxlLm1hZT4nLCAnLW9tYWUnLCAnPG91dGZpbGUubWFlPic=

>  <s_epik_input>  (1) 
W1NIXVMoPU8pKD1PKVtDQEBdMShbQ0gyXVtDSDNdKVtDQEBdKFtDSDNdKShbQ0BASF0xW09IXSlPW0NASF0oW0NAQEhdMltDSDNdKVtOSF1bQ0BASF0oRilbQ0BIXTJbQ0gyXVxbQ0hdPVtDSF1cQyhbQ0gyXVtOSDJdKT1OL0MoPU4vW0hdKS9bQ0gyXVtDSDJdW0NIMl1bTkhdW0NIMl1bT0hd

>  <s_glide_docking_method>  (1) 
confgen

>  <s_i_glide_gridfile>  (1) 
gpcr_drd2_6luq_protein_autoprepared_prepared

>  <s_lp_Force_Field>  (1) 
S-OPLS

>  <s_lp_Variant>  (1) 
DiffSBDD_10_num_sample_50-22

>  <s_m_source_file>  (1) 
generated__ligand_DiffSBDD_2026-05-06_prepared.sdf

>  <GenAI_Model>  (1) 
DiffSBDD

>  <Protein>  (1) 
generic_title2

$$$$
DiffSBDD_31_num_sample_50
     RDKit          3D

  0  0  0  0  0  0  0  0  0  0999 V3000
M  V30 BEGIN CTAB
M  V30 COUNTS 71 76 0 0 1
M  V30 BEGIN ATOM
M  V30 1 C 8.484688 -1.277923 -21.044549 0
M  V30 2 C 7.220108 1.257677 -20.949333 0
M  V30 3 C 14.081869 4.672184 -16.234997 0
M  V30 4 C 11.086590 5.413631 -16.992936 0
M  V30 5 C 12.511131 4.283365 -18.836260 0
M  V30 6 C 9.682370 4.548443 -20.465798 0
M  V30 7 C 13.824292 2.184013 -19.033969 0 CFG=2
M  V30 8 C 5.034839 2.646655 -20.638391 0
M  V30 9 F 9.087949 -2.488422 -21.091666 0
M  V30 10 C 9.075224 -0.225563 -20.326328 0
M  V30 11 C 6.523079 2.622343 -20.902544 0
M  V30 12 C 11.178210 6.345925 -19.343300 0
M  V30 13 C 7.566313 5.331936 -18.428871 0
M  V30 14 C 7.286185 3.882634 -18.875192 0
M  V30 15 C 8.334701 4.314247 -21.169569 0
M  V30 16 C 8.449929 1.035955 -20.275970 0
M  V30 17 F 14.215209 2.465202 -20.278313 0
M  V30 18 C 7.267975 -1.074737 -21.713021 0
M  V30 19 C 6.636654 0.182339 -21.667598 0
M  V30 20 C 14.147263 3.593081 -17.044199 0
M  V30 21 N 7.283230 3.737882 -20.330340 0
M  V30 22 C 9.721102 4.815591 -17.304949 0
M  V30 23 C 12.689185 1.132755 -19.112048 0
M  V30 24 C 11.971377 5.588790 -18.257307 0 CFG=1
M  V30 25 O 11.995639 0.950357 -17.891667 0
M  V30 26 C 5.551086 3.026018 -22.001975 0
M  V30 27 C 11.939239 6.887202 -20.542284 0
M  V30 28 C 13.441421 3.432156 -18.299486 0
M  V30 29 C 15.090622 1.800287 -18.149732 0 CFG=2
M  V30 30 O 15.431627 0.432032 -18.134297 0
M  V30 31 C 11.435159 7.835192 -19.491669 0
M  V30 32 C 9.742692 5.816645 -19.577896 0 CFG=2
M  V30 33 N 9.009305 5.655684 -18.293967 0 CFG=1 CHG=1
M  V30 34 C 15.021003 2.441329 -16.701699 0
M  V30 35 H 14.658419 4.695818 -15.321676 0
M  V30 36 H 13.492593 5.520855 -16.444763 0
M  V30 37 H 11.535452 4.761227 -16.247377 0
M  V30 38 H 10.962372 6.381540 -16.506943 0
M  V30 39 H 12.096067 4.010279 -19.790433 0
M  V30 40 H 9.984442 3.658804 -19.921090 0
M  V30 41 H 10.418539 4.660679 -21.261860 0
M  V30 42 H 4.535456 1.687153 -20.520300 0
M  V30 43 H 4.634836 3.457652 -20.035539 0
M  V30 44 H 10.010759 -0.384249 -19.810387 0
M  V30 45 H 7.108992 5.484223 -17.450268 0
M  V30 46 H 7.076924 6.046528 -19.092680 0
M  V30 47 H 7.947542 3.162682 -18.400865 0
M  V30 48 H 6.291911 3.621014 -18.514744 0
M  V30 49 H 8.499881 3.646189 -22.016231 0
M  V30 50 H 7.966930 5.246099 -21.600268 0
M  V30 51 H 8.913109 1.828949 -19.720907 0
M  V30 52 H 6.813996 -1.885611 -22.263253 0
M  V30 53 H 5.700149 0.322158 -22.183612 0
M  V30 54 H 9.850220 3.793282 -17.659300 0
M  V30 55 H 9.138377 4.756840 -16.384496 0
M  V30 56 H 13.080070 0.173409 -19.452127 0
M  V30 57 H 11.954999 1.441805 -19.856949 0
M  V30 58 H 12.823782 6.241059 -18.087297 0
M  V30 59 H 12.613865 0.798346 -17.192888 0
M  V30 60 H 5.479730 4.080119 -22.263011 0
M  V30 61 H 5.356089 2.345178 -22.826537 0
M  V30 62 H 13.013215 6.715198 -20.585821 0
M  V30 63 H 11.435561 6.904313 -21.506858 0
M  V30 64 H 15.930561 2.288928 -18.646132 0
M  V30 65 H 14.727252 -0.069208 -17.753330 0
M  V30 66 H 10.616431 8.491294 -19.775287 0
M  V30 67 H 12.185741 8.289852 -18.850265 0
M  V30 68 H 9.220105 6.601261 -20.127490 0
M  V30 69 H 15.981864 2.746061 -16.291661 0
M  V30 70 H 14.512611 1.792033 -15.990042 0
M  V30 71 H 9.021499 6.581041 -17.890041 0
M  V30 END ATOM
M  V30 BEGIN BOND
M  V30 1 1 9 1
M  V30 2 1 10 1
M  V30 3 1 11 2
M  V30 4 1 11 8
M  V30 5 1 14 13
M  V30 6 1 15 6
M  V30 7 1 16 2
M  V30 8 2 16 10
M  V30 9 1 7 17 CFG=3
M  V30 10 2 18 1
M  V30 11 2 19 2
M  V30 12 1 19 18
M  V30 13 2 20 3
M  V30 14 1 21 11
M  V30 15 1 21 14
M  V30 16 1 21 15
M  V30 17 1 22 4
M  V30 18 1 23 7
M  V30 19 1 24 4
M  V30 20 1 24 5
M  V30 21 1 24 12
M  V30 22 1 25 23
M  V30 23 1 26 8
M  V30 24 1 26 11
M  V30 25 1 27 12
M  V30 26 2 28 5
M  V30 27 1 28 7
M  V30 28 1 28 20
M  V30 29 1 29 7
M  V30 30 1 30 29
M  V30 31 1 31 12
M  V30 32 1 31 27
M  V30 33 1 32 6
M  V30 34 1 32 12
M  V30 35 1 33 13
M  V30 36 1 33 22
M  V30 37 1 33 32
M  V30 38 1 34 20
M  V30 39 1 34 29
M  V30 40 1 35 3
M  V30 41 1 36 3
M  V30 42 1 37 4
M  V30 43 1 38 4
M  V30 44 1 39 5
M  V30 45 1 40 6
M  V30 46 1 41 6
M  V30 47 1 42 8
M  V30 48 1 43 8
M  V30 49 1 44 10
M  V30 50 1 45 13
M  V30 51 1 46 13
M  V30 52 1 47 14
M  V30 53 1 48 14
M  V30 54 1 49 15
M  V30 55 1 50 15
M  V30 56 1 51 16
M  V30 57 1 52 18
M  V30 58 1 53 19
M  V30 59 1 54 22
M  V30 60 1 55 22
M  V30 61 1 56 23
M  V30 62 1 57 23
M  V30 63 1 24 58 CFG=1
M  V30 64 1 59 25
M  V30 65 1 60 26
M  V30 66 1 61 26
M  V30 67 1 62 27
M  V30 68 1 63 27
M  V30 69 1 29 64 CFG=3
M  V30 70 1 65 30
M  V30 71 1 66 31
M  V30 72 1 67 31
M  V30 73 1 32 68 CFG=3
M  V30 74 1 69 34
M  V30 75 1 70 34
M  V30 76 1 33 71 CFG=1
M  V30 END BOND
M  V30 END CTAB
M  END
>  <i_epik_Tot_Q>  (1) 
1

>  <i_epik_Tot_abs_Q>  (1) 
1

>  <i_i_glide_confnum>  (1) 
188

>  <i_i_glide_lignum>  (1) 
80

>  <i_i_glide_posenum>  (1) 
13

>  <i_i_glide_rotatable_bonds>  (1) 
6

>  <i_lp_mmshare_version>  (1) 
72125

>  <i_m_source_file_index>  (1) 
32

>  <i_f3d_flags>  (1) 
0

>  <num_sample>  (1) 
50

>  <b_lp_Chiralities_Consistent>  (1) 
1

>  <r_epik_Charging_Adjusted_Penalty>  (1) 
0.0036996964664751512

>  <r_epik_Ionization_Penalty>  (1) 
0.0040620325304727405

>  <r_epik_Ionization_Penalty_Charging>  (1) 
0.0036996964664751512

>  <r_epik_Ionization_Penalty_Neutral>  (1) 
0.00036233606399758918

>  <r_epik_State_Penalty>  (1) 
-0

>  <r_glide_ring_energy>  (1) 
0

>  <r_i_docking_score>  (1) 
-2.4094405068637372

>  <r_i_glide_ecoul>  (1) 
-3.270751682769343

>  <r_i_glide_eff_state_penalty>  (1) 
-0

>  <r_i_glide_einternal>  (1) 
10.925965892968335

>  <r_i_glide_emodel>  (1) 
-37.501173556127476

>  <r_i_glide_emodel_strain>  (1) 
0

>  <r_i_glide_energy>  (1) 
-23.564069847487019

>  <r_i_glide_erotb>  (1) 
0.36352394052346937

>  <r_i_glide_esite>  (1) 
0

>  <r_i_glide_evdw>  (1) 
-20.293318164717675

>  <r_i_glide_gscore>  (1) 
-2.4094405068637372

>  <r_i_glide_gscore_strain>  (1) 
0

>  <r_i_glide_hbond>  (1) 
-0.12119236240380316

>  <r_i_glide_ligand_efficiency>  (1) 
-0.070865897260698155

>  <r_i_glide_ligand_efficiency_ln>  (1) 
-0.53231299048324465

>  <r_i_glide_ligand_efficiency_sa>  (1) 
-0.22957799707387544

>  <r_i_glide_lipo>  (1) 
-0.91530263376517917

>  <r_i_glide_metal>  (1) 
-0

>  <r_i_glide_rewards>  (1) 
-0.23119079056693967

>  <r_lp_Energy>  (1) 
33.989857000000001

>  <r_lp_tautomer_probability>  (1) 
1

>  <s_epik_cmdline>  (1) 
J2VwaWtfcHl0aG9uJywgJy1waHQnLCAnMS4wJywgJy1waCcsICc3LjQnLCAnLXRuJywgJzgnLCAnLW1hJywgJzUwMCcsICctaW1hZScsICc8aW5maWxlLm1hZT4nLCAnLW9tYWUnLCAnPG91dGZpbGUubWFlPic=

>  <s_epik_input>  (1) 
RmMxW2NIXVtjSF1jKFtjSF1bY0hdMSlDMihbQ0gyXVtDSDJdMilOKFtDSDJdW0NIMl0zKVtDSDJdW0NIMl1OKFtDQEhdM0M0NVtDSDJdW0NIMl01KVtDSDJdW0NIMl1bQ0BIXTQvW0NIXT1DKC9bQ0BdNihGKVtDSDJdW09IXSlDKD1bQ0gyXSlbQ0gyXVtDQEhdNltPSF0=

>  <s_glide_docking_method>  (1) 
confgen

>  <s_i_glide_gridfile>  (1) 
gpcr_drd2_6luq_protein_autoprepared_prepared

>  <s_lp_Force_Field>  (1) 
S-OPLS

>  <s_lp_Variant>  (1) 
DiffSBDD_31_num_sample_50-3

>  <s_m_source_file>  (1) 
generated__ligand_DiffSBDD_2026-05-06_prepared.sdf

>  <GenAI_Model>  (1) 
DiffSBDD

>  <Protein>  (1) 
generic_title2

$$$$
DiffSBDD_41_num_sample_50
     RDKit          3D

  0  0  0  0  0  0  0  0  0  0999 V3000
M  V30 BEGIN CTAB
M  V30 COUNTS 105 110 0 0 1
M  V30 BEGIN ATOM
M  V30 1 C 7.308767 -5.772198 -19.984926 0
M  V30 2 C 8.708867 -1.831933 -22.695385 0
M  V30 3 C 7.470461 -1.737832 -21.770024 0
M  V30 4 C 5.418654 -0.479979 -19.735618 0
M  V30 5 C 7.004592 -5.572571 -21.270243 0
M  V30 6 O 10.441111 -0.435994 -23.593102 0
M  V30 7 C 10.370758 5.008425 -21.328382 0
M  V30 8 N 11.020216 1.887992 -19.227286 0
M  V30 9 O 13.636659 4.940144 -16.291696 0
M  V30 10 C 9.898305 -0.585321 -19.152557 0 CFG=2
M  V30 11 C 4.728163 0.417006 -18.691666 0
M  V30 12 O 8.546347 -0.942119 -18.937685 0
M  V30 13 C 9.008624 1.551263 -17.916767 0
M  V30 14 C 14.216267 3.575576 -18.317632 0 CFG=1
M  V30 15 C 13.532826 0.401771 -21.685225 0
M  V30 16 C 14.201325 5.415806 -18.715529 0 CFG=2
M  V30 17 C 8.281303 -2.291575 -18.596780 0
M  V30 18 C 8.069475 -3.318224 -19.764214 0 CFG=1
M  V30 19 C 15.105352 4.328226 -19.330895 0
M  V30 20 C 7.778483 -4.674454 -19.060787 0
M  V30 21 C 13.968715 6.071511 -15.504779 0
M  V30 22 C 9.323556 2.779884 -22.114477 0
M  V30 23 O 10.999495 4.462226 -20.171639 0
M  V30 24 C 14.263357 6.919562 -18.994749 0
M  V30 25 C 9.300797 -0.486094 -23.133688 0
M  V30 26 C 12.299631 0.378433 -20.765672 0
M  V30 27 N 12.609250 2.818556 -20.695976 0 CHG=1
M  V30 28 N 8.521798 0.602062 -22.986979 0
M  V30 29 C 10.163142 4.014692 -22.482368 0
M  V30 30 C 7.099740 -4.225099 -21.947125 0 CFG=2
M  V30 31 S 14.234397 1.790414 -17.886452 0
M  V30 32 C 7.052335 -3.006257 -20.949552 0 CFG=2
M  V30 33 O 6.135443 -4.130936 -22.978575 0
M  V30 34 C 5.147013 0.024879 -17.247606 0
M  V30 35 F 12.169311 7.260962 -20.040880 0
M  V30 36 C 10.744398 -0.385238 -17.915932 0
M  V30 37 C 11.966378 1.733675 -20.202707 0
M  V30 38 C 12.370144 4.198956 -20.242231 0 CFG=2
M  V30 39 C 4.921811 -1.456284 -17.087042 0
M  V30 40 C 4.998126 -2.304078 -18.113767 0
M  V30 41 C 12.905095 7.632878 -18.998076 0
M  V30 42 C 10.154552 0.827233 -18.618074 0 CFG=2
M  V30 43 F 12.234832 7.401642 -17.871542 0
M  V30 44 N 5.290849 -1.904279 -19.404257 0
M  V30 45 C 5.555266 -2.860357 -20.474413 0
M  V30 46 C 14.541495 4.746483 -17.368850 0 CFG=1
M  V30 47 C 8.966466 1.945962 -23.347782 0
M  V30 48 C 13.015478 4.417935 -18.854656 0 CFG=1
M  V30 49 H 7.219460 -6.761331 -19.559601 0
M  V30 50 H 8.463952 -2.388999 -23.600093 0
M  V30 51 H 9.509954 -2.377079 -22.197295 0
M  V30 52 H 7.656740 -0.915426 -21.098925 0
M  V30 53 H 6.625897 -1.426287 -22.386391 0
M  V30 54 H 6.457733 -0.181346 -19.711095 0
M  V30 55 H 5.034871 -0.275940 -20.733386 0
M  V30 56 H 6.675903 -6.402794 -21.878724 0
M  V30 57 H 9.396884 5.384358 -21.014089 0
M  V30 58 H 10.923202 5.877359 -21.685525 0
M  V30 59 H 10.854817 2.829769 -18.894619 0
M  V30 60 H 10.315141 -1.030683 -20.043672 0
M  V30 61 H 3.650471 0.295814 -18.807671 0
M  V30 62 H 4.957347 1.464869 -18.885995 0
M  V30 63 H 8.770329 1.071901 -16.966563 0
M  V30 64 H 9.249459 2.594404 -17.706951 0
M  V30 65 H 8.112369 1.533122 -18.538268 0
M  V30 66 H 13.762615 -0.605141 -22.034680 0
M  V30 67 H 13.363870 1.015455 -22.570713 0
M  V30 68 H 14.414640 0.774096 -21.162522 0
M  V30 69 H 7.421798 -2.266103 -17.947593 0
M  V30 70 H 9.034823 -2.643419 -17.891902 0
M  V30 71 H 9.031370 -3.433727 -20.264449 0
M  V30 72 H 16.171931 4.390578 -19.097009 0
M  V30 73 H 14.956100 4.109072 -20.388514 0
M  V30 74 H 7.005444 -4.550547 -18.301934 0
M  V30 75 H 8.671153 -5.019754 -18.537425 0
M  V30 76 H 13.265380 6.169306 -14.678900 0
M  V30 77 H 14.972791 5.977036 -15.091659 0
M  V30 78 H 13.927092 6.992096 -16.084032 0
M  V30 79 H 9.887384 2.155804 -21.431980 0
M  V30 80 H 8.413213 3.074471 -21.590681 0
M  V30 81 H 14.900541 7.396214 -18.249703 0
M  V30 82 H 14.755957 7.096647 -19.951104 0
M  V30 83 H 12.826772 4.864929 -20.976062 0
M  V30 84 H 12.516049 -0.319022 -19.965789 0
M  V30 85 H 7.592149 0.496114 -22.607282 0
M  V30 86 H 9.665976 4.546279 -23.294760 0
M  V30 87 H 11.126705 3.700213 -22.883281 0
M  V30 88 H 8.068163 -4.280285 -22.441313 0
M  V30 89 H 15.435003 1.792711 -17.303796 0
M  V30 90 H 5.272311 -4.150122 -22.594332 0
M  V30 91 H 4.634840 0.569164 -16.459550 0
M  V30 92 H 6.209621 0.219399 -17.099962 0
M  V30 93 H 10.300626 -0.712212 -16.980982 0
M  V30 94 H 11.820320 -0.523423 -17.963121 0
M  V30 95 H 11.464561 0.028423 -21.359315 0
M  V30 96 H 4.707309 -1.820489 -16.095375 0
M  V30 97 H 4.855107 -3.368995 -17.998123 0
M  V30 98 H 13.034913 8.712311 -19.084497 0
M  V30 99 H 4.920423 -2.578910 -21.314988 0
M  V30 100 H 5.180663 -3.831732 -20.150915 0
M  V30 101 H 15.585536 4.797998 -17.044020 0
M  V30 102 H 8.167670 2.441804 -23.897299 0
M  V30 103 H 9.833083 1.909155 -24.004176 0
M  V30 104 H 12.237364 4.572958 -18.103592 0
M  V30 105 H 13.254898 2.659285 -21.456839 0
M  V30 END ATOM
M  V30 BEGIN BOND
M  V30 1 1 3 2
M  V30 2 2 5 1
M  V30 3 1 11 4
M  V30 4 1 12 10
M  V30 5 1 17 12
M  V30 6 1 18 17
M  V30 7 1 19 14
M  V30 8 1 19 16
M  V30 9 1 20 1
M  V30 10 1 20 18
M  V30 11 1 21 9
M  V30 12 1 23 7
M  V30 13 1 16 24 CFG=1
M  V30 14 1 25 2
M  V30 15 2 25 6
M  V30 16 1 26 15
M  V30 17 1 28 25
M  V30 18 1 29 7
M  V30 19 1 29 22
M  V30 20 1 30 5
M  V30 21 1 14 31 CFG=1
M  V30 22 1 32 3
M  V30 23 1 32 18
M  V30 24 1 32 30
M  V30 25 1 33 30
M  V30 26 1 34 11
M  V30 27 1 36 10
M  V30 28 1 37 8
M  V30 29 1 37 26
M  V30 30 2 37 27
M  V30 31 1 38 23
M  V30 32 1 38 27
M  V30 33 1 39 34
M  V30 34 2 40 39
M  V30 35 1 41 24
M  V30 36 1 41 35
M  V30 37 1 42 8
M  V30 38 1 42 10
M  V30 39 1 42 13 CFG=1
M  V30 40 1 42 36
M  V30 41 1 43 41
M  V30 42 1 44 4
M  V30 43 1 44 40
M  V30 44 1 32 45 CFG=1
M  V30 45 1 45 44
M  V30 46 1 46 9
M  V30 47 1 46 14
M  V30 48 1 46 16
M  V30 49 1 47 22
M  V30 50 1 47 28
M  V30 51 1 48 14
M  V30 52 1 48 16
M  V30 53 1 48 38
M  V30 54 1 49 1
M  V30 55 1 50 2
M  V30 56 1 51 2
M  V30 57 1 52 3
M  V30 58 1 53 3
M  V30 59 1 54 4
M  V30 60 1 55 4
M  V30 61 1 56 5
M  V30 62 1 57 7
M  V30 63 1 58 7
M  V30 64 1 59 8
M  V30 65 1 10 60 CFG=3
M  V30 66 1 61 11
M  V30 67 1 62 11
M  V30 68 1 63 13
M  V30 69 1 64 13
M  V30 70 1 65 13
M  V30 71 1 66 15
M  V30 72 1 67 15
M  V30 73 1 68 15
M  V30 74 1 69 17
M  V30 75 1 70 17
M  V30 76 1 18 71 CFG=3
M  V30 77 1 72 19
M  V30 78 1 73 19
M  V30 79 1 74 20
M  V30 80 1 75 20
M  V30 81 1 76 21
M  V30 82 1 77 21
M  V30 83 1 78 21
M  V30 84 1 79 22
M  V30 85 1 80 22
M  V30 86 1 81 24
M  V30 87 1 82 24
M  V30 88 1 38 83 CFG=3
M  V30 89 1 84 26
M  V30 90 1 85 28
M  V30 91 1 86 29
M  V30 92 1 87 29
M  V30 93 1 30 88 CFG=3
M  V30 94 1 89 31
M  V30 95 1 90 33
M  V30 96 1 91 34
M  V30 97 1 92 34
M  V30 98 1 93 36
M  V30 99 1 94 36
M  V30 100 1 95 26
M  V30 101 1 96 39
M  V30 102 1 97 40
M  V30 103 1 98 41
M  V30 104 1 99 45
M  V30 105 1 100 45
M  V30 106 1 46 101 CFG=1
M  V30 107 1 102 47
M  V30 108 1 103 47
M  V30 109 1 48 104 CFG=1
M  V30 110 1 105 27
M  V30 END BOND
M  V30 END CTAB
M  END
>  <i_epik_Tot_Q>  (1) 
1

>  <i_epik_Tot_abs_Q>  (1) 
1

>  <i_i_glide_confnum>  (1) 
79

>  <i_i_glide_lignum>  (1) 
102

>  <i_i_glide_posenum>  (1) 
38

>  <i_i_glide_rotatable_bonds>  (1) 
9

>  <i_lp_mmshare_version>  (1) 
72125

>  <i_m_source_file_index>  (1) 
42

>  <i_f3d_flags>  (1) 
0

>  <num_sample>  (1) 
50

>  <b_lp_Chiralities_Consistent>  (1) 
1

>  <r_epik_Charging_Adjusted_Penalty>  (1) 
0.076842420233623365

>  <r_epik_Ionization_Penalty>  (1) 
0.078794888684849976

>  <r_epik_Ionization_Penalty_Charging>  (1) 
0.00072930087509115145

>  <r_epik_Ionization_Penalty_Neutral>  (1) 
0.078065587809758821

>  <r_epik_State_Penalty>  (1) 
0.076113119358532211

>  <r_glide_ring_energy>  (1) 
0

>  <r_i_docking_score>  (1) 
-2.3968933173690994

>  <r_i_glide_ecoul>  (1) 
0.071301130326419937

>  <r_i_glide_eff_state_penalty>  (1) 
0.076113119358532211

>  <r_i_glide_einternal>  (1) 
11.759033394684341

>  <r_i_glide_emodel>  (1) 
-23.155427043048327

>  <r_i_glide_emodel_strain>  (1) 
0.35778870320918088

>  <r_i_glide_energy>  (1) 
-25.862548593960518

>  <r_i_glide_erotb>  (1) 
0.0035911919815773572

>  <r_i_glide_esite>  (1) 
-0.013986452395951275

>  <r_i_glide_evdw>  (1) 
-25.933849724286937

>  <r_i_glide_gscore>  (1) 
-2.4730064367276317

>  <r_i_glide_gscore_strain>  (1) 
0

>  <r_i_glide_hbond>  (1) 
0

>  <r_i_glide_ligand_efficiency>  (1) 
-0.049935277445189573

>  <r_i_glide_ligand_efficiency_ln>  (1) 
-0.49205387172523357

>  <r_i_glide_ligand_efficiency_sa>  (1) 
-0.1814768419088805

>  <r_i_glide_lipo>  (1) 
-0.88772603023411112

>  <r_i_glide_metal>  (1) 
-0

>  <r_i_glide_rewards>  (1) 
-0.28888782941376223

>  <r_lp_Energy>  (1) 
121.88109999999999

>  <s_epik_Chemistry_Notes>  (1) 
This compound has an imine and may undergo hydrolysis. This compound contains an acetal/aminal-like group ( X-CH(R)-Y where X, Y are N, S, or O) that may be acid/base labile, releasing an aldehyde.

>  <s_epik_cmdline>  (1) 
J2VwaWtfcHl0aG9uJywgJy1waHQnLCAnMS4wJywgJy1waCcsICc3LjQnLCAnLXRuJywgJzgnLCAnLW1hJywgJzUwMCcsICctaW1hZScsICc8aW5maWxlLm1hZT4nLCAnLW9tYWUnLCAnPG91dGZpbGUubWFlPic=

>  <s_epik_input>  (1) 
W0NIXTE9W0NIXVtDSDJdW0NIMl1bQ0gyXU4xW0NIMl1bQ0BdMjNbQ0BIXShbQ0gyXVtDSF09W0NIXVtDQEhdM1tPSF0pW0NIMl1PW0NASF00W0NAQF0oW0NIM10pKFtDSDJdNClbTkhdW0NASF0oW0NIMl1bQ0gzXSkvTj1DKFtDQEBIXTVbQ0BdKFtDSDJdW0NIXShGKUYpKFtDSDJdW0NAXTU2W1NIXSlbQ0BIXTZPW0NIM10pL09bQ0gyXVtDSDJdW0NIMl1bQ0gyXVtOSF1DKD1PKVtDSDJdW0NIMl0y

>  <s_glide_docking_method>  (1) 
confgen

>  <s_i_glide_gridfile>  (1) 
gpcr_drd2_6luq_protein_autoprepared_prepared

>  <s_lp_Force_Field>  (1) 
S-OPLS

>  <s_lp_Variant>  (1) 
DiffSBDD_41_num_sample_50-2

>  <s_m_source_file>  (1) 
generated__ligand_DiffSBDD_2026-05-06_prepared.sdf

>  <GenAI_Model>  (1) 
DiffSBDD

>  <Protein>  (1) 
generic_title2

$$$$
DiffSBDD_2_num_sample_50
     RDKit          3D

  0  0  0  0  0  0  0  0  0  0999 V3000
M  V30 BEGIN CTAB
M  V30 COUNTS 55 58 0 0 1
M  V30 BEGIN ATOM
M  V30 1 C 9.856162 5.753298 -7.966072 0 CFG=1
M  V30 2 C 9.961536 6.982674 -10.930873 0
M  V30 3 O 11.032812 8.569309 -9.743156 0 CHG=-1
M  V30 4 C 7.468459 4.520071 -16.998233 0
M  V30 5 O 8.012289 1.199313 -14.175348 0
M  V30 6 C 7.642133 1.067047 -15.450763 0
M  V30 7 C 11.986514 9.422157 -6.457006 0
M  V30 8 C 7.362101 1.895438 -13.257946 0
M  V30 9 C 11.178242 8.547721 -5.491790 0
M  V30 10 O 6.458407 3.767327 -12.320837 0
M  V30 11 C 7.434823 2.091956 -16.290972 0
M  V30 12 C 7.240580 2.742953 -18.640323 0
M  V30 13 C 7.071403 3.190043 -13.366920 0
M  V30 14 C 8.907227 4.881595 -10.132631 0
M  V30 15 N 10.563472 6.920563 -8.469415 0 CFG=1 CHG=1
M  V30 16 C 10.032751 7.742142 -9.577892 0 CFG=2
M  V30 17 C 10.910184 7.116584 -5.990891 0
M  V30 18 C 7.378584 4.134673 -18.282706 0
M  V30 19 C 8.867431 5.454042 -12.479874 0
M  V30 20 N 8.884767 5.985876 -11.091448 0
M  V30 21 C 7.329021 4.026626 -14.586134 0
M  V30 22 C 7.835595 6.155057 -13.409576 0
M  V30 23 N 7.289506 5.446983 -14.441314 0
M  V30 24 C 7.269797 1.779809 -17.706544 0
M  V30 25 C 7.435026 3.540355 -15.890283 0
M  V30 26 C 9.938374 7.024742 -7.154126 0 CFG=2
M  V30 27 O 7.592124 7.348878 -13.250524 0
M  V30 28 C 8.607521 5.356337 -8.709944 0
M  V30 29 H 10.598067 4.969803 -7.832414 0
M  V30 30 H 10.936051 6.569301 -11.181445 0
M  V30 31 H 9.780144 7.736984 -11.699644 0
M  V30 32 H 7.554649 5.573591 -16.785782 0
M  V30 33 H 7.665760 0.033101 -15.765903 0
M  V30 34 H 12.197916 10.394039 -6.010788 0
M  V30 35 H 11.434874 9.604774 -7.376017 0
M  V30 36 H 12.939286 8.969330 -6.727289 0
M  V30 37 H 7.152982 1.304016 -12.378412 0
M  V30 38 H 11.713918 8.492856 -4.543295 0
M  V30 39 H 10.234820 9.046394 -5.280165 0
M  V30 40 H 6.292541 4.670240 -12.546327 0
M  V30 41 H 7.127832 2.471125 -19.679667 0
M  V30 42 H 8.110168 4.186545 -10.393911 0
M  V30 43 H 9.834837 4.312902 -10.187893 0
M  V30 44 H 9.034837 8.099507 -9.340997 0
M  V30 45 H 11.836182 6.605091 -6.242766 0
M  V30 46 H 10.474897 6.547020 -5.168517 0
M  V30 47 H 7.396983 4.881988 -19.062210 0
M  V30 48 H 8.918936 4.374065 -12.482333 0
M  V30 49 H 9.825572 5.676964 -12.952640 0
M  V30 50 H 6.794157 5.956453 -15.157172 0
M  V30 51 H 7.184608 0.747233 -18.014183 0
M  V30 52 H 9.064279 7.674592 -7.132735 0
M  V30 53 H 8.151633 4.539067 -8.151358 0
M  V30 54 H 7.871777 6.155009 -8.691586 0
M  V30 55 H 11.567999 6.866211 -8.433623 0
M  V30 END ATOM
M  V30 BEGIN BOND
M  V30 1 1 6 5
M  V30 2 1 8 5
M  V30 3 1 9 7
M  V30 4 2 11 6
M  V30 5 2 13 8
M  V30 6 1 13 10
M  V30 7 1 15 1
M  V30 8 1 16 2
M  V30 9 1 16 3
M  V30 10 1 16 15
M  V30 11 1 17 9
M  V30 12 2 18 4
M  V30 13 1 18 12
M  V30 14 1 20 2
M  V30 15 1 20 14
M  V30 16 1 20 19
M  V30 17 1 21 13
M  V30 18 1 22 19
M  V30 19 1 23 21
M  V30 20 1 23 22
M  V30 21 1 24 11
M  V30 22 2 24 12
M  V30 23 1 25 4
M  V30 24 1 25 11
M  V30 25 2 25 21
M  V30 26 1 26 1
M  V30 27 1 26 15
M  V30 28 1 26 17
M  V30 29 2 27 22
M  V30 30 1 28 1
M  V30 31 1 28 14
M  V30 32 1 1 29 CFG=1
M  V30 33 1 30 2
M  V30 34 1 31 2
M  V30 35 1 32 4
M  V30 36 1 33 6
M  V30 37 1 34 7
M  V30 38 1 35 7
M  V30 39 1 36 7
M  V30 40 1 37 8
M  V30 41 1 38 9
M  V30 42 1 39 9
M  V30 43 1 40 10
M  V30 44 1 41 12
M  V30 45 1 42 14
M  V30 46 1 43 14
M  V30 47 1 16 44 CFG=1
M  V30 48 1 45 17
M  V30 49 1 46 17
M  V30 50 1 47 18
M  V30 51 1 48 19
M  V30 52 1 49 19
M  V30 53 1 50 23
M  V30 54 1 51 24
M  V30 55 1 26 52 CFG=3
M  V30 56 1 53 28
M  V30 57 1 54 28
M  V30 58 1 15 55 CFG=1
M  V30 END BOND
M  V30 END CTAB
M  END
>  <i_epik_Tot_Q>  (1) 
0

>  <i_epik_Tot_abs_Q>  (1) 
2

>  <i_i_glide_confnum>  (1) 
31

>  <i_i_glide_lignum>  (1) 
8

>  <i_i_glide_posenum>  (1) 
292

>  <i_i_glide_rotatable_bonds>  (1) 
7

>  <i_lp_mmshare_version>  (1) 
72125

>  <i_m_source_file_index>  (1) 
3

>  <i_f3d_flags>  (1) 
0

>  <num_sample>  (1) 
50

>  <b_lp_Chiralities_Consistent>  (1) 
1

>  <r_epik_Charging_Adjusted_Penalty>  (1) 
1.1352312410036836

>  <r_epik_Ionization_Penalty>  (1) 
1.1482633258778028

>  <r_epik_Ionization_Penalty_Charging>  (1) 
0.01211088635150746

>  <r_epik_Ionization_Penalty_Neutral>  (1) 
1.1361524395262954

>  <r_epik_State_Penalty>  (1) 
1.1231203546521762

>  <r_glide_ring_energy>  (1) 
0

>  <r_i_docking_score>  (1) 
-2.3878376394761007

>  <r_i_glide_ecoul>  (1) 
-1.5557843229123904

>  <r_i_glide_eff_state_penalty>  (1) 
1.1231203546521762

>  <r_i_glide_einternal>  (1) 
6.3664310715609034

>  <r_i_glide_emodel>  (1) 
-40.633892290812383

>  <r_i_glide_emodel_strain>  (1) 
0.2223265524146143

>  <r_i_glide_energy>  (1) 
-36.3539648243516

>  <r_i_glide_erotb>  (1) 
0.65461972943922775

>  <r_i_glide_esite>  (1) 
-0.12957956439494173

>  <r_i_glide_evdw>  (1) 
-34.798180501439212

>  <r_i_glide_gscore>  (1) 
-3.5109579941282769

>  <r_i_glide_gscore_strain>  (1) 
0

>  <r_i_glide_hbond>  (1) 
0

>  <r_i_glide_ligand_efficiency>  (1) 
-0.085279915695575026

>  <r_i_glide_ligand_efficiency_ln>  (1) 
-0.55118303715064709

>  <r_i_glide_ligand_efficiency_sa>  (1) 
-0.25896005152366941

>  <r_i_glide_lipo>  (1) 
-2.1661750636252832

>  <r_i_glide_metal>  (1) 
-0

>  <r_i_glide_rewards>  (1) 
0.10345357796153976

>  <r_lp_Energy>  (1) 
71.160493000000002

>  <s_epik_Chemistry_Notes>  (1) 
This compound contains an acetal/aminal-like group ( X-CH(R)-Y where X, Y are N, S, or O) that may be acid/base labile, releasing an aldehyde.

>  <s_epik_cmdline>  (1) 
J2VwaWtfcHl0aG9uJywgJy1waHQnLCAnMS4wJywgJy1waCcsICc3LjQnLCAnLXRuJywgJzgnLCAnLW1hJywgJzUwMCcsICctaW1hZScsICc8aW5maWxlLm1hZT4nLCAnLW9tYWUnLCAnPG91dGZpbGUubWFlPic=

>  <s_epik_input>  (1) 
W0NIM11bQ0gyXVtDSDJdW0NIXTFOKFtDQEBIXTEyKVtDQEBIXShbT0hdKVtDSDJdTihbQ0gyXVtDSDJdMilbQ0gyXUMoPU8pW05IXUMoQyhbT0hdKT1bQ0hdT1tDSF09Myk9YyhjMzQpW2NIXVtjSF1bY0hdW2NIXTQ=

>  <s_glide_docking_method>  (1) 
confgen

>  <s_i_glide_gridfile>  (1) 
gpcr_drd2_6luq_protein_autoprepared_prepared

>  <s_lp_Force_Field>  (1) 
S-OPLS

>  <s_lp_Variant>  (1) 
DiffSBDD_2_num_sample_50-3

>  <s_m_source_file>  (1) 
generated__ligand_DiffSBDD_2026-05-06_prepared.sdf

>  <GenAI_Model>  (1) 
DiffSBDD

>  <Protein>  (1) 
generic_title2

$$$$
DiffSBDD_31_num_sample_50
     RDKit          3D

  0  0  0  0  0  0  0  0  0  0999 V3000
M  V30 BEGIN CTAB
M  V30 COUNTS 71 76 0 0 1
M  V30 BEGIN ATOM
M  V30 1 C -0.579657 19.517225 6.290961 0
M  V30 2 C -1.062334 17.592491 4.277794 0
M  V30 3 C 0.674403 18.886721 -4.745559 0
M  V30 4 C -2.989481 16.514372 -3.642250 0
M  V30 5 C -2.306106 18.355223 -5.151586 0
M  V30 6 C -1.327133 18.534960 -0.080003 0
M  V30 7 C -2.001645 19.640562 -7.262304 0 CFG=2
M  V30 8 C -1.765162 15.174548 3.609516 0
M  V30 9 F -0.348573 20.440364 7.252667 0
M  V30 10 C 0.474188 19.075840 5.473014 0
M  V30 11 C -1.321519 16.575344 3.204897 0
M  V30 12 C -1.976341 18.529076 -2.591811 0
M  V30 13 C -2.545448 15.807519 0.068926 0
M  V30 14 C -2.965150 16.627846 1.298058 0
M  V30 15 C -0.770959 17.775398 1.136453 0
M  V30 16 C 0.234830 18.117264 4.469680 0
M  V30 17 F -3.032776 20.447640 -7.006395 0
M  V30 18 C -1.874258 19.000561 6.108368 0
M  V30 19 C -2.116189 18.041407 5.105172 0
M  V30 20 C -0.043397 19.228620 -5.837788 0
M  V30 21 N -1.829529 17.233466 1.990577 0
M  V30 22 C -2.699278 15.716194 -2.367617 0
M  V30 23 C -2.432079 18.584862 -8.305933 0
M  V30 24 C -1.954403 17.633073 -3.849961 0 CFG=1
M  V30 25 O -1.344217 17.769306 -8.691640 0
M  V30 26 C -0.379213 15.391885 3.065331 0
M  V30 27 C -3.095644 19.552353 -2.452978 0
M  V30 28 C -1.465259 19.025294 -6.006498 0
M  V30 29 C -0.713010 20.494021 -7.663322 0 CFG=2
M  V30 30 O -0.565165 20.694941 -9.055284 0
M  V30 31 C -1.686227 20.028589 -2.686434 0
M  V30 32 C -1.588293 17.678358 -1.356290 0 CFG=2
M  V30 33 N -2.625164 16.607208 -1.180725 0 CFG=2 CHG=1
M  V30 34 C 0.603226 19.911235 -6.993655 0
M  V30 35 H 1.734110 19.091322 -4.712074 0
M  V30 36 H 0.250971 18.434936 -3.890812 0
M  V30 37 H -3.995412 16.934188 -3.584994 0
M  V30 38 H -2.988615 15.837971 -4.498614 0
M  V30 39 H -3.350592 18.301679 -5.425052 0
M  V30 40 H -2.194203 19.127926 0.210567 0
M  V30 41 H -0.547378 19.254875 -0.323850 0
M  V30 42 H -1.852146 14.969256 4.674601 0
M  V30 43 H -2.414015 14.572274 2.978369 0
M  V30 44 H 1.467972 19.473359 5.613444 0
M  V30 45 H -3.239527 14.969301 -0.003731 0
M  V30 46 H -1.555120 15.369300 0.176977 0
M  V30 47 H -3.638516 17.426846 0.985618 0
M  V30 48 H -3.568018 16.036876 1.985035 0
M  V30 49 H -0.181278 18.468056 1.737469 0
M  V30 50 H -0.081151 16.995408 0.813758 0
M  V30 51 H 1.046027 17.782730 3.842829 0
M  V30 52 H -2.684039 19.340476 6.737116 0
M  V30 53 H -3.112827 17.648275 4.967115 0
M  V30 54 H -3.489942 14.976640 -2.233875 0
M  V30 55 H -1.765157 15.161015 -2.472172 0
M  V30 56 H -2.831108 19.074234 -9.194920 0
M  V30 57 H -3.229348 17.953146 -7.912866 0
M  V30 58 H -1.043445 17.049566 -3.951791 0
M  V30 59 H -0.678360 18.335575 -9.058389 0
M  V30 60 H -0.178597 14.986691 2.076599 0
M  V30 61 H 0.442290 15.303005 3.772764 0
M  V30 62 H -3.797834 19.668236 -3.276402 0
M  V30 63 H -3.525898 19.731063 -1.470982 0
M  V30 64 H -0.849852 21.487050 -7.230979 0
M  V30 65 H -1.288052 21.223018 -9.361483 0
M  V30 66 H -1.219262 20.561332 -1.863866 0
M  V30 67 H -1.490086 20.477438 -3.656175 0
M  V30 68 H -0.643416 17.182427 -1.587589 0
M  V30 69 H 1.312100 20.687321 -6.703719 0
M  V30 70 H 1.098785 19.174689 -7.627295 0
M  V30 71 H -3.512352 17.088511 -1.140516 0
M  V30 END ATOM
M  V30 BEGIN BOND
M  V30 1 1 9 1
M  V30 2 1 10 1
M  V30 3 1 11 2
M  V30 4 1 11 8
M  V30 5 1 14 13
M  V30 6 1 15 6
M  V30 7 1 16 2
M  V30 8 2 16 10
M  V30 9 1 7 17 CFG=1
M  V30 10 2 18 1
M  V30 11 2 19 2
M  V30 12 1 19 18
M  V30 13 2 20 3
M  V30 14 1 21 11
M  V30 15 1 21 14
M  V30 16 1 21 15
M  V30 17 1 22 4
M  V30 18 1 23 7
M  V30 19 1 24 4
M  V30 20 1 24 5
M  V30 21 1 24 12
M  V30 22 1 25 23
M  V30 23 1 26 8
M  V30 24 1 26 11
M  V30 25 1 27 12
M  V30 26 2 28 5
M  V30 27 1 28 7
M  V30 28 1 28 20
M  V30 29 1 29 7
M  V30 30 1 30 29
M  V30 31 1 31 12
M  V30 32 1 31 27
M  V30 33 1 32 6
M  V30 34 1 32 12
M  V30 35 1 33 13
M  V30 36 1 33 22
M  V30 37 1 33 32
M  V30 38 1 34 20
M  V30 39 1 34 29
M  V30 40 1 35 3
M  V30 41 1 36 3
M  V30 42 1 37 4
M  V30 43 1 38 4
M  V30 44 1 39 5
M  V30 45 1 40 6
M  V30 46 1 41 6
M  V30 47 1 42 8
M  V30 48 1 43 8
M  V30 49 1 44 10
M  V30 50 1 45 13
M  V30 51 1 46 13
M  V30 52 1 47 14
M  V30 53 1 48 14
M  V30 54 1 49 15
M  V30 55 1 50 15
M  V30 56 1 51 16
M  V30 57 1 52 18
M  V30 58 1 53 19
M  V30 59 1 54 22
M  V30 60 1 55 22
M  V30 61 1 56 23
M  V30 62 1 57 23
M  V30 63 1 24 58 CFG=3
M  V30 64 1 59 25
M  V30 65 1 60 26
M  V30 66 1 61 26
M  V30 67 1 62 27
M  V30 68 1 63 27
M  V30 69 1 29 64 CFG=1
M  V30 70 1 65 30
M  V30 71 1 66 31
M  V30 72 1 67 31
M  V30 73 1 32 68 CFG=3
M  V30 74 1 69 34
M  V30 75 1 70 34
M  V30 76 1 33 71 CFG=1
M  V30 END BOND
M  V30 END CTAB
M  END
>  <i_epik_Tot_Q>  (1) 
1

>  <i_epik_Tot_abs_Q>  (1) 
1

>  <i_i_glide_confnum>  (1) 
144

>  <i_i_glide_lignum>  (1) 
81

>  <i_i_glide_posenum>  (1) 
230

>  <i_i_glide_rotatable_bonds>  (1) 
6

>  <i_lp_mmshare_version>  (1) 
72125

>  <i_m_source_file_index>  (1) 
32

>  <i_f3d_flags>  (1) 
0

>  <num_sample>  (1) 
50

>  <b_lp_Chiralities_Consistent>  (1) 
1

>  <r_epik_Charging_Adjusted_Penalty>  (1) 
0.0036996964664751512

>  <r_epik_Ionization_Penalty>  (1) 
0.0040620325304727405

>  <r_epik_Ionization_Penalty_Charging>  (1) 
0.0036996964664751512

>  <r_epik_Ionization_Penalty_Neutral>  (1) 
0.00036233606399758918

>  <r_epik_State_Penalty>  (1) 
-0

>  <r_glide_ring_energy>  (1) 
1.2687512697067889

>  <r_i_docking_score>  (1) 
-2.3786375611021731

>  <r_i_glide_ecoul>  (1) 
0.50421063338745686

>  <r_i_glide_eff_state_penalty>  (1) 
-0

>  <r_i_glide_einternal>  (1) 
9.1484554906724451

>  <r_i_glide_emodel>  (1) 
-19.101277200697528

>  <r_i_glide_emodel_strain>  (1) 
0.00154036627660048

>  <r_i_glide_energy>  (1) 
-19.420021737907071

>  <r_i_glide_erotb>  (1) 
0.36352394052346937

>  <r_i_glide_esite>  (1) 
0

>  <r_i_glide_evdw>  (1) 
-19.924232371294529

>  <r_i_glide_gscore>  (1) 
-2.3786375611021731

>  <r_i_glide_gscore_strain>  (1) 
0

>  <r_i_glide_hbond>  (1) 
0

>  <r_i_glide_ligand_efficiency>  (1) 
-0.069959928267710969

>  <r_i_glide_ligand_efficiency_ln>  (1) 
-0.52550775577115194

>  <r_i_glide_ligand_efficiency_sa>  (1) 
-0.22664300923260269

>  <r_i_glide_lipo>  (1) 
-1.6280548189781241

>  <r_i_glide_metal>  (1) 
-0

>  <r_i_glide_rewards>  (1) 
-0.19352665909091038

>  <r_lp_Energy>  (1) 
34.452109999999998

>  <r_lp_tautomer_probability>  (1) 
1

>  <s_epik_cmdline>  (1) 
J2VwaWtfcHl0aG9uJywgJy1waHQnLCAnMS4wJywgJy1waCcsICc3LjQnLCAnLXRuJywgJzgnLCAnLW1hJywgJzUwMCcsICctaW1hZScsICc8aW5maWxlLm1hZT4nLCAnLW9tYWUnLCAnPG91dGZpbGUubWFlPic=

>  <s_epik_input>  (1) 
RmMxW2NIXVtjSF1jKFtjSF1bY0hdMSlDMihbQ0gyXVtDSDJdMilOKFtDSDJdW0NIMl0zKVtDSDJdW0NIMl1OKFtDQEhdM0M0NVtDSDJdW0NIMl01KVtDSDJdW0NIMl1bQ0BIXTQvW0NIXT1DKC9bQ0BdNihGKVtDSDJdW09IXSlDKD1bQ0gyXSlbQ0gyXVtDQEhdNltPSF0=

>  <s_glide_docking_method>  (1) 
confgen

>  <s_i_glide_gridfile>  (1) 
gpcr_drd2_6luq_protein_autoprepared_prepared

>  <s_lp_Force_Field>  (1) 
S-OPLS

>  <s_lp_Variant>  (1) 
DiffSBDD_31_num_sample_50-4

>  <s_m_source_file>  (1) 
generated__ligand_DiffSBDD_2026-05-06_prepared.sdf

>  <GenAI_Model>  (1) 
DiffSBDD

>  <Protein>  (1) 
generic_title2

$$$$
DiffSBDD_40_num_sample_50
     RDKit          3D

  0  0  0  0  0  0  0  0  0  0999 V3000
M  V30 BEGIN CTAB
M  V30 COUNTS 79 82 0 0 1
M  V30 BEGIN ATOM
M  V30 1 C 7.025522 0.477370 -15.013387 0 CFG=1
M  V30 2 S 9.034571 8.271848 -11.868119 0
M  V30 3 C 5.931167 5.678757 -14.540225 0
M  V30 4 C 7.746566 2.988054 -17.046524 0 CFG=2
M  V30 5 C 6.687237 5.331897 -13.486234 0
M  V30 6 C 5.520335 -2.427286 -17.503928 0
M  V30 7 C 7.182275 0.511869 -16.557337 0 CFG=2
M  V30 8 C 5.864808 -1.789045 -18.641555 0
M  V30 9 C 8.226943 1.543355 -17.045066 0
M  V30 10 C 6.288761 1.611612 -14.304516 0
M  V30 11 C 10.455394 6.051616 -12.485709 0
M  V30 12 C 6.135884 -2.593682 -19.904111 0 CFG=1
M  V30 13 C 7.960062 6.100953 -13.138169 0 CFG=1
M  V30 14 C 6.236569 0.303622 -19.840548 0
M  V30 15 C 5.714477 -1.800405 -21.139946 0 CFG=2
M  V30 16 C 5.990801 -0.315869 -18.665083 0
M  V30 17 C 6.311689 4.145175 -12.576297 0 CFG=1
M  V30 18 C 10.270358 7.077828 -11.337582 0 CFG=2
M  V30 19 S 5.035053 5.769328 -10.691684 0
M  V30 20 C 8.656584 3.990910 -17.834066 0
M  V30 21 F 5.964882 -2.487922 -22.254855 0
M  V30 22 C 5.862076 0.513096 -17.382335 0
M  V30 23 C 6.377018 -0.416263 -21.173397 0
M  V30 24 C 7.670387 7.142158 -12.056595 0
M  V30 25 F 7.436251 -2.886558 -19.981011 0
M  V30 26 O 8.136777 4.963925 -18.376370 0
M  V30 27 O 7.265710 3.100571 -12.705105 0
M  V30 28 O 6.234870 -0.630690 -14.718946 0
M  V30 29 C 6.155123 4.402849 -11.061899 0
M  V30 30 C 11.753323 8.631852 -7.770412 0
M  V30 31 N 9.491361 6.278960 -7.696091 0
M  V30 32 C 6.727764 1.801584 -12.848572 0
M  V30 33 N 9.434820 5.308351 -9.711199 0
M  V30 34 O 8.605758 3.812381 -16.454032 0
M  V30 35 C 9.930888 7.177944 -8.708300 0
M  V30 36 C 9.204560 5.231981 -12.852471 0
M  V30 37 C 9.901805 6.569263 -9.960284 0
M  V30 38 C 9.212751 5.208790 -8.421227 0
M  V30 39 C 10.344113 8.569150 -8.362735 0
M  V30 40 H 8.014989 0.328816 -14.579617 0
M  V30 41 H 6.205037 6.510986 -15.173642 0
M  V30 42 H 5.034864 5.138365 -14.779354 0
M  V30 43 H 6.712937 3.250219 -16.843844 0
M  V30 44 H 5.430396 -3.503427 -17.478358 0
M  V30 45 H 5.323466 -1.893797 -16.593212 0
M  V30 46 H 7.652782 -0.451271 -16.768430 0
M  V30 47 H 9.119167 1.458616 -16.423421 0
M  V30 48 H 8.547387 1.282916 -18.054600 0
M  V30 49 H 6.406582 2.545759 -14.843040 0
M  V30 50 H 5.227629 1.369260 -14.291612 0
M  V30 51 H 10.798662 6.569252 -13.376810 0
M  V30 52 H 11.268191 5.370830 -12.291640 0
M  V30 53 H 5.601616 -3.543773 -19.871787 0
M  V30 54 H 8.207088 6.673837 -14.031793 0
M  V30 55 H 6.340325 1.377456 -19.863700 0
M  V30 56 H 4.635005 -1.675552 -21.104588 0
M  V30 57 H 5.340601 3.796095 -12.936007 0
M  V30 58 H 11.205267 7.629113 -11.235347 0
M  V30 59 H 5.972203 6.644301 -10.272765 0
M  V30 60 H 5.013199 0.159406 -16.800679 0
M  V30 61 H 5.575182 1.530409 -17.646497 0
M  V30 62 H 5.916316 0.187857 -21.955679 0
M  V30 63 H 7.437017 -0.499295 -21.414136 0
M  V30 64 H 6.773091 7.720489 -12.281237 0
M  V30 65 H 7.527925 6.675027 -11.091999 0
M  V30 66 H 6.155834 -0.770440 -13.786049 0
M  V30 67 H 5.745052 3.512904 -10.586080 0
M  V30 68 H 7.108829 4.575000 -10.573525 0
M  V30 69 H 11.985352 9.647537 -7.455948 0
M  V30 70 H 11.836946 7.990029 -6.894728 0
M  V30 71 H 12.504429 8.314757 -8.495292 0
M  V30 72 H 5.904724 1.627854 -12.154426 0
M  V30 73 H 7.506539 1.087731 -12.575820 0
M  V30 74 H 9.281467 4.585970 -10.397672 0
M  V30 75 H 9.018940 4.520159 -12.056993 0
M  V30 76 H 9.426151 4.628343 -13.734201 0
M  V30 77 H 8.830171 4.302048 -7.974930 0
M  V30 78 H 10.286493 9.215670 -9.237523 0
M  V30 79 H 9.636254 8.969224 -7.638009 0
M  V30 END ATOM
M  V30 BEGIN BOND
M  V30 1 2 5 3
M  V30 2 1 7 1
M  V30 3 2 8 6
M  V30 4 1 9 4
M  V30 5 1 9 7
M  V30 6 1 10 1
M  V30 7 1 12 8
M  V30 8 1 13 5
M  V30 9 1 15 12
M  V30 10 1 16 8
M  V30 11 2 16 14
M  V30 12 1 17 5
M  V30 13 1 18 2
M  V30 14 1 18 11
M  V30 15 1 20 4
M  V30 16 1 21 15
M  V30 17 1 22 7
M  V30 18 1 22 16
M  V30 19 1 23 14
M  V30 20 1 23 15
M  V30 21 1 24 2
M  V30 22 1 24 13
M  V30 23 1 25 12
M  V30 24 2 26 20
M  V30 25 1 27 17
M  V30 26 1 28 1
M  V30 27 1 29 17
M  V30 28 1 29 19
M  V30 29 1 32 10
M  V30 30 1 32 27
M  V30 31 1 34 4
M  V30 32 1 34 20
M  V30 33 1 35 31
M  V30 34 1 36 11
M  V30 35 1 36 13
M  V30 36 1 37 18
M  V30 37 1 37 33
M  V30 38 2 37 35
M  V30 39 2 38 31
M  V30 40 1 38 33
M  V30 41 1 39 30
M  V30 42 1 39 35
M  V30 43 1 1 40 CFG=1
M  V30 44 1 41 3
M  V30 45 1 42 3
M  V30 46 1 4 43 CFG=1
M  V30 47 1 44 6
M  V30 48 1 45 6
M  V30 49 1 7 46 CFG=3
M  V30 50 1 47 9
M  V30 51 1 48 9
M  V30 52 1 49 10
M  V30 53 1 50 10
M  V30 54 1 51 11
M  V30 55 1 52 11
M  V30 56 1 12 53 CFG=1
M  V30 57 1 13 54 CFG=3
M  V30 58 1 55 14
M  V30 59 1 15 56 CFG=1
M  V30 60 1 17 57 CFG=3
M  V30 61 1 18 58 CFG=1
M  V30 62 1 59 19
M  V30 63 1 60 22
M  V30 64 1 61 22
M  V30 65 1 62 23
M  V30 66 1 63 23
M  V30 67 1 64 24
M  V30 68 1 65 24
M  V30 69 1 66 28
M  V30 70 1 67 29
M  V30 71 1 68 29
M  V30 72 1 69 30
M  V30 73 1 70 30
M  V30 74 1 71 30
M  V30 75 1 72 32
M  V30 76 1 73 32
M  V30 77 1 74 33
M  V30 78 1 75 36
M  V30 79 1 76 36
M  V30 80 1 77 38
M  V30 81 1 78 39
M  V30 82 1 79 39
M  V30 END BOND
M  V30 END CTAB
M  END
>  <i_epik_Tot_Q>  (1) 
0

>  <i_epik_Tot_abs_Q>  (1) 
0

>  <i_i_glide_confnum>  (1) 
8288

>  <i_i_glide_lignum>  (1) 
99

>  <i_i_glide_posenum>  (1) 
389

>  <i_i_glide_rotatable_bonds>  (1) 
16

>  <i_lp_mmshare_version>  (1) 
72125

>  <i_m_source_file_index>  (1) 
41

>  <i_f3d_flags>  (1) 
0

>  <num_sample>  (1) 
50

>  <b_lp_Chiralities_Consistent>  (1) 
1

>  <r_epik_Charging_Adjusted_Penalty>  (1) 
1.047397364093839

>  <r_epik_Ionization_Penalty>  (1) 
0.40552415828257216

>  <r_epik_Ionization_Penalty_Charging>  (1) 
0.39366408803935488

>  <r_epik_Ionization_Penalty_Neutral>  (1) 
0.011860070243217283

>  <r_epik_State_Penalty>  (1) 
0.65373327605448417

>  <r_glide_ring_energy>  (1) 
0

>  <r_i_docking_score>  (1) 
-2.3631811194516086

>  <r_i_glide_ecoul>  (1) 
-1.5231180909116167

>  <r_i_glide_eff_state_penalty>  (1) 
0.65373327605448417

>  <r_i_glide_einternal>  (1) 
34.679951831094677

>  <r_i_glide_emodel>  (1) 
-8.6779181953980249

>  <r_i_glide_emodel_strain>  (1) 
5.5913205977354039

>  <r_i_glide_energy>  (1) 
-29.182077665808475

>  <r_i_glide_erotb>  (1) 
0.63692825108646745

>  <r_i_glide_esite>  (1) 
-0.073755398406865486

>  <r_i_glide_evdw>  (1) 
-27.658959574896858

>  <r_i_glide_gscore>  (1) 
-3.0169143955060926

>  <r_i_glide_gscore_strain>  (1) 
0.39783014943385098

>  <r_i_glide_hbond>  (1) 
-0.042317565686636839

>  <r_i_glide_ligand_efficiency>  (1) 
-0.060594387678246375

>  <r_i_glide_ligand_efficiency_ln>  (1) 
-0.50673311489574602

>  <r_i_glide_ligand_efficiency_sa>  (1) 
-0.20548838087690577

>  <r_i_glide_lipo>  (1) 
-1.637559722842544

>  <r_i_glide_metal>  (1) 
-0

>  <r_i_glide_rewards>  (1) 
-0.68662441670877827

>  <r_lp_Energy>  (1) 
16.317681999999998

>  <r_lp_tautomer_probability>  (1) 
0.49999999999999867

>  <s_epik_Chemistry_Notes>  (1) 
This compound has an ester and may undergo hydrolysis at high or low pH.

>  <s_epik_cmdline>  (1) 
J2VwaWtfcHl0aG9uJywgJy1waHQnLCAnMS4wJywgJy1waCcsICc3LjQnLCAnLXRuJywgJzgnLCAnLW1hJywgJzUwMCcsICctaW1hZScsICc8aW5maWxlLm1hZT4nLCAnLW9tYWUnLCAnPG91dGZpbGUubWFlPic=

>  <s_epik_input>  (1) 
W0NIMl09QzFbQ0BIXShGKVtDQEhdKEYpW0NIMl1bQ0hdPUMxW0NIMl1bQ0BASF0oW0NIMl1bQ0BASF0yQyg9TylPMilbQ0BIXShbT0hdKVtDSDJdW0NIMl1PW0NAQEhdKFtDSDJdW1NIXSlDKD1bQ0gyXSlbQ0BIXTNbQ0gyXVNbQ0BIXShbQ0gyXVtDSDJdMylDND1OW0NIXT1OW0NAQEhdNFtDSDJdW0NIM10=

>  <s_glide_docking_method>  (1) 
confgen

>  <s_i_glide_gridfile>  (1) 
gpcr_drd2_6luq_protein_autoprepared_prepared

>  <s_lp_Force_Field>  (1) 
S-OPLS

>  <s_lp_Variant>  (1) 
DiffSBDD_40_num_sample_50-2

>  <s_m_source_file>  (1) 
generated__ligand_DiffSBDD_2026-05-06_prepared.sdf

>  <GenAI_Model>  (1) 
DiffSBDD

>  <Protein>  (1) 
generic_title2

$$$$
DiffSBDD_10_num_sample_50
     RDKit          3D

  0  0  0  0  0  0  0  0  0  0999 V3000
M  V30 BEGIN CTAB
M  V30 COUNTS 71 72 0 0 1
M  V30 BEGIN ATOM
M  V30 1 C 9.735906 0.601912 -18.986598 0 CFG=2
M  V30 2 C 10.350975 7.320225 -9.799018 0
M  V30 3 C 8.962336 3.920268 -12.477236 0
M  V30 4 C 6.959244 1.769239 -14.446161 0 CFG=1
M  V30 5 C 8.249529 0.902050 -18.674168 0 CFG=2
M  V30 6 N 8.861429 8.191731 -11.491667 0
M  V30 7 N 6.245825 0.677253 -16.437311 0
M  V30 8 C 6.899414 1.875927 -16.862035 0 CFG=1
M  V30 9 S 10.182148 0.423502 -20.802303 0
M  V30 10 C 10.330459 8.540340 -8.893407 0
M  V30 11 S 9.812874 2.408047 -21.437990 0 CHG=-1
M  V30 12 C 12.001807 0.039792 -17.863900 0
M  V30 13 O 11.434865 8.086228 -4.812903 0
M  V30 14 O 11.627278 0.194959 -20.949004 0
M  V30 15 C 8.793632 -0.502311 -18.539486 0 CFG=2
M  V30 16 C 7.734474 5.163788 -10.577685 0
M  V30 17 C 6.680851 0.399978 -15.082254 0 CFG=2
M  V30 18 N 11.072768 7.264678 -6.918754 0
M  V30 19 N 9.735061 6.061090 -11.725146 0
M  V30 20 C 10.048331 8.173733 -7.424480 0
M  V30 21 C 8.260477 3.754040 -15.781135 0
M  V30 22 C 10.905037 1.088455 -18.121465 0
M  V30 23 C 7.170672 1.255622 -19.695850 0
M  V30 24 C 8.052793 1.744040 -13.373775 0
M  V30 25 C 8.878119 5.118951 -11.612491 0
M  V30 26 O 8.909874 -0.876099 -17.185081 0
M  V30 27 C 9.669686 7.212791 -10.956313 0
M  V30 28 O 9.234237 -0.467817 -21.488744 0
M  V30 29 F 5.713895 -0.230650 -14.429202 0
M  V30 30 N 6.520771 5.769302 -11.091751 0
M  V30 31 C 10.888074 6.983839 -5.506028 0
M  V30 32 C 7.091929 2.766076 -15.619391 0 CFG=2
M  V30 33 O 8.157034 1.601347 -17.418096 0
M  V30 34 C 7.998834 2.982592 -12.511280 0
M  V30 35 H 10.960795 6.497251 -9.469801 0
M  V30 36 H 9.844863 3.839784 -13.090487 0
M  V30 37 H 6.041406 2.039477 -13.918267 0
M  V30 38 H 8.546966 8.958551 -10.914291 0
M  V30 39 H 6.425672 -0.114412 -17.038842 0
M  V30 40 H 6.293724 2.400116 -17.600845 0
M  V30 41 H 9.582739 9.255078 -9.233204 0
M  V30 42 H 11.296641 9.039713 -8.969170 0
M  V30 43 H 12.705161 0.402501 -17.114075 0
M  V30 44 H 11.575699 -0.890666 -17.491679 0
M  V30 45 H 12.583231 -0.196267 -18.752062 0
M  V30 46 H 11.988846 7.759499 -4.120530 0
M  V30 47 H 8.479278 -1.292688 -19.217564 0
M  V30 48 H 7.517290 4.169317 -10.198342 0
M  V30 49 H 8.039083 5.717414 -9.689291 0
M  V30 50 H 7.563553 -0.239238 -15.078772 0
M  V30 51 H 10.990926 6.397875 -7.430316 0
M  V30 52 H 9.063029 7.713058 -7.334901 0
M  V30 53 H 10.035626 9.081294 -6.819414 0
M  V30 54 H 9.221597 3.270554 -15.891673 0
M  V30 55 H 8.114341 4.350810 -16.681935 0
M  V30 56 H 8.314444 4.457047 -14.954423 0
M  V30 57 H 11.336033 1.973261 -18.590746 0
M  V30 58 H 10.530097 1.419457 -17.154226 0
M  V30 59 H 7.308209 0.734816 -20.639128 0
M  V30 60 H 6.184000 0.973256 -19.330515 0
M  V30 61 H 7.179911 2.326640 -19.895761 0
M  V30 62 H 9.034593 1.575102 -13.803890 0
M  V30 63 H 7.880579 0.898719 -12.705901 0
M  V30 64 H 8.840416 -0.071189 -16.689192 0
M  V30 65 H 5.759287 5.487444 -10.490621 0
M  V30 66 H 6.634759 6.759002 -10.867237 0
M  V30 67 H 11.448621 6.086396 -5.240261 0
M  V30 68 H 9.841414 6.816037 -5.249033 0
M  V30 69 H 6.234839 3.418206 -15.491711 0
M  V30 70 H 7.116512 3.092510 -11.900524 0
M  V30 71 H 8.251694 7.968670 -12.263346 0
M  V30 END ATOM
M  V30 BEGIN BOND
M  V30 1 1 5 1
M  V30 2 1 8 7
M  V30 3 1 9 1
M  V30 4 1 10 2
M  V30 5 1 11 9
M  V30 6 2 14 9
M  V30 7 1 15 1
M  V30 8 1 15 5
M  V30 9 1 17 4
M  V30 10 1 17 7
M  V30 11 1 20 10
M  V30 12 1 20 18
M  V30 13 1 1 22 CFG=1
M  V30 14 1 22 12
M  V30 15 1 23 5
M  V30 16 1 24 4
M  V30 17 1 25 3
M  V30 18 1 25 16
M  V30 19 2 25 19
M  V30 20 1 26 15
M  V30 21 2 27 2
M  V30 22 1 27 6
M  V30 23 1 27 19
M  V30 24 2 28 9
M  V30 25 1 29 17
M  V30 26 1 30 16
M  V30 27 1 31 13
M  V30 28 1 31 18
M  V30 29 1 32 4
M  V30 30 1 32 8
M  V30 31 1 32 21
M  V30 32 1 5 33 CFG=1
M  V30 33 1 33 8
M  V30 34 2 34 3
M  V30 35 1 34 24
M  V30 36 1 35 2
M  V30 37 1 36 3
M  V30 38 1 4 37 CFG=1
M  V30 39 1 38 6
M  V30 40 1 39 7
M  V30 41 1 8 40 CFG=3
M  V30 42 1 41 10
M  V30 43 1 42 10
M  V30 44 1 43 12
M  V30 45 1 44 12
M  V30 46 1 45 12
M  V30 47 1 46 13
M  V30 48 1 15 47 CFG=3
M  V30 49 1 48 16
M  V30 50 1 49 16
M  V30 51 1 17 50 CFG=3
M  V30 52 1 51 18
M  V30 53 1 52 20
M  V30 54 1 53 20
M  V30 55 1 54 21
M  V30 56 1 55 21
M  V30 57 1 56 21
M  V30 58 1 57 22
M  V30 59 1 58 22
M  V30 60 1 59 23
M  V30 61 1 60 23
M  V30 62 1 61 23
M  V30 63 1 62 24
M  V30 64 1 63 24
M  V30 65 1 64 26
M  V30 66 1 65 30
M  V30 67 1 66 30
M  V30 68 1 67 31
M  V30 69 1 68 31
M  V30 70 1 32 69 CFG=1
M  V30 71 1 70 34
M  V30 72 1 71 6
M  V30 END BOND
M  V30 END CTAB
M  END
>  <i_epik_Tot_Q>  (1) 
-1

>  <i_epik_Tot_abs_Q>  (1) 
1

>  <i_i_glide_confnum>  (1) 
3978

>  <i_i_glide_lignum>  (1) 
44

>  <i_i_glide_posenum>  (1) 
124

>  <i_i_glide_rotatable_bonds>  (1) 
15

>  <i_lp_mmshare_version>  (1) 
72125

>  <i_m_source_file_index>  (1) 
11

>  <i_f3d_flags>  (1) 
0

>  <num_sample>  (1) 
50

>  <b_lp_Chiralities_Consistent>  (1) 
1

>  <r_epik_Charging_Adjusted_Penalty>  (1) 
1.239197207418439

>  <r_epik_Ionization_Penalty>  (1) 
1.2496715491914541

>  <r_epik_Ionization_Penalty_Charging>  (1) 
1.1069707349969355e-11

>  <r_epik_Ionization_Penalty_Neutral>  (1) 
1.2496715491803843

>  <r_epik_State_Penalty>  (1) 
1.2391972074073692

>  <r_glide_ring_energy>  (1) 
0

>  <r_i_docking_score>  (1) 
-2.3378131400654487

>  <r_i_glide_ecoul>  (1) 
-4.3254024499133585

>  <r_i_glide_eff_state_penalty>  (1) 
1.2391972074073692

>  <r_i_glide_einternal>  (1) 
9.0058024104598555

>  <r_i_glide_emodel>  (1) 
-39.311208886749228

>  <r_i_glide_emodel_strain>  (1) 
0.65253052901675801

>  <r_i_glide_energy>  (1) 
-36.470024529410139

>  <r_i_glide_erotb>  (1) 
0.82803537691766171

>  <r_i_glide_esite>  (1) 
-0.1776809971013201

>  <r_i_glide_evdw>  (1) 
-32.144622079496784

>  <r_i_glide_gscore>  (1) 
-3.5770103474728181

>  <r_i_glide_gscore_strain>  (1) 
0

>  <r_i_glide_hbond>  (1) 
-0.12892050209388273

>  <r_i_glide_ligand_efficiency>  (1) 
-0.068759210001924961

>  <r_i_glide_ligand_efficiency_ln>  (1) 
-0.51648849607791614

>  <r_i_glide_ligand_efficiency_sa>  (1) 
-0.22275314816875291

>  <r_i_glide_lipo>  (1) 
-1.1954539893890039

>  <r_i_glide_metal>  (1) 
-0

>  <r_i_glide_rewards>  (1) 
-0.64694876434443027

>  <r_lp_Energy>  (1) 
18.399373000000001

>  <s_epik_Chemistry_Notes>  (1) 
This compound has an imine and may undergo hydrolysis. This compound contains an acetal/aminal-like group ( X-CH(R)-Y where X, Y are N, S, or O) that may be acid/base labile, releasing an aldehyde.

>  <s_epik_cmdline>  (1) 
J2VwaWtfcHl0aG9uJywgJy1waHQnLCAnMS4wJywgJy1waCcsICc3LjQnLCAnLXRuJywgJzgnLCAnLW1hJywgJzUwMCcsICctaW1hZScsICc8aW5maWxlLm1hZT4nLCAnLW9tYWUnLCAnPG91dGZpbGUubWFlPic=

>  <s_epik_input>  (1) 
W1NIXVMoPU8pKD1PKVtDQEBdMShbQ0gyXVtDSDNdKVtDQEBdKFtDSDNdKShbQ0BASF0xW09IXSlPW0NASF0oW0NAQEhdMltDSDNdKVtOSF1bQ0BASF0oRilbQ0BIXTJbQ0gyXVxbQ0hdPVtDSF1cQyhbQ0gyXVtOSDJdKT1OXEMoPU5cW0hdKVxbQ0gyXVtDSDJdW0NIMl1bTkhdW0NIMl1bT0hd

>  <s_glide_docking_method>  (1) 
confgen

>  <s_i_glide_gridfile>  (1) 
gpcr_drd2_6luq_protein_autoprepared_prepared

>  <s_lp_Force_Field>  (1) 
S-OPLS

>  <s_lp_Variant>  (1) 
DiffSBDD_10_num_sample_50-24

>  <s_m_source_file>  (1) 
generated__ligand_DiffSBDD_2026-05-06_prepared.sdf

>  <GenAI_Model>  (1) 
DiffSBDD

>  <Protein>  (1) 
generic_title2

$$$$
DiffSBDD_2_num_sample_50
     RDKit          3D

  0  0  0  0  0  0  0  0  0  0999 V3000
M  V30 BEGIN CTAB
M  V30 COUNTS 55 58 0 0 1
M  V30 BEGIN ATOM
M  V30 1 C 9.854478 5.766205 -7.945843 0 CFG=1
M  V30 2 C 9.960992 6.982934 -10.919569 0
M  V30 3 O 11.034826 8.569306 -9.737570 0 CHG=-1
M  V30 4 C 7.480023 4.607433 -17.018297 0
M  V30 5 O 8.003862 1.231223 -14.259943 0
M  V30 6 C 7.636240 1.125059 -15.538682 0
M  V30 7 C 11.990907 9.439449 -6.465408 0
M  V30 8 C 7.351901 1.910620 -13.331497 0
M  V30 9 C 11.176402 8.580948 -5.491833 0
M  V30 10 O 6.448413 3.769308 -12.363577 0
M  V30 11 C 7.434781 2.166650 -16.359053 0
M  V30 12 C 7.246904 2.864168 -18.695218 0
M  V30 13 C 7.065937 3.208761 -13.416419 0
M  V30 14 C 8.907717 4.884022 -10.114790 0
M  V30 15 N 10.562539 6.929718 -8.455412 0 CFG=1 CHG=1
M  V30 16 C 10.032747 7.745670 -9.568324 0 CFG=2
M  V30 17 C 10.907107 7.144500 -5.976146 0
M  V30 18 C 7.390379 4.247987 -18.310035 0
M  V30 19 C 8.855180 5.451757 -12.464780 0
M  V30 20 N 8.885038 5.985208 -11.076336 0
M  V30 21 C 7.332571 4.067663 -14.617581 0
M  V30 22 C 7.834840 6.171535 -13.393222 0
M  V30 23 N 7.299894 5.485386 -14.445877 0
M  V30 24 C 7.270960 1.882789 -17.780475 0
M  V30 25 C 7.439814 3.606535 -15.930269 0
M  V30 26 C 9.936405 7.042664 -7.141053 0 CFG=2
M  V30 27 O 7.593740 7.364325 -13.215640 0
M  V30 28 C 8.608193 5.361589 -8.692289 0
M  V30 29 H 10.598354 4.986438 -7.806262 0
M  V30 30 H 10.935096 6.569302 -11.169673 0
M  V30 31 H 9.779632 7.735667 -11.690073 0
M  V30 32 H 7.570840 5.656000 -16.784709 0
M  V30 33 H 7.656221 0.097447 -15.873950 0
M  V30 34 H 12.218115 10.412110 -6.028138 0
M  V30 35 H 11.434894 9.621373 -7.382152 0
M  V30 36 H 12.935298 8.969313 -6.736036 0
M  V30 37 H 7.137089 1.301341 -12.465614 0
M  V30 38 H 11.708202 8.535341 -4.540958 0
M  V30 39 H 10.234843 9.085782 -5.288291 0
M  V30 40 H 6.317989 3.098838 -11.711947 0
M  V30 41 H 7.134601 2.613350 -19.739921 0
M  V30 42 H 8.109067 4.190299 -10.376870 0
M  V30 43 H 9.834837 4.314969 -10.169539 0
M  V30 44 H 9.034843 8.104812 -9.333351 0
M  V30 45 H 11.834839 6.628608 -6.217617 0
M  V30 46 H 10.466996 6.585752 -5.148840 0
M  V30 47 H 7.413372 5.010629 -19.074694 0
M  V30 48 H 8.887557 4.371980 -12.464870 0
M  V30 49 H 9.816358 5.657720 -12.938381 0
M  V30 50 H 6.812647 6.010254 -15.154935 0
M  V30 51 H 7.182211 0.856677 -18.108244 0
M  V30 52 H 9.063432 7.693838 -7.126111 0
M  V30 53 H 8.154459 4.544560 -8.131870 0
M  V30 54 H 7.868524 6.156089 -8.677955 0
M  V30 55 H 11.567033 6.873693 -8.419754 0
M  V30 END ATOM
M  V30 BEGIN BOND
M  V30 1 1 6 5
M  V30 2 1 8 5
M  V30 3 1 9 7
M  V30 4 2 11 6
M  V30 5 2 13 8
M  V30 6 1 13 10
M  V30 7 1 15 1
M  V30 8 1 16 2
M  V30 9 1 16 3
M  V30 10 1 16 15
M  V30 11 1 17 9
M  V30 12 2 18 4
M  V30 13 1 18 12
M  V30 14 1 20 2
M  V30 15 1 20 14
M  V30 16 1 20 19
M  V30 17 1 21 13
M  V30 18 1 22 19
M  V30 19 1 23 21
M  V30 20 1 23 22
M  V30 21 1 24 11
M  V30 22 2 24 12
M  V30 23 1 25 4
M  V30 24 1 25 11
M  V30 25 2 25 21
M  V30 26 1 26 1
M  V30 27 1 26 15
M  V30 28 1 26 17
M  V30 29 2 27 22
M  V30 30 1 28 1
M  V30 31 1 28 14
M  V30 32 1 1 29 CFG=1
M  V30 33 1 30 2
M  V30 34 1 31 2
M  V30 35 1 32 4
M  V30 36 1 33 6
M  V30 37 1 34 7
M  V30 38 1 35 7
M  V30 39 1 36 7
M  V30 40 1 37 8
M  V30 41 1 38 9
M  V30 42 1 39 9
M  V30 43 1 40 10
M  V30 44 1 41 12
M  V30 45 1 42 14
M  V30 46 1 43 14
M  V30 47 1 16 44 CFG=1
M  V30 48 1 45 17
M  V30 49 1 46 17
M  V30 50 1 47 18
M  V30 51 1 48 19
M  V30 52 1 49 19
M  V30 53 1 50 23
M  V30 54 1 51 24
M  V30 55 1 26 52 CFG=3
M  V30 56 1 53 28
M  V30 57 1 54 28
M  V30 58 1 15 55 CFG=1
M  V30 END BOND
M  V30 END CTAB
M  END
>  <i_epik_Tot_Q>  (1) 
0

>  <i_epik_Tot_abs_Q>  (1) 
2

>  <i_i_glide_confnum>  (1) 
31

>  <i_i_glide_lignum>  (1) 
8

>  <i_i_glide_posenum>  (1) 
292

>  <i_i_glide_rotatable_bonds>  (1) 
7

>  <i_lp_mmshare_version>  (1) 
72125

>  <i_m_source_file_index>  (1) 
3

>  <i_f3d_flags>  (1) 
0

>  <num_sample>  (1) 
50

>  <b_lp_Chiralities_Consistent>  (1) 
1

>  <r_epik_Charging_Adjusted_Penalty>  (1) 
1.1352312410036836

>  <r_epik_Ionization_Penalty>  (1) 
1.1482633258778028

>  <r_epik_Ionization_Penalty_Charging>  (1) 
0.01211088635150746

>  <r_epik_Ionization_Penalty_Neutral>  (1) 
1.1361524395262954

>  <r_epik_State_Penalty>  (1) 
1.1231203546521762

>  <r_glide_ring_energy>  (1) 
0

>  <r_i_docking_score>  (1) 
-2.327141110263848

>  <r_i_glide_ecoul>  (1) 
-1.2181207110911174

>  <r_i_glide_eff_state_penalty>  (1) 
1.1231203546521762

>  <r_i_glide_einternal>  (1) 
6.216893418427766

>  <r_i_glide_emodel>  (1) 
-39.794694397919685

>  <r_i_glide_emodel_strain>  (1) 
0.67879256705199964

>  <r_i_glide_energy>  (1) 
-36.029328519535134

>  <r_i_glide_erotb>  (1) 
0.65461972943922775

>  <r_i_glide_esite>  (1) 
-0.1296225426208954

>  <r_i_glide_evdw>  (1) 
-34.811207808444017

>  <r_i_glide_gscore>  (1) 
-3.4502614649160241

>  <r_i_glide_gscore_strain>  (1) 
0

>  <r_i_glide_hbond>  (1) 
0

>  <r_i_glide_ligand_efficiency>  (1) 
-0.083112182509423135

>  <r_i_glide_ligand_efficiency_ln>  (1) 
-0.53717249608092321

>  <r_i_glide_ligand_efficiency_sa>  (1) 
-0.25237753683663167

>  <r_i_glide_lipo>  (1) 
-2.1545749432969887

>  <r_i_glide_metal>  (1) 
-0

>  <r_i_glide_rewards>  (1) 
0.1025947886485008

>  <r_lp_Energy>  (1) 
71.160493000000002

>  <s_epik_Chemistry_Notes>  (1) 
This compound contains an acetal/aminal-like group ( X-CH(R)-Y where X, Y are N, S, or O) that may be acid/base labile, releasing an aldehyde.

>  <s_epik_cmdline>  (1) 
J2VwaWtfcHl0aG9uJywgJy1waHQnLCAnMS4wJywgJy1waCcsICc3LjQnLCAnLXRuJywgJzgnLCAnLW1hJywgJzUwMCcsICctaW1hZScsICc8aW5maWxlLm1hZT4nLCAnLW9tYWUnLCAnPG91dGZpbGUubWFlPic=

>  <s_epik_input>  (1) 
W0NIM11bQ0gyXVtDSDJdW0NIXTFOKFtDQEBIXTEyKVtDQEBIXShbT0hdKVtDSDJdTihbQ0gyXVtDSDJdMilbQ0gyXUMoPU8pW05IXUMoQyhbT0hdKT1bQ0hdT1tDSF09Myk9YyhjMzQpW2NIXVtjSF1bY0hdW2NIXTQ=

>  <s_glide_docking_method>  (1) 
confgen

>  <s_i_glide_gridfile>  (1) 
gpcr_drd2_6luq_protein_autoprepared_prepared

>  <s_lp_Force_Field>  (1) 
S-OPLS

>  <s_lp_Variant>  (1) 
DiffSBDD_2_num_sample_50-3

>  <s_m_source_file>  (1) 
generated__ligand_DiffSBDD_2026-05-06_prepared.sdf

>  <GenAI_Model>  (1) 
DiffSBDD

>  <Protein>  (1) 
generic_title2

$$$$
DiffSBDD_41_num_sample_50
     RDKit          3D

  0  0  0  0  0  0  0  0  0  0999 V3000
M  V30 BEGIN CTAB
M  V30 COUNTS 105 110 0 0 1
M  V30 BEGIN ATOM
M  V30 1 C 9.834827 4.231227 -12.619176 0
M  V30 2 C 7.825922 1.885139 -16.283728 0
M  V30 3 C 7.032059 3.022663 -15.581276 0
M  V30 4 C 7.256249 5.623673 -11.487733 0
M  V30 5 C 9.044136 3.177170 -12.408947 0
M  V30 6 O 8.305721 2.108916 -18.612497 0
M  V30 7 C 7.647861 0.162116 -22.069903 0
M  V30 8 N 8.764198 3.981581 -20.548797 0
M  V30 9 O 12.467398 1.707484 -19.167797 0
M  V30 10 C 8.953973 4.988880 -18.239711 0 CFG=2
M  V30 11 C 8.456116 6.452756 -10.905457 0
M  V30 12 O 8.026951 5.339222 -17.226759 0
M  V30 13 C 6.888520 5.409152 -19.829991 0
M  V30 14 C 10.766964 0.143237 -20.264346 0 CFG=1
M  V30 15 C 7.945943 5.818905 -23.204592 0
M  V30 16 C 11.958929 0.931628 -21.488891 0 CFG=2
M  V30 17 C 8.620755 5.712088 -15.995913 0
M  V30 18 C 8.848309 4.593758 -14.957807 0 CFG=1
M  V30 19 C 11.316346 -0.468469 -21.571450 0
M  V30 20 C 9.751816 5.132355 -13.842073 0
M  V30 21 C 12.395983 1.395673 -17.786991 0
M  V30 22 C 6.022636 -0.076027 -20.073069 0
M  V30 23 O 8.185087 1.401887 -21.621789 0
M  V30 24 C 12.961206 1.566499 -22.446057 0
M  V30 25 C 7.474104 1.803358 -17.765078 0
M  V30 26 C 9.239329 5.523214 -22.439640 0
M  V30 27 N 9.498005 3.074877 -22.594328 0 CHG=1
M  V30 28 N 6.234550 1.393092 -18.074991 0
M  V30 29 C 6.195700 -0.027281 -21.601186 0
M  V30 30 C 7.982217 2.740176 -13.362106 0 CFG=2
M  V30 31 S 9.629160 -0.630689 -19.052997 0
M  V30 32 C 7.602739 3.841056 -14.395498 0 CFG=2
M  V30 33 O 6.850356 2.224014 -12.691683 0
M  V30 34 C 8.584410 7.917357 -11.408752 0
M  V30 35 F 13.809100 -0.438951 -23.364044 0
M  V30 36 C 9.363570 6.108312 -19.144277 0
M  V30 37 C 9.167870 4.147804 -21.832395 0
M  V30 38 C 9.458206 1.678619 -22.117359 0 CFG=1
M  V30 39 C 7.834860 8.169395 -12.691737 0
M  V30 40 C 7.134382 7.231086 -13.340492 0
M  V30 41 C 14.177159 0.674295 -22.730351 0
M  V30 42 C 8.361762 5.070134 -19.642019 0 CFG=2
M  V30 43 F 15.053049 1.331693 -23.488880 0
M  V30 44 N 6.988092 5.938305 -12.896289 0
M  V30 45 C 6.515372 4.845927 -13.784373 0
M  V30 46 C 12.229424 0.583065 -20.011784 0 CFG=1
M  V30 47 C 5.763882 1.309066 -19.455428 0
M  V30 48 C 10.571124 1.470566 -21.057660 0 CFG=1
M  V30 49 H 10.592242 4.478394 -11.891814 0
M  V30 50 H 7.612301 0.920708 -15.818367 0
M  V30 51 H 8.904850 2.004139 -16.217686 0
M  V30 52 H 6.634820 3.707915 -16.319136 0
M  V30 53 H 6.234844 2.459542 -15.151542 0
M  V30 54 H 6.360944 5.930013 -10.945133 0
M  V30 55 H 7.349838 4.562235 -11.282449 0
M  V30 56 H 9.171229 2.585268 -11.517949 0
M  V30 57 H 7.663503 0.128855 -23.160376 0
M  V30 58 H 8.263982 -0.665484 -21.717882 0
M  V30 59 H 8.701855 3.035504 -20.175634 0
M  V30 60 H 9.672151 4.212187 -17.981456 0
M  V30 61 H 9.415791 6.007187 -11.093415 0
M  V30 62 H 8.436148 6.412328 -9.817595 0
M  V30 63 H 6.772943 6.461928 -20.086679 0
M  V30 64 H 6.440976 4.811606 -20.624952 0
M  V30 65 H 6.315652 5.209312 -18.925057 0
M  V30 66 H 8.046988 6.724325 -23.802780 0
M  V30 67 H 7.691949 4.996488 -23.870302 0
M  V30 68 H 7.105104 5.967509 -22.530962 0
M  V30 69 H 7.988834 6.476279 -15.567831 0
M  V30 70 H 9.584968 6.169262 -16.212670 0
M  V30 71 H 9.435346 3.872829 -15.499079 0
M  V30 72 H 11.993753 -1.320792 -21.471193 0
M  V30 73 H 10.599394 -0.651870 -22.370334 0
M  V30 74 H 9.437162 6.104851 -13.491461 0
M  V30 75 H 10.709614 5.369250 -14.282572 0
M  V30 76 H 12.638391 2.281886 -17.200231 0
M  V30 77 H 11.392792 1.079519 -17.503675 0
M  V30 78 H 13.102609 0.609304 -17.517934 0
M  V30 79 H 5.177432 -0.719443 -19.825692 0
M  V30 80 H 6.889749 -0.556824 -19.624642 0
M  V30 81 H 12.471690 1.816862 -23.387651 0
M  V30 82 H 13.307651 2.511576 -22.026579 0
M  V30 83 H 9.642055 1.089567 -23.015673 0
M  V30 84 H 9.439002 6.299441 -21.706310 0
M  V30 85 H 5.592834 1.145993 -17.335407 0
M  V30 86 H 5.558070 0.746654 -22.029904 0
M  V30 87 H 5.835383 -0.969796 -22.014719 0
M  V30 88 H 8.447203 1.880966 -13.842320 0
M  V30 89 H 10.425679 -1.654275 -18.735240 0
M  V30 90 H 6.468574 2.916011 -12.174455 0
M  V30 91 H 9.636377 8.152045 -11.573378 0
M  V30 92 H 8.243891 8.657913 -10.691639 0
M  V30 93 H 8.982836 7.106710 -18.941028 0
M  V30 94 H 10.381609 6.072848 -19.527726 0
M  V30 95 H 10.081542 5.551348 -23.131604 0
M  V30 96 H 7.907871 9.162899 -13.101708 0
M  V30 97 H 6.638285 7.433034 -14.276819 0
M  V30 98 H 14.694098 0.383218 -21.815101 0
M  V30 99 H 6.003624 5.322185 -14.621967 0
M  V30 100 H 5.721895 4.306869 -13.269404 0
M  V30 101 H 12.955316 -0.219394 -19.845289 0
M  V30 102 H 6.228176 2.093785 -20.054833 0
M  V30 103 H 4.695073 1.525544 -19.477355 0
M  V30 104 H 10.652312 2.344182 -20.412819 0
M  V30 105 H 9.731648 3.254063 -23.561383 0
M  V30 END ATOM
M  V30 BEGIN BOND
M  V30 1 1 3 2
M  V30 2 2 5 1
M  V30 3 1 11 4
M  V30 4 1 12 10
M  V30 5 1 17 12
M  V30 6 1 18 17
M  V30 7 1 19 14
M  V30 8 1 19 16
M  V30 9 1 20 1
M  V30 10 1 20 18
M  V30 11 1 21 9
M  V30 12 1 23 7
M  V30 13 1 16 24 CFG=3
M  V30 14 1 25 2
M  V30 15 2 25 6
M  V30 16 1 26 15
M  V30 17 1 28 25
M  V30 18 1 29 7
M  V30 19 1 29 22
M  V30 20 1 30 5
M  V30 21 1 14 31 CFG=1
M  V30 22 1 32 3
M  V30 23 1 32 18
M  V30 24 1 32 30
M  V30 25 1 33 30
M  V30 26 1 34 11
M  V30 27 1 36 10
M  V30 28 1 37 8
M  V30 29 1 37 26
M  V30 30 2 37 27
M  V30 31 1 38 23
M  V30 32 1 38 27
M  V30 33 1 39 34
M  V30 34 2 40 39
M  V30 35 1 41 24
M  V30 36 1 41 35
M  V30 37 1 42 8
M  V30 38 1 42 10
M  V30 39 1 42 13 CFG=1
M  V30 40 1 42 36
M  V30 41 1 43 41
M  V30 42 1 44 4
M  V30 43 1 44 40
M  V30 44 1 32 45 CFG=1
M  V30 45 1 45 44
M  V30 46 1 46 9
M  V30 47 1 46 14
M  V30 48 1 46 16
M  V30 49 1 47 22
M  V30 50 1 47 28
M  V30 51 1 48 14
M  V30 52 1 48 16
M  V30 53 1 48 38
M  V30 54 1 49 1
M  V30 55 1 50 2
M  V30 56 1 51 2
M  V30 57 1 52 3
M  V30 58 1 53 3
M  V30 59 1 54 4
M  V30 60 1 55 4
M  V30 61 1 56 5
M  V30 62 1 57 7
M  V30 63 1 58 7
M  V30 64 1 59 8
M  V30 65 1 10 60 CFG=1
M  V30 66 1 61 11
M  V30 67 1 62 11
M  V30 68 1 63 13
M  V30 69 1 64 13
M  V30 70 1 65 13
M  V30 71 1 66 15
M  V30 72 1 67 15
M  V30 73 1 68 15
M  V30 74 1 69 17
M  V30 75 1 70 17
M  V30 76 1 18 71 CFG=3
M  V30 77 1 72 19
M  V30 78 1 73 19
M  V30 79 1 74 20
M  V30 80 1 75 20
M  V30 81 1 76 21
M  V30 82 1 77 21
M  V30 83 1 78 21
M  V30 84 1 79 22
M  V30 85 1 80 22
M  V30 86 1 81 24
M  V30 87 1 82 24
M  V30 88 1 38 83 CFG=3
M  V30 89 1 84 26
M  V30 90 1 85 28
M  V30 91 1 86 29
M  V30 92 1 87 29
M  V30 93 1 30 88 CFG=3
M  V30 94 1 89 31
M  V30 95 1 90 33
M  V30 96 1 91 34
M  V30 97 1 92 34
M  V30 98 1 93 36
M  V30 99 1 94 36
M  V30 100 1 95 26
M  V30 101 1 96 39
M  V30 102 1 97 40
M  V30 103 1 98 41
M  V30 104 1 99 45
M  V30 105 1 100 45
M  V30 106 1 46 101 CFG=3
M  V30 107 1 102 47
M  V30 108 1 103 47
M  V30 109 1 48 104 CFG=1
M  V30 110 1 105 27
M  V30 END BOND
M  V30 END CTAB
M  END
>  <i_epik_Tot_Q>  (1) 
1

>  <i_epik_Tot_abs_Q>  (1) 
1

>  <i_i_glide_confnum>  (1) 
123

>  <i_i_glide_lignum>  (1) 
101

>  <i_i_glide_posenum>  (1) 
316

>  <i_i_glide_rotatable_bonds>  (1) 
9

>  <i_lp_mmshare_version>  (1) 
72125

>  <i_m_source_file_index>  (1) 
42

>  <i_f3d_flags>  (1) 
0

>  <num_sample>  (1) 
50

>  <b_lp_Chiralities_Consistent>  (1) 
1

>  <r_epik_Charging_Adjusted_Penalty>  (1) 
0.076842420233623365

>  <r_epik_Ionization_Penalty>  (1) 
0.078794888684849976

>  <r_epik_Ionization_Penalty_Charging>  (1) 
0.00072930087509115145

>  <r_epik_Ionization_Penalty_Neutral>  (1) 
0.078065587809758821

>  <r_epik_State_Penalty>  (1) 
0.076113119358532211

>  <r_glide_ring_energy>  (1) 
0

>  <r_i_docking_score>  (1) 
-2.3234276045035935

>  <r_i_glide_ecoul>  (1) 
-1.2028926185650988

>  <r_i_glide_eff_state_penalty>  (1) 
0.076113119358532211

>  <r_i_glide_einternal>  (1) 
15.140519738933802

>  <r_i_glide_emodel>  (1) 
-6.4737268908344774

>  <r_i_glide_emodel_strain>  (1) 
2.456915509023176

>  <r_i_glide_energy>  (1) 
-12.254285047970678

>  <r_i_glide_erotb>  (1) 
0.0035911919815773572

>  <r_i_glide_esite>  (1) 
-0.0037500371252550246

>  <r_i_glide_evdw>  (1) 
-11.051392429405579

>  <r_i_glide_gscore>  (1) 
-2.3995407238621258

>  <r_i_glide_gscore_strain>  (1) 
0

>  <r_i_glide_hbond>  (1) 
0

>  <r_i_glide_ligand_efficiency>  (1) 
-0.048404741760491532

>  <r_i_glide_ligand_efficiency_ln>  (1) 
-0.47697222908700188

>  <r_i_glide_ligand_efficiency_sa>  (1) 
-0.17591450608742201

>  <r_i_glide_lipo>  (1) 
-1.2745478916826307

>  <r_i_glide_metal>  (1) 
-0

>  <r_i_glide_rewards>  (1) 
-0.39183047278077388

>  <r_lp_Energy>  (1) 
118.844916

>  <s_epik_Chemistry_Notes>  (1) 
This compound has an imine and may undergo hydrolysis. This compound contains an acetal/aminal-like group ( X-CH(R)-Y where X, Y are N, S, or O) that may be acid/base labile, releasing an aldehyde.

>  <s_epik_cmdline>  (1) 
J2VwaWtfcHl0aG9uJywgJy1waHQnLCAnMS4wJywgJy1waCcsICc3LjQnLCAnLXRuJywgJzgnLCAnLW1hJywgJzUwMCcsICctaW1hZScsICc8aW5maWxlLm1hZT4nLCAnLW9tYWUnLCAnPG91dGZpbGUubWFlPic=

>  <s_epik_input>  (1) 
W0NIXTE9W0NIXVtDSDJdW0NIMl1bQ0gyXU4xW0NIMl1bQ0BdMjNbQ0BIXShbQ0gyXVtDSF09W0NIXVtDQEhdM1tPSF0pW0NIMl1PW0NASF00W0NAQF0oW0NIM10pKFtDSDJdNClbTkhdW0NASF0oW0NIMl1bQ0gzXSkvTj1DKFtDQEBIXTVbQ0BdKFtDSDJdW0NIXShGKUYpKFtDSDJdW0NAXTU2W1NIXSlbQ0BIXTZPW0NIM10pL09bQ0gyXVtDSDJdW0NIMl1bQ0gyXVtOSF1DKD1PKVtDSDJdW0NIMl0y

>  <s_glide_docking_method>  (1) 
confgen

>  <s_i_glide_gridfile>  (1) 
gpcr_drd2_6luq_protein_autoprepared_prepared

>  <s_lp_Force_Field>  (1) 
S-OPLS

>  <s_lp_Variant>  (1) 
DiffSBDD_41_num_sample_50-1

>  <s_m_source_file>  (1) 
generated__ligand_DiffSBDD_2026-05-06_prepared.sdf

>  <GenAI_Model>  (1) 
DiffSBDD

>  <Protein>  (1) 
generic_title2

$$$$
DiffSBDD_10_num_sample_50
     RDKit          3D

  0  0  0  0  0  0  0  0  0  0999 V3000
M  V30 BEGIN CTAB
M  V30 COUNTS 72 73 0 0 1
M  V30 BEGIN ATOM
M  V30 1 C 9.809724 7.217595 -9.030999 0 CFG=2
M  V30 2 C 7.204747 0.033743 -18.585557 0
M  V30 3 C 6.994846 2.265410 -16.191088 0
M  V30 4 C 7.382186 4.487270 -13.300528 0 CFG=1
M  V30 5 C 9.259497 7.670871 -10.430877 0 CFG=2
M  V30 6 N 5.033310 -0.464008 -17.649474 0
M  V30 7 N 6.970713 6.550375 -12.265984 0
M  V30 8 C 7.873670 5.897606 -11.365010 0 CFG=1
M  V30 9 S 9.464175 8.241159 -7.511020 0
M  V30 10 C 6.767720 0.036925 -20.043360 0
M  V30 11 S 11.415838 8.969115 -7.023499 0 CHG=-1
M  V30 12 C 11.025675 5.591567 -7.491726 0
M  V30 13 O 10.316602 2.315714 -20.874675 0
M  V30 14 O 8.634842 9.369219 -7.891582 0
M  V30 15 C 10.689428 7.969363 -10.007778 0 CFG=2
M  V30 16 C 7.655804 0.718948 -14.138720 0
M  V30 17 C 7.180830 5.982269 -13.582308 0 CFG=2
M  V30 18 N 8.159993 2.084592 -20.506809 0 CHG=1
M  V30 19 N 6.844908 -0.181839 -16.234475 0
M  V30 20 C 6.838253 1.439730 -20.672383 0
M  V30 21 C 9.354860 3.782430 -11.670692 0
M  V30 22 C 9.978958 5.776349 -8.606051 0
M  V30 23 C 8.589521 8.937451 -10.990402 0
M  V30 24 C 8.174935 3.725144 -14.385808 0
M  V30 25 C 7.153117 0.868678 -15.570781 0
M  V30 26 O 11.476749 7.369265 -11.002237 0
M  V30 27 C 6.380405 -0.195140 -17.543858 0
M  V30 28 O 9.034927 7.402167 -6.387490 0
M  V30 29 F 6.128422 6.217221 -14.363725 0
M  V30 30 N 6.744489 1.248673 -13.138998 0
M  V30 31 C 9.259227 1.476869 -21.275581 0
M  V30 32 C 7.977021 4.439281 -11.870621 0 CFG=2
M  V30 33 O 9.136763 6.532751 -11.329527 0
M  V30 34 C 7.417490 3.468964 -15.682757 0
M  V30 35 H 8.251408 0.231799 -18.397626 0
M  V30 36 H 6.484212 2.265771 -17.141094 0
M  V30 37 H 6.392862 4.030964 -13.236388 0
M  V30 38 H 4.582866 -0.578828 -18.545374 0
M  V30 39 H 7.049594 7.555772 -12.225971 0
M  V30 40 H 7.466143 5.910418 -10.352936 0
M  V30 41 H 5.753111 -0.350251 -20.148540 0
M  V30 42 H 7.401267 -0.661214 -20.590845 0
M  V30 43 H 11.434829 4.592678 -7.491708 0
M  V30 44 H 11.834792 6.300587 -7.603207 0
M  V30 45 H 10.634875 5.746050 -6.490266 0
M  V30 46 H 11.141599 1.892255 -21.069918 0
M  V30 47 H 10.967103 9.003031 -9.813695 0
M  V30 48 H 8.704176 0.970554 -14.022586 0
M  V30 49 H 7.667010 -0.351654 -13.927119 0
M  V30 50 H 8.061856 6.429819 -14.041586 0
M  V30 51 H 8.411841 2.068922 -19.530790 0
M  V30 52 H 6.094759 2.077144 -20.190695 0
M  V30 53 H 6.572736 1.400936 -21.730520 0
M  V30 54 H 10.156948 4.322693 -12.176993 0
M  V30 55 H 9.575264 3.687532 -10.615716 0
M  V30 56 H 9.366972 2.752757 -12.021685 0
M  V30 57 H 9.014588 5.387744 -8.274355 0
M  V30 58 H 10.234878 5.214359 -9.483934 0
M  V30 59 H 8.634992 9.767530 -10.292164 0
M  V30 60 H 9.034984 9.213585 -11.943803 0
M  V30 61 H 7.531926 8.805373 -11.196779 0
M  V30 62 H 9.033413 4.337995 -14.663819 0
M  V30 63 H 8.634768 2.868238 -13.972537 0
M  V30 64 H 10.878691 6.801145 -11.476887 0
M  V30 65 H 5.884420 0.719039 -13.169399 0
M  V30 66 H 7.135160 1.092197 -12.220458 0
M  V30 67 H 9.093153 1.527014 -22.352509 0
M  V30 68 H 9.452199 0.447132 -20.972952 0
M  V30 69 H 7.268440 3.870871 -11.268217 0
M  V30 70 H 7.202996 4.357585 -16.259501 0
M  V30 71 H 4.481338 -0.710511 -16.839686 0
M  V30 72 H 8.089893 3.049593 -20.794482 0
M  V30 END ATOM
M  V30 BEGIN BOND
M  V30 1 1 5 1
M  V30 2 1 8 7
M  V30 3 1 9 1
M  V30 4 1 10 2
M  V30 5 1 11 9
M  V30 6 2 14 9
M  V30 7 1 15 1
M  V30 8 1 15 5
M  V30 9 1 17 4
M  V30 10 1 17 7
M  V30 11 1 20 10
M  V30 12 1 20 18
M  V30 13 1 1 22 CFG=1
M  V30 14 1 22 12
M  V30 15 1 23 5
M  V30 16 1 24 4
M  V30 17 1 25 3
M  V30 18 1 25 16
M  V30 19 2 25 19
M  V30 20 1 26 15
M  V30 21 2 27 2
M  V30 22 1 27 6
M  V30 23 1 27 19
M  V30 24 2 28 9
M  V30 25 1 29 17
M  V30 26 1 30 16
M  V30 27 1 31 13
M  V30 28 1 31 18
M  V30 29 1 32 4
M  V30 30 1 32 8
M  V30 31 1 32 21
M  V30 32 1 5 33 CFG=3
M  V30 33 1 33 8
M  V30 34 2 34 3
M  V30 35 1 34 24
M  V30 36 1 35 2
M  V30 37 1 36 3
M  V30 38 1 4 37 CFG=1
M  V30 39 1 38 6
M  V30 40 1 39 7
M  V30 41 1 8 40 CFG=1
M  V30 42 1 41 10
M  V30 43 1 42 10
M  V30 44 1 43 12
M  V30 45 1 44 12
M  V30 46 1 45 12
M  V30 47 1 46 13
M  V30 48 1 15 47 CFG=1
M  V30 49 1 48 16
M  V30 50 1 49 16
M  V30 51 1 17 50 CFG=3
M  V30 52 1 51 18
M  V30 53 1 52 20
M  V30 54 1 53 20
M  V30 55 1 54 21
M  V30 56 1 55 21
M  V30 57 1 56 21
M  V30 58 1 57 22
M  V30 59 1 58 22
M  V30 60 1 59 23
M  V30 61 1 60 23
M  V30 62 1 61 23
M  V30 63 1 62 24
M  V30 64 1 63 24
M  V30 65 1 64 26
M  V30 66 1 65 30
M  V30 67 1 66 30
M  V30 68 1 67 31
M  V30 69 1 68 31
M  V30 70 1 32 69 CFG=1
M  V30 71 1 70 34
M  V30 72 1 71 6
M  V30 73 1 72 18
M  V30 END BOND
M  V30 END CTAB
M  END
>  <i_epik_Tot_Q>  (1) 
0

>  <i_epik_Tot_abs_Q>  (1) 
2

>  <i_i_glide_confnum>  (1) 
1962

>  <i_i_glide_lignum>  (1) 
25

>  <i_i_glide_posenum>  (1) 
175

>  <i_i_glide_rotatable_bonds>  (1) 
15

>  <i_lp_mmshare_version>  (1) 
72125

>  <i_m_source_file_index>  (1) 
11

>  <i_f3d_flags>  (1) 
0

>  <num_sample>  (1) 
50

>  <b_lp_Chiralities_Consistent>  (1) 
1

>  <r_epik_Charging_Adjusted_Penalty>  (1) 
0.33639934582642134

>  <r_epik_Ionization_Penalty>  (1) 
0.23315943830934333

>  <r_epik_Ionization_Penalty_Charging>  (1) 
0.10316865490585193

>  <r_epik_Ionization_Penalty_Neutral>  (1) 
0.12999078340349141

>  <r_epik_State_Penalty>  (1) 
0.23323069092056939

>  <r_glide_ring_energy>  (1) 
0

>  <r_i_docking_score>  (1) 
-2.3198699881434486

>  <r_i_glide_ecoul>  (1) 
-4.2117856456661951

>  <r_i_glide_eff_state_penalty>  (1) 
0.23323069092056939

>  <r_i_glide_einternal>  (1) 
8.1678620854126844

>  <r_i_glide_emodel>  (1) 
-15.457768914065635

>  <r_i_glide_emodel_strain>  (1) 
3.3997043380881564

>  <r_i_glide_energy>  (1) 
-15.910775643438045

>  <r_i_glide_erotb>  (1) 
0.82510599487301828

>  <r_i_glide_esite>  (1) 
-0.25184008013430154

>  <r_i_glide_evdw>  (1) 
-11.69898999777185

>  <r_i_glide_gscore>  (1) 
-2.5531006790640181

>  <r_i_glide_gscore_strain>  (1) 
0

>  <r_i_glide_hbond>  (1) 
0

>  <r_i_glide_ligand_efficiency>  (1) 
-0.068231470239513189

>  <r_i_glide_ligand_efficiency_ln>  (1) 
-0.51252435052998235

>  <r_i_glide_ligand_efficiency_sa>  (1) 
-0.22104347620644035

>  <r_i_glide_lipo>  (1) 
-1.146970844782512

>  <r_i_glide_metal>  (1) 
-0

>  <r_i_glide_rewards>  (1) 
-0.76267840228170114

>  <r_lp_Energy>  (1) 
28.206426

>  <s_epik_Chemistry_Notes>  (1) 
This compound has an imine and may undergo hydrolysis. This compound contains an acetal/aminal-like group ( X-CH(R)-Y where X, Y are N, S, or O) that may be acid/base labile, releasing an aldehyde.

>  <s_epik_cmdline>  (1) 
J2VwaWtfcHl0aG9uJywgJy1waHQnLCAnMS4wJywgJy1waCcsICc3LjQnLCAnLXRuJywgJzgnLCAnLW1hJywgJzUwMCcsICctaW1hZScsICc8aW5maWxlLm1hZT4nLCAnLW9tYWUnLCAnPG91dGZpbGUubWFlPic=

>  <s_epik_input>  (1) 
W1NIXVMoPU8pKD1PKVtDQEBdMShbQ0gyXVtDSDNdKVtDQEBdKFtDSDNdKShbQ0BASF0xW09IXSlPW0NASF0oW0NAQEhdMltDSDNdKVtOSF1bQ0BASF0oRilbQ0BIXTJbQ0gyXS9bQ0hdPVtDSF1cQyhbQ0gyXVtOSDJdKT1OL0MoPU4vW0hdKS9bQ0gyXVtDSDJdW0NIMl1bTkhdW0NIMl1bT0hd

>  <s_glide_docking_method>  (1) 
confgen

>  <s_i_glide_gridfile>  (1) 
gpcr_drd2_6luq_protein_autoprepared_prepared

>  <s_lp_Force_Field>  (1) 
S-OPLS

>  <s_lp_Variant>  (1) 
DiffSBDD_10_num_sample_50-5

>  <s_m_source_file>  (1) 
generated__ligand_DiffSBDD_2026-05-06_prepared.sdf

>  <GenAI_Model>  (1) 
DiffSBDD

>  <Protein>  (1) 
generic_title2

$$$$
DiffSBDD_41_num_sample_50
     RDKit          3D

  0  0  0  0  0  0  0  0  0  0999 V3000
M  V30 BEGIN CTAB
M  V30 COUNTS 105 110 0 0 1
M  V30 BEGIN ATOM
M  V30 1 C 9.831852 4.317753 -12.691710 0
M  V30 2 C 7.844993 1.800897 -16.333457 0
M  V30 3 C 7.034836 2.924373 -15.634076 0
M  V30 4 C 7.114200 5.695851 -11.684980 0
M  V30 5 C 9.050819 3.264641 -12.437220 0
M  V30 6 O 8.385005 2.026389 -18.653647 0
M  V30 7 C 7.689349 0.133090 -22.196643 0
M  V30 8 N 8.798982 3.924641 -20.695973 0
M  V30 9 O 12.409388 1.813908 -19.203230 0
M  V30 10 C 9.050744 4.910945 -18.404583 0 CFG=2
M  V30 11 C 8.272947 6.569202 -11.103657 0
M  V30 12 O 8.086632 5.127377 -17.397860 0
M  V30 13 C 6.930667 5.345017 -19.954914 0
M  V30 14 C 10.843241 0.187990 -20.388900 0 CFG=1
M  V30 15 C 10.676984 5.877642 -22.860735 0
M  V30 16 C 12.054726 1.017989 -21.560987 0 CFG=2
M  V30 17 C 8.606215 5.601597 -16.173645 0
M  V30 18 C 8.858304 4.547106 -15.069565 0 CFG=1
M  V30 19 C 11.480561 -0.408884 -21.661648 0
M  V30 20 C 9.755392 5.146154 -13.966647 0
M  V30 21 C 12.370511 1.468641 -17.829180 0
M  V30 22 C 6.060740 -0.072246 -20.186904 0
M  V30 23 O 8.250828 1.360570 -21.749170 0
M  V30 24 C 13.067159 1.701556 -22.474769 0
M  V30 25 C 7.522896 1.742935 -17.825891 0
M  V30 26 C 9.220860 5.482631 -22.584641 0
M  V30 27 N 9.516636 3.037746 -22.751014 0 CHG=1
M  V30 28 N 6.275821 1.376804 -18.167093 0
M  V30 29 C 6.234567 -0.023552 -21.717158 0
M  V30 30 C 8.012078 2.753291 -13.390119 0 CFG=2
M  V30 31 S 9.665512 -0.630658 -19.263328 0
M  V30 32 C 7.615229 3.790104 -14.486684 0 CFG=2
M  V30 33 O 6.885581 2.242054 -12.701974 0
M  V30 34 C 8.373009 8.021277 -11.657224 0
M  V30 35 F 14.974309 0.589337 -21.614609 0
M  V30 36 C 9.393806 6.059608 -19.305127 0
M  V30 37 C 9.177397 4.102579 -21.984234 0
M  V30 38 C 9.514605 1.644123 -22.267035 0 CFG=1
M  V30 39 C 7.755278 8.168994 -13.011979 0
M  V30 40 C 7.104218 7.186384 -13.640233 0
M  V30 41 C 14.323803 0.860881 -22.745699 0
M  V30 42 C 8.406064 4.999744 -19.779137 0 CFG=2
M  V30 43 F 14.013903 -0.274706 -23.370623 0
M  V30 44 N 6.922748 5.926951 -13.119019 0
M  V30 45 C 6.489498 4.786011 -13.952578 0
M  V30 46 C 12.271524 0.686774 -20.066642 0 CFG=1
M  V30 47 C 5.832653 1.315052 -19.560075 0
M  V30 48 C 10.627063 1.494894 -21.196319 0 CFG=1
M  V30 49 H 10.567408 4.621247 -11.963111 0
M  V30 50 H 7.623407 0.830711 -15.884215 0
M  V30 51 H 8.920764 1.923462 -16.238102 0
M  V30 52 H 6.634868 3.596427 -16.380754 0
M  V30 53 H 6.234879 2.370147 -15.189508 0
M  V30 54 H 6.188239 6.008162 -11.199653 0
M  V30 55 H 7.229062 4.645082 -11.433418 0
M  V30 56 H 9.165394 2.728932 -11.509284 0
M  V30 57 H 7.695853 0.106399 -23.287010 0
M  V30 58 H 8.293960 -0.706940 -21.853718 0
M  V30 59 H 8.756070 2.976394 -20.327609 0
M  V30 60 H 9.799585 4.151605 -18.183853 0
M  V30 61 H 9.240827 6.140405 -11.283822 0
M  V30 62 H 8.248206 6.544196 -10.020118 0
M  V30 63 H 6.801080 6.423893 -20.044184 0
M  V30 64 H 6.520436 4.881698 -20.853948 0
M  V30 65 H 6.340053 4.992772 -19.109072 0
M  V30 66 H 10.737180 6.895670 -23.246780 0
M  V30 67 H 11.274303 5.830212 -21.950291 0
M  V30 68 H 11.138831 5.218165 -23.595075 0
M  V30 69 H 7.854625 6.297705 -15.855689 0
M  V30 70 H 9.519829 6.168847 -16.355803 0
M  V30 71 H 9.462388 3.814668 -15.580122 0
M  V30 72 H 12.180188 -1.235184 -21.506288 0
M  V30 73 H 10.812082 -0.627645 -22.493638 0
M  V30 74 H 9.413177 6.121332 -13.652372 0
M  V30 75 H 10.726046 5.369300 -14.391015 0
M  V30 76 H 12.512487 2.363621 -17.223067 0
M  V30 77 H 11.411211 1.032315 -17.553801 0
M  V30 78 H 13.162261 0.762271 -17.575915 0
M  V30 79 H 5.198946 -0.695554 -19.943846 0
M  V30 80 H 6.912301 -0.576562 -19.736035 0
M  V30 81 H 12.595137 1.951901 -23.424833 0
M  V30 82 H 13.367331 2.651889 -22.033137 0
M  V30 83 H 9.709684 1.038326 -23.152698 0
M  V30 84 H 8.657445 5.476743 -23.518257 0
M  V30 85 H 5.608425 1.150344 -17.443408 0
M  V30 86 H 5.611765 0.766176 -22.139352 0
M  V30 87 H 5.849803 -0.955932 -22.133221 0
M  V30 88 H 8.492987 1.885894 -13.839545 0
M  V30 89 H 9.314904 0.485221 -18.608313 0
M  V30 90 H 7.142388 1.439145 -12.274269 0
M  V30 91 H 9.412528 8.345063 -11.690899 0
M  V30 92 H 7.834711 8.766127 -11.091670 0
M  V30 93 H 9.001213 7.044581 -19.061913 0
M  V30 94 H 10.395304 6.055256 -19.728677 0
M  V30 95 H 8.740900 6.229678 -21.955394 0
M  V30 96 H 7.834882 9.133465 -13.482979 0
M  V30 97 H 6.671064 7.325657 -14.617664 0
M  V30 98 H 15.019518 1.396875 -23.391392 0
M  V30 99 H 5.980849 5.207266 -14.819635 0
M  V30 100 H 5.701451 4.247707 -13.427237 0
M  V30 101 H 13.021451 -0.084118 -19.862704 0
M  V30 102 H 6.329045 2.089961 -20.145323 0
M  V30 103 H 4.771031 1.562633 -19.599031 0
M  V30 104 H 10.662244 2.372312 -20.554660 0
M  V30 105 H 9.733894 3.220146 -23.720894 0
M  V30 END ATOM
M  V30 BEGIN BOND
M  V30 1 1 3 2
M  V30 2 2 5 1
M  V30 3 1 11 4
M  V30 4 1 12 10
M  V30 5 1 17 12
M  V30 6 1 18 17
M  V30 7 1 19 14
M  V30 8 1 19 16
M  V30 9 1 20 1
M  V30 10 1 20 18
M  V30 11 1 21 9
M  V30 12 1 23 7
M  V30 13 1 16 24 CFG=3
M  V30 14 1 25 2
M  V30 15 2 25 6
M  V30 16 1 26 15
M  V30 17 1 28 25
M  V30 18 1 29 7
M  V30 19 1 29 22
M  V30 20 1 30 5
M  V30 21 1 14 31 CFG=1
M  V30 22 1 32 3
M  V30 23 1 32 18
M  V30 24 1 32 30
M  V30 25 1 33 30
M  V30 26 1 34 11
M  V30 27 1 36 10
M  V30 28 1 37 8
M  V30 29 1 37 26
M  V30 30 2 37 27
M  V30 31 1 38 23
M  V30 32 1 38 27
M  V30 33 1 39 34
M  V30 34 2 40 39
M  V30 35 1 41 24
M  V30 36 1 41 35
M  V30 37 1 42 8
M  V30 38 1 42 10
M  V30 39 1 42 13 CFG=1
M  V30 40 1 42 36
M  V30 41 1 43 41
M  V30 42 1 44 4
M  V30 43 1 44 40
M  V30 44 1 32 45 CFG=1
M  V30 45 1 45 44
M  V30 46 1 46 9
M  V30 47 1 46 14
M  V30 48 1 46 16
M  V30 49 1 47 22
M  V30 50 1 47 28
M  V30 51 1 48 14
M  V30 52 1 48 16
M  V30 53 1 48 38
M  V30 54 1 49 1
M  V30 55 1 50 2
M  V30 56 1 51 2
M  V30 57 1 52 3
M  V30 58 1 53 3
M  V30 59 1 54 4
M  V30 60 1 55 4
M  V30 61 1 56 5
M  V30 62 1 57 7
M  V30 63 1 58 7
M  V30 64 1 59 8
M  V30 65 1 10 60 CFG=1
M  V30 66 1 61 11
M  V30 67 1 62 11
M  V30 68 1 63 13
M  V30 69 1 64 13
M  V30 70 1 65 13
M  V30 71 1 66 15
M  V30 72 1 67 15
M  V30 73 1 68 15
M  V30 74 1 69 17
M  V30 75 1 70 17
M  V30 76 1 18 71 CFG=3
M  V30 77 1 72 19
M  V30 78 1 73 19
M  V30 79 1 74 20
M  V30 80 1 75 20
M  V30 81 1 76 21
M  V30 82 1 77 21
M  V30 83 1 78 21
M  V30 84 1 79 22
M  V30 85 1 80 22
M  V30 86 1 81 24
M  V30 87 1 82 24
M  V30 88 1 38 83 CFG=3
M  V30 89 1 84 26
M  V30 90 1 85 28
M  V30 91 1 86 29
M  V30 92 1 87 29
M  V30 93 1 30 88 CFG=3
M  V30 94 1 89 31
M  V30 95 1 90 33
M  V30 96 1 91 34
M  V30 97 1 92 34
M  V30 98 1 93 36
M  V30 99 1 94 36
M  V30 100 1 95 26
M  V30 101 1 96 39
M  V30 102 1 97 40
M  V30 103 1 98 41
M  V30 104 1 99 45
M  V30 105 1 100 45
M  V30 106 1 46 101 CFG=3
M  V30 107 1 102 47
M  V30 108 1 103 47
M  V30 109 1 48 104 CFG=1
M  V30 110 1 105 27
M  V30 END BOND
M  V30 END CTAB
M  END
>  <i_epik_Tot_Q>  (1) 
1

>  <i_epik_Tot_abs_Q>  (1) 
1

>  <i_i_glide_confnum>  (1) 
123

>  <i_i_glide_lignum>  (1) 
101

>  <i_i_glide_posenum>  (1) 
316

>  <i_i_glide_rotatable_bonds>  (1) 
9

>  <i_lp_mmshare_version>  (1) 
72125

>  <i_m_source_file_index>  (1) 
42

>  <i_f3d_flags>  (1) 
0

>  <num_sample>  (1) 
50

>  <b_lp_Chiralities_Consistent>  (1) 
1

>  <r_epik_Charging_Adjusted_Penalty>  (1) 
0.076842420233623365

>  <r_epik_Ionization_Penalty>  (1) 
0.078794888684849976

>  <r_epik_Ionization_Penalty_Charging>  (1) 
0.00072930087509115145

>  <r_epik_Ionization_Penalty_Neutral>  (1) 
0.078065587809758821

>  <r_epik_State_Penalty>  (1) 
0.076113119358532211

>  <r_glide_ring_energy>  (1) 
0

>  <r_i_docking_score>  (1) 
-2.3139730850156379

>  <r_i_glide_ecoul>  (1) 
-2.2658784189538457

>  <r_i_glide_eff_state_penalty>  (1) 
0.076113119358532211

>  <r_i_glide_einternal>  (1) 
13.021327383836089

>  <r_i_glide_emodel>  (1) 
-4.0148629968880778

>  <r_i_glide_emodel_strain>  (1) 
1.2085190580673952

>  <r_i_glide_energy>  (1) 
-7.504160779687246

>  <r_i_glide_erotb>  (1) 
0.0035911919815773572

>  <r_i_glide_esite>  (1) 
0

>  <r_i_glide_evdw>  (1) 
-5.2382823607334004

>  <r_i_glide_gscore>  (1) 
-2.3900862043741702

>  <r_i_glide_gscore_strain>  (1) 
0

>  <r_i_glide_hbond>  (1) 
0

>  <r_i_glide_ligand_efficiency>  (1) 
-0.048207772604492459

>  <r_i_glide_ligand_efficiency_ln>  (1) 
-0.47503132796902614

>  <r_i_glide_ligand_efficiency_sa>  (1) 
-0.17519867266838465

>  <r_i_glide_lipo>  (1) 
-1.3019694077867658

>  <r_i_glide_metal>  (1) 
-0

>  <r_i_glide_rewards>  (1) 
-0.48991210768923521

>  <r_lp_Energy>  (1) 
118.844916

>  <s_epik_Chemistry_Notes>  (1) 
This compound has an imine and may undergo hydrolysis. This compound contains an acetal/aminal-like group ( X-CH(R)-Y where X, Y are N, S, or O) that may be acid/base labile, releasing an aldehyde.

>  <s_epik_cmdline>  (1) 
J2VwaWtfcHl0aG9uJywgJy1waHQnLCAnMS4wJywgJy1waCcsICc3LjQnLCAnLXRuJywgJzgnLCAnLW1hJywgJzUwMCcsICctaW1hZScsICc8aW5maWxlLm1hZT4nLCAnLW9tYWUnLCAnPG91dGZpbGUubWFlPic=

>  <s_epik_input>  (1) 
W0NIXTE9W0NIXVtDSDJdW0NIMl1bQ0gyXU4xW0NIMl1bQ0BdMjNbQ0BIXShbQ0gyXVtDSF09W0NIXVtDQEhdM1tPSF0pW0NIMl1PW0NASF00W0NAQF0oW0NIM10pKFtDSDJdNClbTkhdW0NASF0oW0NIMl1bQ0gzXSkvTj1DKFtDQEBIXTVbQ0BdKFtDSDJdW0NIXShGKUYpKFtDSDJdW0NAXTU2W1NIXSlbQ0BIXTZPW0NIM10pL09bQ0gyXVtDSDJdW0NIMl1bQ0gyXVtOSF1DKD1PKVtDSDJdW0NIMl0y

>  <s_glide_docking_method>  (1) 
confgen

>  <s_i_glide_gridfile>  (1) 
gpcr_drd2_6luq_protein_autoprepared_prepared

>  <s_lp_Force_Field>  (1) 
S-OPLS

>  <s_lp_Variant>  (1) 
DiffSBDD_41_num_sample_50-1

>  <s_m_source_file>  (1) 
generated__ligand_DiffSBDD_2026-05-06_prepared.sdf

>  <GenAI_Model>  (1) 
DiffSBDD

>  <Protein>  (1) 
generic_title2

$$$$
DiffSBDD_10_num_sample_50
     RDKit          3D

  0  0  0  0  0  0  0  0  0  0999 V3000
M  V30 BEGIN CTAB
M  V30 COUNTS 71 72 0 0 1
M  V30 BEGIN ATOM
M  V30 1 C 10.769480 7.792979 -8.558824 0 CFG=2
M  V30 2 C 8.645149 -0.496165 -17.160663 0
M  V30 3 C 8.117185 2.232492 -15.437526 0
M  V30 4 C 7.781491 4.311784 -12.473284 0 CFG=1
M  V30 5 C 9.666982 6.749154 -8.898066 0 CFG=2
M  V30 6 N 6.538262 0.283723 -18.042141 0
M  V30 7 N 7.567455 5.369312 -10.417739 0
M  V30 8 C 8.970360 5.090226 -10.599014 0 CFG=1
M  V30 9 S 10.810596 8.341023 -6.759329 0
M  V30 10 C 9.308908 -0.721096 -18.499857 0
M  V30 11 S 11.434838 6.569176 -5.801640 0 CHG=-1
M  V30 12 C 13.380493 8.073102 -8.713511 0
M  V30 13 O 11.813447 2.218048 -20.401600 0
M  V30 14 O 11.841954 9.368362 -6.544310 0
M  V30 15 C 9.434869 8.225279 -9.122424 0 CFG=2
M  V30 16 C 6.323213 1.413037 -13.724999 0
M  V30 17 C 6.861116 5.229416 -11.669121 0 CFG=1
M  V30 18 N 10.461898 0.366807 -20.377485 0
M  V30 19 N 6.837083 0.169530 -15.748116 0
M  V30 20 C 9.773394 0.605742 -19.116682 0
M  V30 21 C 9.766367 5.964879 -12.861495 0
M  V30 22 C 12.015900 8.104955 -9.410449 0
M  V30 23 C 8.981264 5.889307 -7.822094 0
M  V30 24 C 7.322048 4.202130 -13.949431 0
M  V30 25 C 7.070809 1.205872 -15.030496 0
M  V30 26 O 9.434865 8.522366 -10.502954 0
M  V30 27 C 7.390160 -0.032995 -17.006362 0
M  V30 28 O 9.439558 8.573766 -6.291697 0
M  V30 29 F 6.728226 6.429563 -12.235495 0
M  V30 30 N 5.950477 0.169689 -13.075154 0
M  V30 31 C 10.726798 1.615330 -21.072305 0
M  V30 32 C 9.204550 4.755962 -12.090700 0 CFG=2
M  V30 33 O 9.834820 6.118553 -10.187830 0
M  V30 34 C 8.233449 3.507071 -14.955386 0
M  V30 35 H 9.238031 -0.724329 -16.291585 0
M  V30 36 H 8.819478 1.891390 -16.181382 0
M  V30 37 H 7.689805 3.348425 -11.992672 0
M  V30 38 H 6.778799 0.081760 -19.000918 0
M  V30 39 H 7.393000 6.302873 -10.021291 0
M  V30 40 H 9.214742 4.214781 -9.995649 0
M  V30 41 H 8.623803 -1.241791 -19.169127 0
M  V30 42 H 10.159557 -1.377728 -18.327008 0
M  V30 43 H 14.173519 7.804537 -9.411661 0
M  V30 44 H 13.646137 9.036137 -8.291369 0
M  V30 45 H 13.391058 7.369380 -7.891652 0
M  V30 46 H 12.307154 2.724094 -21.029870 0
M  V30 47 H 8.731724 8.812317 -8.536385 0
M  V30 48 H 6.983924 1.872746 -13.015639 0
M  V30 49 H 5.434737 2.017965 -13.874184 0
M  V30 50 H 5.862571 4.815482 -11.523780 0
M  V30 51 H 11.341113 -0.098439 -20.201521 0
M  V30 52 H 10.432707 1.135610 -18.427869 0
M  V30 53 H 8.907374 1.245781 -19.290027 0
M  V30 54 H 9.155611 6.855431 -12.723767 0
M  V30 55 H 10.778859 6.200371 -12.531467 0
M  V30 56 H 9.825156 5.756407 -13.926684 0
M  V30 57 H 12.033209 7.402804 -10.243689 0
M  V30 58 H 11.899811 9.091754 -9.860410 0
M  V30 59 H 8.906492 6.369262 -6.856180 0
M  V30 60 H 7.950019 5.648736 -8.056989 0
M  V30 61 H 9.541757 4.968665 -7.688942 0
M  V30 62 H 7.277284 5.220192 -14.338949 0
M  V30 63 H 6.285662 3.892579 -14.027117 0
M  V30 64 H 9.396431 7.673112 -10.927155 0
M  V30 65 H 5.388633 -0.406735 -13.691806 0
M  V30 66 H 6.780041 -0.375843 -12.897391 0
M  V30 67 H 9.854392 2.270810 -21.100195 0
M  V30 68 H 11.018592 1.399103 -22.101067 0
M  V30 69 H 9.908358 3.927249 -12.166569 0
M  V30 70 H 9.045098 4.114499 -15.326830 0
M  V30 71 H 5.571498 0.514110 -17.868700 0
M  V30 END ATOM
M  V30 BEGIN BOND
M  V30 1 1 5 1
M  V30 2 1 8 7
M  V30 3 1 9 1
M  V30 4 1 10 2
M  V30 5 1 11 9
M  V30 6 2 14 9
M  V30 7 1 15 1
M  V30 8 1 15 5
M  V30 9 1 17 4
M  V30 10 1 17 7
M  V30 11 1 20 10
M  V30 12 1 20 18
M  V30 13 1 1 22 CFG=3
M  V30 14 1 22 12
M  V30 15 1 23 5
M  V30 16 1 24 4
M  V30 17 1 25 3
M  V30 18 1 25 16
M  V30 19 2 25 19
M  V30 20 1 26 15
M  V30 21 2 27 2
M  V30 22 1 27 6
M  V30 23 1 27 19
M  V30 24 2 28 9
M  V30 25 1 29 17
M  V30 26 1 30 16
M  V30 27 1 31 13
M  V30 28 1 31 18
M  V30 29 1 32 4
M  V30 30 1 32 8
M  V30 31 1 32 21
M  V30 32 1 5 33 CFG=3
M  V30 33 1 33 8
M  V30 34 2 34 3
M  V30 35 1 34 24
M  V30 36 1 35 2
M  V30 37 1 36 3
M  V30 38 1 4 37 CFG=1
M  V30 39 1 38 6
M  V30 40 1 39 7
M  V30 41 1 8 40 CFG=1
M  V30 42 1 41 10
M  V30 43 1 42 10
M  V30 44 1 43 12
M  V30 45 1 44 12
M  V30 46 1 45 12
M  V30 47 1 46 13
M  V30 48 1 15 47 CFG=1
M  V30 49 1 48 16
M  V30 50 1 49 16
M  V30 51 1 17 50 CFG=1
M  V30 52 1 51 18
M  V30 53 1 52 20
M  V30 54 1 53 20
M  V30 55 1 54 21
M  V30 56 1 55 21
M  V30 57 1 56 21
M  V30 58 1 57 22
M  V30 59 1 58 22
M  V30 60 1 59 23
M  V30 61 1 60 23
M  V30 62 1 61 23
M  V30 63 1 62 24
M  V30 64 1 63 24
M  V30 65 1 64 26
M  V30 66 1 65 30
M  V30 67 1 66 30
M  V30 68 1 67 31
M  V30 69 1 68 31
M  V30 70 1 32 69 CFG=1
M  V30 71 1 70 34
M  V30 72 1 71 6
M  V30 END BOND
M  V30 END CTAB
M  END
>  <i_epik_Tot_Q>  (1) 
-1

>  <i_epik_Tot_abs_Q>  (1) 
1

>  <i_i_glide_confnum>  (1) 
3353

>  <i_i_glide_lignum>  (1) 
37

>  <i_i_glide_posenum>  (1) 
262

>  <i_i_glide_rotatable_bonds>  (1) 
15

>  <i_lp_mmshare_version>  (1) 
72125

>  <i_m_source_file_index>  (1) 
11

>  <i_f3d_flags>  (1) 
0

>  <num_sample>  (1) 
50

>  <b_lp_Chiralities_Consistent>  (1) 
1

>  <r_epik_Charging_Adjusted_Penalty>  (1) 
1.239197207418439

>  <r_epik_Ionization_Penalty>  (1) 
1.2496715491914541

>  <r_epik_Ionization_Penalty_Charging>  (1) 
1.1069707349969355e-11

>  <r_epik_Ionization_Penalty_Neutral>  (1) 
1.2496715491803843

>  <r_epik_State_Penalty>  (1) 
1.2391972074073692

>  <r_glide_ring_energy>  (1) 
0

>  <r_i_docking_score>  (1) 
-2.3100010349686517

>  <r_i_glide_ecoul>  (1) 
-4.7671835595000314

>  <r_i_glide_eff_state_penalty>  (1) 
1.2391972074073692

>  <r_i_glide_einternal>  (1) 
11.77859046652976

>  <r_i_glide_emodel>  (1) 
-35.894194958528892

>  <r_i_glide_emodel_strain>  (1) 
6.9905500477524924

>  <r_i_glide_energy>  (1) 
-41.150015465469508

>  <r_i_glide_erotb>  (1) 
0.82803537691766171

>  <r_i_glide_esite>  (1) 
-0.090319765736791666

>  <r_i_glide_evdw>  (1) 
-36.382831905969475

>  <r_i_glide_gscore>  (1) 
-3.5491982423760211

>  <r_i_glide_gscore_strain>  (1) 
0.74763751193812311

>  <r_i_glide_hbond>  (1) 
-0.21059793463164758

>  <r_i_glide_ligand_efficiency>  (1) 
-0.067941206910842697

>  <r_i_glide_ligand_efficiency_ln>  (1) 
-0.5103440219589096

>  <r_i_glide_ligand_efficiency_sa>  (1) 
-0.22010313570140133

>  <r_i_glide_lipo>  (1) 
-1.2832557792310191

>  <r_i_glide_metal>  (1) 
-0

>  <r_i_glide_rewards>  (1) 
-1.0064785224088693

>  <r_lp_Energy>  (1) 
27.690203

>  <s_epik_Chemistry_Notes>  (1) 
This compound has an imine and may undergo hydrolysis. This compound contains an acetal/aminal-like group ( X-CH(R)-Y where X, Y are N, S, or O) that may be acid/base labile, releasing an aldehyde.

>  <s_epik_cmdline>  (1) 
J2VwaWtfcHl0aG9uJywgJy1waHQnLCAnMS4wJywgJy1waCcsICc3LjQnLCAnLXRuJywgJzgnLCAnLW1hJywgJzUwMCcsICctaW1hZScsICc8aW5maWxlLm1hZT4nLCAnLW9tYWUnLCAnPG91dGZpbGUubWFlPic=

>  <s_epik_input>  (1) 
W1NIXVMoPU8pKD1PKVtDQEBdMShbQ0gyXVtDSDNdKVtDQEBdKFtDSDNdKShbQ0BASF0xW09IXSlPW0NASF0oW0NAQEhdMltDSDNdKVtOSF1bQ0BASF0oRilbQ0BIXTJbQ0gyXS9bQ0hdPVtDSF1cQyhbQ0gyXVtOSDJdKT1OL0MoPU4vW0hdKS9bQ0gyXVtDSDJdW0NIMl1bTkhdW0NIMl1bT0hd

>  <s_glide_docking_method>  (1) 
confgen

>  <s_i_glide_gridfile>  (1) 
gpcr_drd2_6luq_protein_autoprepared_prepared

>  <s_lp_Force_Field>  (1) 
S-OPLS

>  <s_lp_Variant>  (1) 
DiffSBDD_10_num_sample_50-17

>  <s_m_source_file>  (1) 
generated__ligand_DiffSBDD_2026-05-06_prepared.sdf

>  <GenAI_Model>  (1) 
DiffSBDD

>  <Protein>  (1) 
generic_title2

$$$$
DiffSBDD_10_num_sample_50
     RDKit          3D

  0  0  0  0  0  0  0  0  0  0999 V3000
M  V30 BEGIN CTAB
M  V30 COUNTS 73 74 0 0 1
M  V30 BEGIN ATOM
M  V30 1 C 13.575299 6.854454 -19.875285 0 CFG=2
M  V30 2 C 9.834902 6.060837 -9.412454 0
M  V30 3 C 8.733405 4.875711 -13.866560 0
M  V30 4 C 8.587574 4.953611 -17.318248 0 CFG=1
M  V30 5 C 12.517499 6.905364 -18.763680 0 CFG=2
M  V30 6 N 10.069048 7.769251 -11.091664 0
M  V30 7 N 9.494544 5.121230 -19.496889 0
M  V30 8 C 10.321188 5.883268 -18.601811 0 CFG=1
M  V30 9 S 15.257182 7.499022 -19.327662 0
M  V30 10 C 10.167254 6.961819 -8.238243 0
M  V30 11 S 16.281199 7.587958 -21.180845 0 CHG=-1
M  V30 12 C 14.342894 4.452933 -20.392186 0
M  V30 13 O 11.834204 7.630429 -4.292306 0
M  V30 14 O 15.143062 8.878428 -18.827917 0
M  V30 15 C 12.511705 7.934388 -19.880729 0 CFG=2
M  V30 16 C 7.449421 6.680921 -12.490709 0
M  V30 17 C 8.546090 4.328219 -18.721139 0 CFG=1
M  V30 18 N 10.231813 7.222033 -5.785915 0 CHG=1
M  V30 19 N 9.533898 5.597527 -11.732675 0
M  V30 20 C 9.646316 6.442050 -6.897777 0
M  V30 21 C 11.040036 4.318108 -16.713793 0
M  V30 22 C 13.627126 5.712378 -20.897769 0
M  V30 23 C 12.847185 7.250703 -17.317022 0
M  V30 24 C 8.009070 4.111609 -16.160867 0
M  V30 25 C 8.637193 5.706386 -12.632559 0
M  V30 26 O 11.421201 7.747086 -20.760660 0
M  V30 27 C 9.807917 6.476562 -10.688823 0
M  V30 28 O 15.917012 6.477600 -18.498522 0
M  V30 29 F 8.955664 3.060516 -18.714368 0
M  V30 30 N 6.495793 6.169455 -11.491596 0 CHG=1
M  V30 31 C 11.340054 6.561163 -5.073800 0
M  V30 32 C 10.046258 5.405619 -17.169058 0 CFG=2
M  V30 33 O 11.670986 5.757896 -18.930401 0
M  V30 34 C 7.873104 4.949307 -14.903084 0
M  V30 35 H 9.623374 5.025274 -9.184375 0
M  V30 36 H 9.566472 4.191692 -13.893036 0
M  V30 37 H 7.975792 5.855520 -17.382847 0
M  V30 38 H 10.336623 8.484954 -10.432121 0
M  V30 39 H 10.048898 4.486410 -20.053963 0
M  V30 40 H 10.020716 6.927724 -18.704207 0
M  V30 41 H 9.788660 7.969222 -8.418677 0
M  V30 42 H 11.254672 7.033948 -8.199438 0
M  V30 43 H 14.242087 3.638015 -21.108573 0
M  V30 44 H 15.408559 4.629082 -20.249688 0
M  V30 45 H 13.922849 4.117627 -19.443365 0
M  V30 46 H 12.228837 7.277859 -3.506578 0
M  V30 47 H 12.765225 8.968728 -19.669561 0
M  V30 48 H 7.785362 7.658941 -12.152762 0
M  V30 49 H 6.928280 6.910695 -13.411589 0
M  V30 50 H 7.548586 4.347816 -19.161977 0
M  V30 51 H 9.498183 7.388462 -5.111386 0
M  V30 52 H 9.859852 5.378101 -6.784285 0
M  V30 53 H 8.561307 6.545856 -6.865179 0
M  V30 54 H 10.893910 3.366122 -17.221485 0
M  V30 55 H 12.079970 4.605041 -16.853250 0
M  V30 56 H 10.926399 4.169882 -15.646920 0
M  V30 57 H 12.613332 5.436990 -21.185858 0
M  V30 58 H 14.091137 6.066895 -21.816642 0
M  V30 59 H 13.379577 8.196733 -17.246451 0
M  V30 60 H 11.947027 7.362270 -16.721339 0
M  V30 61 H 13.467196 6.471306 -16.874270 0
M  V30 62 H 8.633488 3.238608 -15.967963 0
M  V30 63 H 7.027705 3.726318 -16.428841 0
M  V30 64 H 11.149942 6.843655 -20.677692 0
M  V30 65 H 5.547888 6.352828 -11.782000 0
M  V30 66 H 6.636551 5.181353 -11.341812 0
M  V30 67 H 12.097420 6.168862 -5.753474 0
M  V30 68 H 10.958274 5.769301 -4.433305 0
M  V30 69 H 10.115566 6.234102 -16.473953 0
M  V30 70 H 7.041513 5.627401 -14.881990 0
M  V30 71 H 10.118207 8.021224 -12.067629 0
M  V30 72 H 10.552628 8.110978 -6.139494 0
M  V30 73 H 6.662021 6.680569 -10.614851 0
M  V30 END ATOM
M  V30 BEGIN BOND
M  V30 1 1 5 1
M  V30 2 1 8 7
M  V30 3 1 9 1
M  V30 4 1 10 2
M  V30 5 1 11 9
M  V30 6 2 14 9
M  V30 7 1 15 1
M  V30 8 1 15 5
M  V30 9 1 17 4
M  V30 10 1 17 7
M  V30 11 1 20 10
M  V30 12 1 20 18
M  V30 13 1 1 22 CFG=3
M  V30 14 1 22 12
M  V30 15 1 23 5
M  V30 16 1 24 4
M  V30 17 1 25 3
M  V30 18 1 25 16
M  V30 19 2 25 19
M  V30 20 1 26 15
M  V30 21 2 27 2
M  V30 22 1 27 6
M  V30 23 1 27 19
M  V30 24 2 28 9
M  V30 25 1 29 17
M  V30 26 1 30 16
M  V30 27 1 31 13
M  V30 28 1 31 18
M  V30 29 1 32 4
M  V30 30 1 32 8
M  V30 31 1 32 21
M  V30 32 1 5 33 CFG=1
M  V30 33 1 33 8
M  V30 34 2 34 3
M  V30 35 1 34 24
M  V30 36 1 35 2
M  V30 37 1 36 3
M  V30 38 1 4 37 CFG=3
M  V30 39 1 38 6
M  V30 40 1 39 7
M  V30 41 1 8 40 CFG=1
M  V30 42 1 41 10
M  V30 43 1 42 10
M  V30 44 1 43 12
M  V30 45 1 44 12
M  V30 46 1 45 12
M  V30 47 1 46 13
M  V30 48 1 15 47 CFG=1
M  V30 49 1 48 16
M  V30 50 1 49 16
M  V30 51 1 17 50 CFG=3
M  V30 52 1 51 18
M  V30 53 1 52 20
M  V30 54 1 53 20
M  V30 55 1 54 21
M  V30 56 1 55 21
M  V30 57 1 56 21
M  V30 58 1 57 22
M  V30 59 1 58 22
M  V30 60 1 59 23
M  V30 61 1 60 23
M  V30 62 1 61 23
M  V30 63 1 62 24
M  V30 64 1 63 24
M  V30 65 1 64 26
M  V30 66 1 65 30
M  V30 67 1 66 30
M  V30 68 1 67 31
M  V30 69 1 68 31
M  V30 70 1 32 69 CFG=1
M  V30 71 1 70 34
M  V30 72 1 71 6
M  V30 73 1 72 18
M  V30 74 1 73 30
M  V30 END BOND
M  V30 END CTAB
M  END
>  <i_epik_Tot_Q>  (1) 
1

>  <i_epik_Tot_abs_Q>  (1) 
3

>  <i_i_glide_confnum>  (1) 
958

>  <i_i_glide_lignum>  (1) 
32

>  <i_i_glide_posenum>  (1) 
361

>  <i_i_glide_rotatable_bonds>  (1) 
15

>  <i_lp_mmshare_version>  (1) 
72125

>  <i_m_source_file_index>  (1) 
11

>  <i_f3d_flags>  (1) 
0

>  <num_sample>  (1) 
50

>  <b_lp_Chiralities_Consistent>  (1) 
1

>  <r_epik_Charging_Adjusted_Penalty>  (1) 
2.168687317063887

>  <r_epik_Ionization_Penalty>  (1) 
1.1047352072338965

>  <r_epik_Ionization_Penalty_Charging>  (1) 
1.0999234457570315

>  <r_epik_Ionization_Penalty_Neutral>  (1) 
0.0048117614768649203

>  <r_epik_State_Penalty>  (1) 
1.0687638713068555

>  <r_glide_ring_energy>  (1) 
0

>  <r_i_docking_score>  (1) 
-2.2868296500639369

>  <r_i_glide_ecoul>  (1) 
-7.4800990408058636

>  <r_i_glide_eff_state_penalty>  (1) 
1.0687638713068555

>  <r_i_glide_einternal>  (1) 
11.02398616696436

>  <r_i_glide_emodel>  (1) 
-38.714361549843048

>  <r_i_glide_emodel_strain>  (1) 
4.9611610613840753

>  <r_i_glide_energy>  (1) 
-37.086983800697539

>  <r_i_glide_erotb>  (1) 
0.82219216958862984

>  <r_i_glide_esite>  (1) 
-0.15404055648789647

>  <r_i_glide_evdw>  (1) 
-29.606884759891678

>  <r_i_glide_gscore>  (1) 
-3.3555935213707921

>  <r_i_glide_gscore_strain>  (1) 
0.24029026534601883

>  <r_i_glide_hbond>  (1) 
-0.20000000000000001

>  <r_i_glide_ligand_efficiency>  (1) 
-0.067259695590115798

>  <r_i_glide_ligand_efficiency_ln>  (1) 
-0.50522481309812628

>  <r_i_glide_ligand_efficiency_sa>  (1) 
-0.21789530358407025

>  <r_i_glide_lipo>  (1) 
-0.50648090460746198

>  <r_i_glide_metal>  (1) 
-0

>  <r_i_glide_rewards>  (1) 
-0.9551954010946182

>  <r_lp_Energy>  (1) 
27.209377

>  <s_epik_Chemistry_Notes>  (1) 
This compound has an imine and may undergo hydrolysis. This compound contains an acetal/aminal-like group ( X-CH(R)-Y where X, Y are N, S, or O) that may be acid/base labile, releasing an aldehyde.

>  <s_epik_cmdline>  (1) 
J2VwaWtfcHl0aG9uJywgJy1waHQnLCAnMS4wJywgJy1waCcsICc3LjQnLCAnLXRuJywgJzgnLCAnLW1hJywgJzUwMCcsICctaW1hZScsICc8aW5maWxlLm1hZT4nLCAnLW9tYWUnLCAnPG91dGZpbGUubWFlPic=

>  <s_epik_input>  (1) 
W1NIXVMoPU8pKD1PKVtDQEBdMShbQ0gyXVtDSDNdKVtDQEBdKFtDSDNdKShbQ0BASF0xW09IXSlPW0NASF0oW0NAQEhdMltDSDNdKVtOSF1bQ0BASF0oRilbQ0BIXTJbQ0gyXVxbQ0hdPVtDSF1cQyhbQ0gyXVtOSDJdKT1OXEMoPU5cW0hdKVxbQ0gyXVtDSDJdW0NIMl1bTkhdW0NIMl1bT0hd

>  <s_glide_docking_method>  (1) 
confgen

>  <s_i_glide_gridfile>  (1) 
gpcr_drd2_6luq_protein_autoprepared_prepared

>  <s_lp_Force_Field>  (1) 
S-OPLS

>  <s_lp_Variant>  (1) 
DiffSBDD_10_num_sample_50-12

>  <s_m_source_file>  (1) 
generated__ligand_DiffSBDD_2026-05-06_prepared.sdf

>  <GenAI_Model>  (1) 
DiffSBDD

>  <Protein>  (1) 
generic_title2

$$$$
DiffSBDD_35_num_sample_50
     RDKit          3D

  0  0  0  0  0  0  0  0  0  0999 V3000
M  V30 BEGIN CTAB
M  V30 COUNTS 55 58 0 0 1
M  V30 BEGIN ATOM
M  V30 1 C 7.321817 2.224399 -20.856999 0
M  V30 2 C 7.887253 -2.077140 -18.525274 0
M  V30 3 C 6.422752 -0.461748 -19.827759 0 CFG=1
M  V30 4 O 8.126115 4.413286 -20.174751 0
M  V30 5 C 5.541118 -1.640810 -17.662013 0
M  V30 6 O 3.904983 9.128679 -23.592728 0
M  V30 7 O 5.115815 3.060621 -20.291786 0
M  V30 8 C 6.081571 6.261160 -20.879218 0 CFG=1
M  V30 9 C 7.758736 8.022111 -21.794975 0 CFG=1
M  V30 10 C 7.778665 7.659497 -23.271885 0
M  V30 11 C 5.400861 0.701876 -19.848046 0
M  V30 12 C 6.765161 -1.021807 -18.399595 0
M  V30 13 C 6.845010 9.076405 -21.325074 0 CFG=1
M  V30 14 C 5.203312 7.437661 -20.715599 0 CFG=2
M  V30 15 C 6.082912 0.451182 -16.539502 0
M  V30 16 C 4.585040 8.840709 -22.611167 0
M  V30 17 C 7.779884 3.637030 -21.302808 0 CFG=2
M  V30 18 C 5.736839 9.734557 -22.142159 0
M  V30 19 C 5.878749 2.094868 -20.331490 0
M  V30 20 O 4.235238 0.539289 -19.491659 0
M  V30 21 C 6.852271 4.310784 -22.331730 0
M  V30 22 C 6.128892 5.441960 -22.134638 0
M  V30 23 Cl 5.834459 -1.782706 -20.879404 0
M  V30 24 O 4.401979 7.745121 -21.850410 0
M  V30 25 C 6.710604 7.678506 -20.698437 0 CFG=2
M  V30 26 C 5.353512 -0.873619 -16.347904 0
M  V30 27 O 4.634876 7.590251 -19.433250 0
M  V30 28 C 7.259397 0.096539 -17.444993 0
M  V30 29 H 7.407030 1.554713 -21.713193 0
M  V30 30 H 8.015749 1.854590 -20.102414 0
M  V30 31 H 8.193593 -2.453906 -17.547902 0
M  V30 32 H 7.573277 -2.944216 -19.106631 0
M  V30 33 H 8.771392 -1.657245 -19.004188 0
M  V30 34 H 7.356730 -0.147327 -20.284677 0
M  V30 35 H 7.342780 4.569289 -19.668562 0
M  V30 36 H 4.628642 -1.582642 -18.254228 0
M  V30 37 H 5.676993 -2.702858 -17.454276 0
M  V30 38 H 6.042767 5.619678 -20.003993 0
M  V30 39 H 8.772615 8.077248 -21.403322 0
M  V30 40 H 6.781765 7.596220 -23.701931 0
M  V30 41 H 8.335274 8.417141 -23.823223 0
M  V30 42 H 8.283904 6.704742 -23.416035 0
M  V30 43 H 7.330469 9.814239 -20.691666 0
M  V30 44 H 6.399538 0.891140 -15.593258 0
M  V30 45 H 5.435114 1.171784 -17.034676 0
M  V30 46 H 8.721662 3.505163 -21.836488 0
M  V30 47 H 6.183823 10.220653 -23.009705 0
M  V30 48 H 5.291858 10.524897 -21.539257 0
M  V30 49 H 6.788383 3.819389 -23.291900 0
M  V30 50 H 5.520899 5.800521 -22.951473 0
M  V30 51 H 5.823450 -1.427379 -15.534517 0
M  V30 52 H 4.302068 -0.742752 -16.087553 0
M  V30 53 H 4.624871 8.508952 -19.209983 0
M  V30 54 H 8.066016 -0.270149 -16.808396 0
M  V30 55 H 7.659399 0.965354 -17.966006 0
M  V30 END ATOM
M  V30 BEGIN BOND
M  V30 1 1 10 9
M  V30 2 1 11 3
M  V30 3 1 12 2
M  V30 4 1 12 3
M  V30 5 1 12 5
M  V30 6 1 13 9
M  V30 7 1 14 8
M  V30 8 2 16 6
M  V30 9 1 17 1
M  V30 10 1 17 4
M  V30 11 1 18 13
M  V30 12 1 18 16
M  V30 13 1 19 1
M  V30 14 2 19 7
M  V30 15 1 19 11
M  V30 16 2 20 11
M  V30 17 1 21 17
M  V30 18 1 22 8
M  V30 19 2 22 21
M  V30 20 1 23 3
M  V30 21 1 24 14
M  V30 22 1 24 16
M  V30 23 1 25 8
M  V30 24 1 25 9
M  V30 25 1 25 13
M  V30 26 1 25 14 CFG=1
M  V30 27 1 26 5
M  V30 28 1 26 15
M  V30 29 1 14 27 CFG=1
M  V30 30 1 28 12
M  V30 31 1 28 15
M  V30 32 1 29 1
M  V30 33 1 30 1
M  V30 34 1 31 2
M  V30 35 1 32 2
M  V30 36 1 33 2
M  V30 37 1 3 34 CFG=3
M  V30 38 1 35 4
M  V30 39 1 36 5
M  V30 40 1 37 5
M  V30 41 1 8 38 CFG=1
M  V30 42 1 9 39 CFG=1
M  V30 43 1 40 10
M  V30 44 1 41 10
M  V30 45 1 42 10
M  V30 46 1 13 43 CFG=1
M  V30 47 1 44 15
M  V30 48 1 45 15
M  V30 49 1 17 46 CFG=3
M  V30 50 1 47 18
M  V30 51 1 48 18
M  V30 52 1 49 21
M  V30 53 1 50 22
M  V30 54 1 51 26
M  V30 55 1 52 26
M  V30 56 1 53 27
M  V30 57 1 54 28
M  V30 58 1 55 28
M  V30 END BOND
M  V30 END CTAB
M  END
>  <i_epik_Tot_Q>  (1) 
0

>  <i_epik_Tot_abs_Q>  (1) 
0

>  <i_i_glide_confnum>  (1) 
634

>  <i_i_glide_lignum>  (1) 
89

>  <i_i_glide_posenum>  (1) 
351

>  <i_i_glide_rotatable_bonds>  (1) 
9

>  <i_lp_mmshare_version>  (1) 
72125

>  <i_m_source_file_index>  (1) 
36

>  <i_f3d_flags>  (1) 
0

>  <num_sample>  (1) 
50

>  <b_lp_Chiralities_Consistent>  (1) 
1

>  <r_epik_Charging_Adjusted_Penalty>  (1) 
0

>  <r_epik_Ionization_Penalty>  (1) 
1.4539570635880344e-05

>  <r_epik_Ionization_Penalty_Charging>  (1) 
0

>  <r_epik_Ionization_Penalty_Neutral>  (1) 
1.4539570635880344e-05

>  <r_epik_State_Penalty>  (1) 
-0

>  <r_glide_ring_energy>  (1) 
0.0026967274923194477

>  <r_i_docking_score>  (1) 
-2.2839677714657247

>  <r_i_glide_ecoul>  (1) 
-0.56088591762046058

>  <r_i_glide_eff_state_penalty>  (1) 
-0

>  <r_i_glide_einternal>  (1) 
8.3868824358587837

>  <r_i_glide_emodel>  (1) 
-23.230834180428097

>  <r_i_glide_emodel_strain>  (1) 
0.015531642551081859

>  <r_i_glide_energy>  (1) 
-24.64972387078571

>  <r_i_glide_erotb>  (1) 
0.81694813045343473

>  <r_i_glide_esite>  (1) 
0

>  <r_i_glide_evdw>  (1) 
-24.08883795316525

>  <r_i_glide_gscore>  (1) 
-2.2839677714657247

>  <r_i_glide_gscore_strain>  (1) 
0

>  <r_i_glide_hbond>  (1) 
0

>  <r_i_glide_ligand_efficiency>  (1) 
-0.081570277552347317

>  <r_i_glide_ligand_efficiency_ln>  (1) 
-0.52720682186200762

>  <r_i_glide_ligand_efficiency_sa>  (1) 
-0.24769540524829478

>  <r_i_glide_lipo>  (1) 
-0.75762006198900422

>  <r_i_glide_metal>  (1) 
-0

>  <r_i_glide_rewards>  (1) 
-1.0547210546288239

>  <r_lp_Energy>  (1) 
34.744050999999999

>  <r_lp_tautomer_probability>  (1) 
1

>  <s_epik_Chemistry_Notes>  (1) 
This compound has an ester and may undergo hydrolysis at high or low pH.

>  <s_epik_cmdline>  (1) 
J2VwaWtfcHl0aG9uJywgJy1waHQnLCAnMS4wJywgJy1waCcsICc3LjQnLCAnLXRuJywgJzgnLCAnLW1hJywgJzUwMCcsICctaW1hZScsICc8aW5maWxlLm1hZT4nLCAnLW9tYWUnLCAnPG91dGZpbGUubWFlPic=

>  <s_epik_input>  (1) 
W0NIMl0xW0NIMl1bQ0gyXVtDSDJdQzEoW0NIM10pW0NAQEhdKENsKUMoPU8pQyg9TylbQ0gyXVtDQEhdKFtPSF0pL1tDSF09W0NIXVxbQ0BASF0yW0NAXTMoW09IXSlPQyg9TylbQ0gyXVtDQEBIXShDMjM0KVtDQEBIXTRbQ0gzXQ==

>  <s_glide_docking_method>  (1) 
confgen

>  <s_i_glide_gridfile>  (1) 
gpcr_drd2_6luq_protein_autoprepared_prepared

>  <s_lp_Force_Field>  (1) 
S-OPLS

>  <s_lp_Variant>  (1) 
DiffSBDD_35_num_sample_50-1

>  <s_m_source_file>  (1) 
generated__ligand_DiffSBDD_2026-05-06_prepared.sdf

>  <GenAI_Model>  (1) 
DiffSBDD

>  <Protein>  (1) 
generic_title2

$$$$
DiffSBDD_10_num_sample_50
     RDKit          3D

  0  0  0  0  0  0  0  0  0  0999 V3000
M  V30 BEGIN CTAB
M  V30 COUNTS 73 74 0 0 1
M  V30 BEGIN ATOM
M  V30 1 C 5.964541 7.116133 -21.131315 0 CFG=2
M  V30 2 C 9.335585 6.936785 -12.269630 0
M  V30 3 C 8.166142 2.813869 -13.159401 0
M  V30 4 C 7.035045 3.627321 -16.413554 0 CFG=1
M  V30 5 C 5.497632 6.565113 -19.773633 0 CFG=2
M  V30 6 N 6.920963 7.064683 -12.291626 0
M  V30 7 N 6.898989 3.496342 -18.795925 0
M  V30 8 C 6.220562 4.698456 -18.437026 0 CFG=1
M  V30 9 S 5.306964 8.803081 -21.637919 0
M  V30 10 C 9.569548 8.185528 -11.472318 0
M  V30 11 S 4.742847 8.317023 -23.613237 0 CHG=-1
M  V30 12 C 8.527226 7.462102 -21.100376 0
M  V30 13 O 10.759593 7.547049 -7.372322 0
M  V30 14 O 4.069320 9.159583 -20.929332 0
M  V30 15 C 4.833114 6.108082 -21.060652 0 CFG=2
M  V30 16 C 8.373293 4.262723 -11.040078 0
M  V30 17 C 6.927165 2.650606 -17.616353 0 CFG=1
M  V30 18 N 10.605088 8.732619 -9.228042 0 CHG=1
M  V30 19 N 7.992697 5.253815 -13.265832 0
M  V30 20 C 10.680557 7.888857 -10.436517 0
M  V30 21 C 7.524088 6.169132 -16.837918 0
M  V30 22 C 7.319563 6.782630 -21.764318 0
M  V30 23 C 4.755842 7.351971 -18.697840 0
M  V30 24 C 8.352913 3.542703 -15.629232 0
M  V30 25 C 8.165683 4.192186 -12.565368 0
M  V30 26 O 5.130469 4.767901 -21.409522 0
M  V30 27 C 8.122807 6.458371 -12.596845 0
M  V30 28 O 6.411516 9.769340 -21.720059 0
M  V30 29 F 7.907358 1.753416 -17.713178 0
M  V30 30 N 7.118783 4.613853 -10.338125 0 CHG=1
M  V30 31 C 9.767748 8.182331 -8.146574 0
M  V30 32 C 6.570119 5.005384 -16.965563 0 CFG=2
M  V30 33 O 6.569724 5.761425 -19.268450 0
M  V30 34 C 8.234720 2.530304 -14.488510 0
M  V30 35 H 10.219522 6.389968 -12.573173 0
M  V30 36 H 8.112338 2.008813 -12.442249 0
M  V30 37 H 6.305168 3.323561 -15.658311 0
M  V30 38 H 6.877042 7.925666 -11.757726 0
M  V30 39 H 6.483312 3.039401 -19.595592 0
M  V30 40 H 5.152254 4.508458 -18.544717 0
M  V30 41 H 8.649804 8.498711 -10.977873 0
M  V30 42 H 9.834250 8.968849 -12.174089 0
M  V30 43 H 9.452662 7.125186 -21.567665 0
M  V30 44 H 8.497092 8.545080 -21.194900 0
M  V30 45 H 8.589327 7.218857 -20.040037 0
M  V30 46 H 10.347405 6.878601 -6.842946 0
M  V30 47 H 3.834918 6.428910 -21.340257 0
M  V30 48 H 8.854058 3.369315 -10.691830 0
M  V30 49 H 9.128161 4.990567 -10.760318 0
M  V30 50 H 5.995459 2.087347 -17.564445 0
M  V30 51 H 10.256636 9.642649 -9.488369 0
M  V30 52 H 11.657688 8.032056 -10.897627 0
M  V30 53 H 10.653647 6.844368 -10.122748 0
M  V30 54 H 8.445419 6.002641 -17.398093 0
M  V30 55 H 7.034832 7.069080 -17.207852 0
M  V30 56 H 7.762104 6.351586 -15.790309 0
M  V30 57 H 7.479278 5.705812 -21.727776 0
M  V30 58 H 7.285193 7.044110 -22.821774 0
M  V30 59 H 3.818868 7.755809 -19.066259 0
M  V30 60 H 4.490591 6.717446 -17.855875 0
M  V30 61 H 5.372810 8.172793 -18.335109 0
M  V30 62 H 8.776088 4.492918 -15.341214 0
M  V30 63 H 9.136847 3.177852 -16.292358 0
M  V30 64 H 5.344138 4.753395 -22.331612 0
M  V30 65 H 7.262985 4.682448 -9.341062 0
M  V30 66 H 6.817226 5.521466 -10.676311 0
M  V30 67 H 9.034723 7.466084 -8.511767 0
M  V30 68 H 9.268258 8.966530 -7.576709 0
M  V30 69 H 5.667443 5.369238 -16.467326 0
M  V30 70 H 8.214883 1.493912 -14.792376 0
M  V30 71 H 6.038422 6.690814 -12.610084 0
M  V30 72 H 11.531374 8.838451 -8.841322 0
M  V30 73 H 6.398705 3.933471 -10.528520 0
M  V30 END ATOM
M  V30 BEGIN BOND
M  V30 1 1 5 1
M  V30 2 1 8 7
M  V30 3 1 9 1
M  V30 4 1 10 2
M  V30 5 1 11 9
M  V30 6 2 14 9
M  V30 7 1 15 1
M  V30 8 1 15 5
M  V30 9 1 17 4
M  V30 10 1 17 7
M  V30 11 1 20 10
M  V30 12 1 20 18
M  V30 13 1 1 22 CFG=3
M  V30 14 1 22 12
M  V30 15 1 23 5
M  V30 16 1 24 4
M  V30 17 1 25 3
M  V30 18 1 25 16
M  V30 19 2 25 19
M  V30 20 1 26 15
M  V30 21 2 27 2
M  V30 22 1 27 6
M  V30 23 1 27 19
M  V30 24 2 28 9
M  V30 25 1 29 17
M  V30 26 1 30 16
M  V30 27 1 31 13
M  V30 28 1 31 18
M  V30 29 1 32 4
M  V30 30 1 32 8
M  V30 31 1 32 21
M  V30 32 1 5 33 CFG=1
M  V30 33 1 33 8
M  V30 34 2 34 3
M  V30 35 1 34 24
M  V30 36 1 35 2
M  V30 37 1 36 3
M  V30 38 1 4 37 CFG=1
M  V30 39 1 38 6
M  V30 40 1 39 7
M  V30 41 1 8 40 CFG=1
M  V30 42 1 41 10
M  V30 43 1 42 10
M  V30 44 1 43 12
M  V30 45 1 44 12
M  V30 46 1 45 12
M  V30 47 1 46 13
M  V30 48 1 15 47 CFG=1
M  V30 49 1 48 16
M  V30 50 1 49 16
M  V30 51 1 17 50 CFG=1
M  V30 52 1 51 18
M  V30 53 1 52 20
M  V30 54 1 53 20
M  V30 55 1 54 21
M  V30 56 1 55 21
M  V30 57 1 56 21
M  V30 58 1 57 22
M  V30 59 1 58 22
M  V30 60 1 59 23
M  V30 61 1 60 23
M  V30 62 1 61 23
M  V30 63 1 62 24
M  V30 64 1 63 24
M  V30 65 1 64 26
M  V30 66 1 65 30
M  V30 67 1 66 30
M  V30 68 1 67 31
M  V30 69 1 68 31
M  V30 70 1 32 69 CFG=1
M  V30 71 1 70 34
M  V30 72 1 71 6
M  V30 73 1 72 18
M  V30 74 1 73 30
M  V30 END BOND
M  V30 END CTAB
M  END
>  <i_epik_Tot_Q>  (1) 
1

>  <i_epik_Tot_abs_Q>  (1) 
3

>  <i_i_glide_confnum>  (1) 
4539

>  <i_i_glide_lignum>  (1) 
31

>  <i_i_glide_posenum>  (1) 
181

>  <i_i_glide_rotatable_bonds>  (1) 
15

>  <i_lp_mmshare_version>  (1) 
72125

>  <i_m_source_file_index>  (1) 
11

>  <i_f3d_flags>  (1) 
0

>  <num_sample>  (1) 
50

>  <b_lp_Chiralities_Consistent>  (1) 
1

>  <r_epik_Charging_Adjusted_Penalty>  (1) 
2.168687317063887

>  <r_epik_Ionization_Penalty>  (1) 
1.1047352072338965

>  <r_epik_Ionization_Penalty_Charging>  (1) 
1.0999234457570315

>  <r_epik_Ionization_Penalty_Neutral>  (1) 
0.0048117614768649203

>  <r_epik_State_Penalty>  (1) 
1.0687638713068555

>  <r_glide_ring_energy>  (1) 
0

>  <r_i_docking_score>  (1) 
-2.2590504011157693

>  <r_i_glide_ecoul>  (1) 
-7.170839598100101

>  <r_i_glide_eff_state_penalty>  (1) 
1.0687638713068555

>  <r_i_glide_einternal>  (1) 
19.874033914802798

>  <r_i_glide_emodel>  (1) 
-25.96855955728833

>  <r_i_glide_emodel_strain>  (1) 
5.173035960199428

>  <r_i_glide_energy>  (1) 
-28.915819312971131

>  <r_i_glide_erotb>  (1) 
0.82219216958862984

>  <r_i_glide_esite>  (1) 
-0.22060434346427171

>  <r_i_glide_evdw>  (1) 
-21.744979714871029

>  <r_i_glide_gscore>  (1) 
-3.3278142724226245

>  <r_i_glide_gscore_strain>  (1) 
0.293258990049857

>  <r_i_glide_hbond>  (1) 
-0.020640491381381167

>  <r_i_glide_ligand_efficiency>  (1) 
-0.066442658856346148

>  <r_i_glide_ligand_efficiency_ln>  (1) 
-0.49908759782393564

>  <r_i_glide_ligand_efficiency_sa>  (1) 
-0.21524842173927292

>  <r_i_glide_lipo>  (1) 
-1.1103466123549695

>  <r_i_glide_metal>  (1) 
-0

>  <r_i_glide_rewards>  (1) 
-0.92879905940192287

>  <r_lp_Energy>  (1) 
32.715631999999999

>  <s_epik_Chemistry_Notes>  (1) 
This compound has an imine and may undergo hydrolysis. This compound contains an acetal/aminal-like group ( X-CH(R)-Y where X, Y are N, S, or O) that may be acid/base labile, releasing an aldehyde.

>  <s_epik_cmdline>  (1) 
J2VwaWtfcHl0aG9uJywgJy1waHQnLCAnMS4wJywgJy1waCcsICc3LjQnLCAnLXRuJywgJzgnLCAnLW1hJywgJzUwMCcsICctaW1hZScsICc8aW5maWxlLm1hZT4nLCAnLW9tYWUnLCAnPG91dGZpbGUubWFlPic=

>  <s_epik_input>  (1) 
W1NIXVMoPU8pKD1PKVtDQEBdMShbQ0gyXVtDSDNdKVtDQEBdKFtDSDNdKShbQ0BASF0xW09IXSlPW0NASF0oW0NAQEhdMltDSDNdKVtOSF1bQ0BASF0oRilbQ0BIXTJbQ0gyXS9bQ0hdPVtDSF1cQyhbQ0gyXVtOSDJdKT1OXEMoPU5cW0hdKVxbQ0gyXVtDSDJdW0NIMl1bTkhdW0NIMl1bT0hd

>  <s_glide_docking_method>  (1) 
confgen

>  <s_i_glide_gridfile>  (1) 
gpcr_drd2_6luq_protein_autoprepared_prepared

>  <s_lp_Force_Field>  (1) 
S-OPLS

>  <s_lp_Variant>  (1) 
DiffSBDD_10_num_sample_50-11

>  <s_m_source_file>  (1) 
generated__ligand_DiffSBDD_2026-05-06_prepared.sdf

>  <GenAI_Model>  (1) 
DiffSBDD

>  <Protein>  (1) 
generic_title2

$$$$
DiffSBDD_41_num_sample_50
     RDKit          3D

  0  0  0  0  0  0  0  0  0  0999 V3000
M  V30 BEGIN CTAB
M  V30 COUNTS 104 109 0 0 1
M  V30 BEGIN ATOM
M  V30 1 C 5.485772 5.323265 -11.662451 0
M  V30 2 C 8.957783 5.379183 -15.320623 0
M  V30 3 C 9.304368 5.106038 -13.853358 0
M  V30 4 C 8.239283 5.314920 -9.149779 0
M  V30 5 C 6.174535 6.433680 -11.932535 0
M  V30 6 O 10.009774 3.720136 -16.691698 0
M  V30 7 C 9.942609 3.842996 -20.850966 0
M  V30 8 N 7.525835 2.435849 -18.537587 0
M  V30 9 O 4.339579 6.218363 -19.420646 0
M  V30 10 C 7.106799 2.447864 -16.012210 0 CFG=2
M  V30 11 C 9.007598 5.847446 -7.911880 0
M  V30 12 O 7.977081 2.311065 -14.891521 0
M  V30 13 C 8.856951 0.817646 -17.239379 0
M  V30 14 C 6.773186 6.170433 -19.654663 0 CFG=1
M  V30 15 C 5.037797 0.487968 -19.891670 0
M  V30 16 C 6.047002 6.177857 -21.350976 0 CFG=2
M  V30 17 C 7.417703 2.549882 -13.601459 0
M  V30 18 C 6.996965 4.016201 -13.270327 0 CFG=1
M  V30 19 C 7.378823 6.828577 -20.910100 0
M  V30 20 C 5.831996 3.970242 -12.241504 0
M  V30 21 C 3.921646 6.977746 -18.291610 0
M  V30 22 C 11.225392 5.404760 -19.247382 0
M  V30 23 O 8.713957 4.166459 -20.221473 0
M  V30 24 C 5.386089 6.217821 -22.717046 0
M  V30 25 C 10.000796 4.889881 -16.334606 0
M  V30 26 C 6.559979 0.466088 -19.711475 0
M  V30 27 N 7.075645 2.590749 -20.852457 0 CHG=1
M  V30 28 N 10.859903 5.796217 -16.809339 0
M  V30 29 C 11.044691 3.967967 -19.787968 0
M  V30 30 C 7.383534 6.454252 -12.831508 0 CFG=2
M  V30 31 S 7.364871 6.123950 -17.973836 0 CHG=-1
M  V30 32 C 8.119473 5.058827 -12.843643 0 CFG=2
M  V30 33 O 8.184717 7.569264 -12.522126 0
M  V30 34 C 9.609813 7.262187 -8.095046 0
M  V30 35 F 3.378091 5.721725 -23.835324 0
M  V30 36 C 6.391341 1.226332 -16.500977 0
M  V30 37 C 7.069247 1.882733 -19.693085 0
M  V30 38 C 7.556371 3.979841 -20.972342 0 CFG=1
M  V30 39 C 10.229443 7.383477 -9.471244 0
M  V30 40 C 9.911070 6.569322 -10.485891 0
M  V30 41 C 4.048248 5.481458 -22.711207 0
M  V30 42 C 7.624221 1.716007 -17.246549 0 CFG=2
M  V30 43 F 4.234810 4.169331 -22.572988 0
M  V30 44 N 8.979148 5.546538 -10.394694 0
M  V30 45 C 8.749091 4.578772 -11.474592 0
M  V30 46 C 5.456288 6.811123 -20.070774 0 CFG=1
M  V30 47 C 11.856163 5.482968 -17.835189 0
M  V30 48 C 6.431663 4.930152 -20.509685 0 CFG=1
M  V30 49 H 4.634841 5.369401 -11.002515 0
M  V30 50 H 8.639535 6.403331 -15.488908 0
M  V30 51 H 8.069897 4.828844 -15.575442 0
M  V30 52 H 9.834816 4.169294 -13.804908 0
M  V30 53 H 10.037244 5.840664 -13.524382 0
M  V30 54 H 7.256202 5.769282 -9.229149 0
M  V30 55 H 8.042163 4.254925 -9.003602 0
M  V30 56 H 5.875144 7.373730 -11.491733 0
M  V30 57 H 9.913111 2.823608 -21.238009 0
M  V30 58 H 10.131541 4.514581 -21.689844 0
M  V30 59 H 7.867650 3.395005 -18.558861 0
M  V30 60 H 6.636290 3.417042 -16.137908 0
M  V30 61 H 9.828921 5.159012 -7.712600 0
M  V30 62 H 8.365828 5.821445 -7.030530 0
M  V30 63 H 8.635861 -0.145056 -16.778007 0
M  V30 64 H 9.213885 0.630534 -18.253096 0
M  V30 65 H 9.672308 1.279463 -16.691526 0
M  V30 66 H 4.630236 -0.522502 -19.923418 0
M  V30 67 H 4.546499 1.024469 -19.082940 0
M  V30 68 H 4.761557 0.987789 -20.817920 0
M  V30 69 H 8.136034 2.200699 -12.860133 0
M  V30 70 H 6.556612 1.885934 -13.506962 0
M  V30 71 H 6.516040 4.412587 -14.162391 0
M  V30 72 H 7.420659 7.921472 -20.915885 0
M  V30 73 H 8.297486 6.399996 -21.312360 0
M  V30 74 H 6.043449 3.292468 -11.415873 0
M  V30 75 H 4.944592 3.594086 -12.745353 0
M  V30 76 H 3.070787 6.504262 -17.805059 0
M  V30 77 H 4.714368 7.078633 -17.550959 0
M  V30 78 H 3.603525 7.976580 -18.593977 0
M  V30 79 H 11.848288 5.957286 -19.951032 0
M  V30 80 H 10.269864 5.932662 -19.242936 0
M  V30 81 H 5.221450 7.256529 -23.006374 0
M  V30 82 H 6.042894 5.791278 -23.475323 0
M  V30 83 H 7.775576 4.154243 -22.027177 0
M  V30 84 H 7.021294 -0.060979 -20.547103 0
M  V30 85 H 10.799498 6.748943 -16.481975 0
M  V30 86 H 10.804853 3.279562 -18.980291 0
M  V30 87 H 11.992680 3.617062 -20.195912 0
M  V30 88 H 6.994270 6.664402 -13.828132 0
M  V30 89 H 8.411309 7.492642 -11.602068 0
M  V30 90 H 10.372200 7.440551 -7.336568 0
M  V30 91 H 8.852603 8.035558 -7.972806 0
M  V30 92 H 6.475146 0.312713 -15.915719 0
M  V30 93 H 5.434808 1.369366 -16.987767 0
M  V30 94 H 6.827614 -0.100619 -18.822976 0
M  V30 95 H 10.961620 8.163925 -9.613433 0
M  V30 96 H 10.373289 6.657815 -11.457967 0
M  V30 97 H 3.434788 5.820745 -21.880478 0
M  V30 98 H 8.146415 3.771866 -11.067656 0
M  V30 99 H 9.707539 4.090905 -11.652452 0
M  V30 100 H 5.419456 7.905376 -20.078855 0
M  V30 101 H 12.407580 4.574864 -17.586481 0
M  V30 102 H 12.585975 6.292694 -17.816626 0
M  V30 103 H 5.564233 4.378389 -20.139192 0
M  V30 104 H 6.771503 2.106770 -21.685563 0
M  V30 END ATOM
M  V30 BEGIN BOND
M  V30 1 1 3 2
M  V30 2 2 5 1
M  V30 3 1 11 4
M  V30 4 1 12 10
M  V30 5 1 17 12
M  V30 6 1 18 17
M  V30 7 1 19 14
M  V30 8 1 19 16
M  V30 9 1 20 1
M  V30 10 1 20 18
M  V30 11 1 21 9
M  V30 12 1 23 7
M  V30 13 1 16 24 CFG=3
M  V30 14 1 25 2
M  V30 15 2 25 6
M  V30 16 1 26 15
M  V30 17 1 28 25
M  V30 18 1 29 7
M  V30 19 1 29 22
M  V30 20 1 30 5
M  V30 21 1 14 31 CFG=1
M  V30 22 1 32 3
M  V30 23 1 32 18
M  V30 24 1 32 30
M  V30 25 1 33 30
M  V30 26 1 34 11
M  V30 27 1 36 10
M  V30 28 1 37 8
M  V30 29 1 37 26
M  V30 30 2 37 27
M  V30 31 1 38 23
M  V30 32 1 38 27
M  V30 33 1 39 34
M  V30 34 2 40 39
M  V30 35 1 41 24
M  V30 36 1 41 35
M  V30 37 1 42 8
M  V30 38 1 42 10
M  V30 39 1 42 13 CFG=1
M  V30 40 1 42 36
M  V30 41 1 43 41
M  V30 42 1 44 4
M  V30 43 1 44 40
M  V30 44 1 32 45 CFG=1
M  V30 45 1 45 44
M  V30 46 1 46 9
M  V30 47 1 46 14
M  V30 48 1 46 16
M  V30 49 1 47 22
M  V30 50 1 47 28
M  V30 51 1 48 14
M  V30 52 1 48 16
M  V30 53 1 48 38
M  V30 54 1 49 1
M  V30 55 1 50 2
M  V30 56 1 51 2
M  V30 57 1 52 3
M  V30 58 1 53 3
M  V30 59 1 54 4
M  V30 60 1 55 4
M  V30 61 1 56 5
M  V30 62 1 57 7
M  V30 63 1 58 7
M  V30 64 1 59 8
M  V30 65 1 10 60 CFG=3
M  V30 66 1 61 11
M  V30 67 1 62 11
M  V30 68 1 63 13
M  V30 69 1 64 13
M  V30 70 1 65 13
M  V30 71 1 66 15
M  V30 72 1 67 15
M  V30 73 1 68 15
M  V30 74 1 69 17
M  V30 75 1 70 17
M  V30 76 1 18 71 CFG=3
M  V30 77 1 72 19
M  V30 78 1 73 19
M  V30 79 1 74 20
M  V30 80 1 75 20
M  V30 81 1 76 21
M  V30 82 1 77 21
M  V30 83 1 78 21
M  V30 84 1 79 22
M  V30 85 1 80 22
M  V30 86 1 81 24
M  V30 87 1 82 24
M  V30 88 1 38 83 CFG=3
M  V30 89 1 84 26
M  V30 90 1 85 28
M  V30 91 1 86 29
M  V30 92 1 87 29
M  V30 93 1 30 88 CFG=3
M  V30 94 1 89 33
M  V30 95 1 90 34
M  V30 96 1 91 34
M  V30 97 1 92 36
M  V30 98 1 93 36
M  V30 99 1 94 26
M  V30 100 1 95 39
M  V30 101 1 96 40
M  V30 102 1 97 41
M  V30 103 1 98 45
M  V30 104 1 99 45
M  V30 105 1 46 100 CFG=3
M  V30 106 1 101 47
M  V30 107 1 102 47
M  V30 108 1 48 103 CFG=1
M  V30 109 1 104 27
M  V30 END BOND
M  V30 END CTAB
M  END
>  <i_epik_Tot_Q>  (1) 
0

>  <i_epik_Tot_abs_Q>  (1) 
2

>  <i_i_glide_confnum>  (1) 
111

>  <i_i_glide_lignum>  (1) 
103

>  <i_i_glide_posenum>  (1) 
372

>  <i_i_glide_rotatable_bonds>  (1) 
8

>  <i_lp_mmshare_version>  (1) 
72125

>  <i_m_source_file_index>  (1) 
42

>  <i_f3d_flags>  (1) 
0

>  <num_sample>  (1) 
50

>  <b_lp_Chiralities_Consistent>  (1) 
1

>  <r_epik_Charging_Adjusted_Penalty>  (1) 
2.5071679655586419

>  <r_epik_Ionization_Penalty>  (1) 
1.2556275080584867

>  <r_epik_Ionization_Penalty_Charging>  (1) 
1.2536750394976632

>  <r_epik_Ionization_Penalty_Neutral>  (1) 
0.0019524685608233448

>  <r_epik_State_Penalty>  (1) 
1.2534929260609784

>  <r_glide_ring_energy>  (1) 
0

>  <r_i_docking_score>  (1) 
-2.2293293294112235

>  <r_i_glide_ecoul>  (1) 
-2.6015118450869803

>  <r_i_glide_eff_state_penalty>  (1) 
1.2534929260609784

>  <r_i_glide_einternal>  (1) 
11.562085467278393

>  <r_i_glide_emodel>  (1) 
-27.781412319967451

>  <r_i_glide_emodel_strain>  (1) 
8.3763103667694452

>  <r_i_glide_energy>  (1) 
-35.983596387358709

>  <r_i_glide_erotb>  (1) 
0.0044950300395880287

>  <r_i_glide_esite>  (1) 
-0.076367033066058354

>  <r_i_glide_evdw>  (1) 
-33.382084542271727

>  <r_i_glide_gscore>  (1) 
-3.4828222554722021

>  <r_i_glide_gscore_strain>  (1) 
1.0940775916923613

>  <r_i_glide_hbond>  (1) 
0

>  <r_i_glide_ligand_efficiency>  (1) 
-0.046444361029400492

>  <r_i_glide_ligand_efficiency_ln>  (1) 
-0.45765496525788468

>  <r_i_glide_ligand_efficiency_sa>  (1) 
-0.16879000969490832

>  <r_i_glide_lipo>  (1) 
-1.8215379398725347

>  <r_i_glide_metal>  (1) 
-0

>  <r_i_glide_rewards>  (1) 
-0.62415890038892485

>  <r_lp_Energy>  (1) 
119.38507999999999

>  <s_epik_Chemistry_Notes>  (1) 
This compound has an imine and may undergo hydrolysis. This compound contains an acetal/aminal-like group ( X-CH(R)-Y where X, Y are N, S, or O) that may be acid/base labile, releasing an aldehyde.

>  <s_epik_cmdline>  (1) 
J2VwaWtfcHl0aG9uJywgJy1waHQnLCAnMS4wJywgJy1waCcsICc3LjQnLCAnLXRuJywgJzgnLCAnLW1hJywgJzUwMCcsICctaW1hZScsICc8aW5maWxlLm1hZT4nLCAnLW9tYWUnLCAnPG91dGZpbGUubWFlPic=

>  <s_epik_input>  (1) 
W0NIXTE9W0NIXVtDSDJdW0NIMl1bQ0gyXU4xW0NIMl1bQ0BdMjNbQ0BIXShbQ0gyXVtDSF09W0NIXVtDQEhdM1tPSF0pW0NIMl1PW0NASF00W0NAQF0oW0NIM10pKFtDSDJdNClbTkhdW0NASF0oW0NIMl1bQ0gzXSkvTj1DKFtDQEBIXTVbQ0BdKFtDSDJdW0NIXShGKUYpKFtDSDJdW0NAXTU2W1NIXSlbQ0BIXTZPW0NIM10pL09bQ0gyXVtDSDJdW0NIMl1bQ0gyXVtOSF1DKD1PKVtDSDJdW0NIMl0y

>  <s_glide_docking_method>  (1) 
confgen

>  <s_i_glide_gridfile>  (1) 
gpcr_drd2_6luq_protein_autoprepared_prepared

>  <s_lp_Force_Field>  (1) 
S-OPLS

>  <s_lp_Variant>  (1) 
DiffSBDD_41_num_sample_50-3

>  <s_m_source_file>  (1) 
generated__ligand_DiffSBDD_2026-05-06_prepared.sdf

>  <GenAI_Model>  (1) 
DiffSBDD

>  <Protein>  (1) 
generic_title2

$$$$
DiffSBDD_30_num_sample_50
     RDKit          3D

  0  0  0  0  0  0  0  0  0  0999 V3000
M  V30 BEGIN CTAB
M  V30 COUNTS 51 53 0 0 1
M  V30 BEGIN ATOM
M  V30 1 C 7.224173 3.204540 -14.992938 0 CFG=1
M  V30 2 O 5.528168 1.577921 -13.491633 0 CHG=-1
M  V30 3 C 11.885725 1.334038 -21.024466 0
M  V30 4 N 7.275014 1.718655 -14.920457 0
M  V30 5 C 8.861824 3.202228 -16.890829 0
M  V30 6 C 11.156322 0.170265 -19.000445 0
M  V30 7 O 6.560658 -0.237334 -14.082592 0
M  V30 8 C 12.388265 0.476815 -18.387362 0
M  V30 9 C 5.205954 7.620314 -11.491513 0
M  V30 10 C 8.635542 4.751393 -11.775220 0
M  V30 11 C 6.423003 0.996912 -14.138238 0
M  V30 12 C 10.907755 0.598724 -20.327436 0
M  V30 13 C 13.111782 1.641131 -20.405042 0
M  V30 14 F 14.049712 2.350068 -21.076267 0
M  V30 15 O 5.034872 5.188914 -11.132564 0
M  V30 16 C 6.149490 4.272569 -12.992543 0
M  V30 17 C 7.445060 5.122625 -11.122589 0
M  V30 18 O 10.211674 -0.547811 -18.298034 0
M  V30 19 C 7.321864 3.890781 -13.644890 0
M  V30 20 C 8.824239 -0.313992 -18.540920 0
M  V30 21 C 8.411241 1.146722 -18.249038 0
M  V30 22 C 13.363234 1.211928 -19.088075 0
M  V30 23 C 8.098949 3.871196 -16.031274 0
M  V30 24 C 4.864859 6.445126 -10.551621 0
M  V30 25 C 8.327560 1.031970 -15.670481 0
M  V30 26 C 8.955581 1.703643 -16.917198 0 CFG=2
M  V30 27 C 6.200776 4.872372 -11.742583 0
M  V30 28 C 8.575807 4.129163 -13.037907 0
M  V30 29 H 6.234937 3.436278 -15.361989 0
M  V30 30 H 11.694952 1.663399 -22.035034 0
M  V30 31 H 9.459730 3.741683 -17.611946 0
M  V30 32 H 12.582860 0.149894 -17.376611 0
M  V30 33 H 4.963956 8.569321 -11.024988 0
M  V30 34 H 6.264822 7.643598 -11.747640 0
M  V30 35 H 4.646689 7.574863 -12.421939 0
M  V30 36 H 9.590314 4.935012 -11.305560 0
M  V30 37 H 9.971845 0.365608 -20.809750 0
M  V30 38 H 5.191418 4.082624 -13.453118 0
M  V30 39 H 7.484694 5.589688 -10.149618 0
M  V30 40 H 8.272487 -0.987383 -17.885983 0
M  V30 41 H 8.537431 -0.611991 -19.549187 0
M  V30 42 H 7.323686 1.230036 -18.262992 0
M  V30 43 H 8.764999 1.776227 -19.065651 0
M  V30 44 H 14.304163 1.448576 -18.614158 0
M  V30 45 H 8.077583 4.951382 -16.062338 0
M  V30 46 H 3.834901 6.519604 -10.209976 0
M  V30 47 H 5.433358 6.368990 -9.650333 0
M  V30 48 H 9.034859 0.969258 -14.862801 0
M  V30 49 H 8.070667 0.000455 -15.907110 0
M  V30 50 H 10.024043 1.503021 -16.879987 0
M  V30 51 H 9.483095 3.832839 -13.532007 0
M  V30 END ATOM
M  V30 BEGIN BOND
M  V30 1 1 4 1
M  V30 2 2 8 6
M  V30 3 1 11 2
M  V30 4 1 11 4
M  V30 5 2 11 7
M  V30 6 2 12 3
M  V30 7 1 12 6
M  V30 8 1 13 3
M  V30 9 1 14 13
M  V30 10 2 17 10
M  V30 11 1 18 6
M  V30 12 1 19 1
M  V30 13 1 19 16
M  V30 14 1 20 18
M  V30 15 1 21 20
M  V30 16 1 22 8
M  V30 17 2 22 13
M  V30 18 1 23 1
M  V30 19 2 23 5
M  V30 20 1 24 9
M  V30 21 1 24 15
M  V30 22 1 25 4
M  V30 23 1 26 5
M  V30 24 1 26 21
M  V30 25 1 26 25
M  V30 26 1 27 15
M  V30 27 2 27 16
M  V30 28 1 27 17
M  V30 29 1 28 10
M  V30 30 2 28 19
M  V30 31 1 1 29 CFG=3
M  V30 32 1 30 3
M  V30 33 1 31 5
M  V30 34 1 32 8
M  V30 35 1 33 9
M  V30 36 1 34 9
M  V30 37 1 35 9
M  V30 38 1 36 10
M  V30 39 1 37 12
M  V30 40 1 38 16
M  V30 41 1 39 17
M  V30 42 1 40 20
M  V30 43 1 41 20
M  V30 44 1 42 21
M  V30 45 1 43 21
M  V30 46 1 44 22
M  V30 47 1 45 23
M  V30 48 1 46 24
M  V30 49 1 47 24
M  V30 50 1 48 25
M  V30 51 1 49 25
M  V30 52 1 26 50 CFG=3
M  V30 53 1 51 28
M  V30 END BOND
M  V30 END CTAB
M  END
>  <i_epik_Tot_Q>  (1) 
-1

>  <i_epik_Tot_abs_Q>  (1) 
1

>  <i_i_glide_confnum>  (1) 
430

>  <i_i_glide_lignum>  (1) 
77

>  <i_i_glide_posenum>  (1) 
338

>  <i_i_glide_rotatable_bonds>  (1) 
8

>  <i_lp_mmshare_version>  (1) 
72125

>  <i_m_source_file_index>  (1) 
31

>  <i_f3d_flags>  (1) 
0

>  <num_sample>  (1) 
50

>  <b_lp_Chiralities_Consistent>  (1) 
1

>  <r_epik_Charging_Adjusted_Penalty>  (1) 
0.0017651190196060487

>  <r_epik_Ionization_Penalty>  (1) 
0.001765159031891192

>  <r_epik_Ionization_Penalty_Charging>  (1) 
0.0017651190196060487

>  <r_epik_Ionization_Penalty_Neutral>  (1) 
4.0012285143307813e-08

>  <r_epik_State_Penalty>  (1) 
-0

>  <r_glide_ring_energy>  (1) 
1.1509255290509894

>  <r_i_docking_score>  (1) 
-2.2271477527693313

>  <r_i_glide_ecoul>  (1) 
0.56284777063477964

>  <r_i_glide_eff_state_penalty>  (1) 
-0

>  <r_i_glide_einternal>  (1) 
9.776521104340091

>  <r_i_glide_emodel>  (1) 
-13.447288806721758

>  <r_i_glide_emodel_strain>  (1) 
2.0386770719064486

>  <r_i_glide_energy>  (1) 
-17.0923215178445

>  <r_i_glide_erotb>  (1) 
0.6577867668732289

>  <r_i_glide_esite>  (1) 
0

>  <r_i_glide_evdw>  (1) 
-17.655169288479279

>  <r_i_glide_gscore>  (1) 
-2.2271477527693313

>  <r_i_glide_gscore_strain>  (1) 
0

>  <r_i_glide_hbond>  (1) 
0

>  <r_i_glide_ligand_efficiency>  (1) 
-0.079540991170333267

>  <r_i_glide_ligand_efficiency_ln>  (1) 
-0.51409109323863855

>  <r_i_glide_ligand_efficiency_sa>  (1) 
-0.24153329659989348

>  <r_i_glide_lipo>  (1) 
-1.3643382341710175

>  <r_i_glide_metal>  (1) 
-0

>  <r_i_glide_rewards>  (1) 
-0.72226498664279593

>  <r_lp_Energy>  (1) 
49.407502999999998

>  <r_lp_tautomer_probability>  (1) 
1

>  <s_epik_cmdline>  (1) 
J2VwaWtfcHl0aG9uJywgJy1waHQnLCAnMS4wJywgJy1waCcsICc3LjQnLCAnLXRuJywgJzgnLCAnLW1hJywgJzUwMCcsICctaW1hZScsICc8aW5maWxlLm1hZT4nLCAnLW9tYWUnLCAnPG91dGZpbGUubWFlPic=

>  <s_epik_input>  (1) 
W0NIM11bQ0gyXU9jKFtjSF1bY0hdW2NIXTEpW2NIXWMxW0NAQEhdMk4oQyg9TylbT0hdKVtDSDJdW0NASF0oW0NIXT1bQ0hdMilbQ0gyXVtDSDJdT2MzW2NIXVtjSF1jKEYpW2NIXVtjSF0z

>  <s_glide_docking_method>  (1) 
confgen

>  <s_i_glide_gridfile>  (1) 
gpcr_drd2_6luq_protein_autoprepared_prepared

>  <s_lp_Force_Field>  (1) 
S-OPLS

>  <s_lp_Variant>  (1) 
DiffSBDD_30_num_sample_50-1

>  <s_m_source_file>  (1) 
generated__ligand_DiffSBDD_2026-05-06_prepared.sdf

>  <GenAI_Model>  (1) 
DiffSBDD

>  <Protein>  (1) 
generic_title2

$$$$
DiffSBDD_10_num_sample_50
     RDKit          3D

  0  0  0  0  0  0  0  0  0  0999 V3000
M  V30 BEGIN CTAB
M  V30 COUNTS 71 72 0 0 1
M  V30 BEGIN ATOM
M  V30 1 C 5.905720 7.579218 -21.261919 0 CFG=2
M  V30 2 C 8.307227 4.128402 -11.748437 0
M  V30 3 C 7.825339 2.930778 -14.811263 0
M  V30 4 C 8.405552 3.232318 -18.405802 0 CFG=1
M  V30 5 C 6.209617 6.084870 -21.477246 0 CFG=2
M  V30 6 N 6.089990 4.924368 -12.291618 0
M  V30 7 N 8.335358 4.242238 -20.536922 0
M  V30 8 C 6.997229 4.276259 -20.009832 0 CFG=1
M  V30 9 S 4.891372 8.455854 -22.575355 0
M  V30 10 C 8.836355 5.446929 -11.206950 0
M  V30 11 S 5.767152 10.383215 -22.466900 0 CHG=-1
M  V30 12 C 4.397484 7.774989 -19.182065 0
M  V30 13 O 9.034846 6.658978 -7.119911 0
M  V30 14 O 5.190552 7.924824 -23.911777 0
M  V30 15 C 7.241678 7.138558 -21.834624 0 CFG=2
M  V30 16 C 6.546847 0.765978 -14.212370 0
M  V30 17 C 9.263222 3.956942 -19.454743 0 CFG=1
M  V30 18 N 9.834840 6.569128 -9.267689 0
M  V30 19 N 6.634853 2.704723 -12.704060 0
M  V30 20 C 9.177352 5.345825 -9.712747 0
M  V30 21 C 6.874053 5.180011 -17.610165 0
M  V30 22 C 5.720171 8.153726 -19.858768 0
M  V30 23 C 5.499884 5.186195 -22.481914 0
M  V30 24 C 9.058169 3.135572 -17.009021 0
M  V30 25 C 6.983369 2.187013 -13.825215 0
M  V30 26 O 8.335513 7.141884 -20.937455 0
M  V30 27 C 7.058400 3.945372 -12.228465 0
M  V30 28 O 3.497304 8.593424 -22.130756 0
M  V30 29 F 9.738602 5.112293 -18.989881 0
M  V30 30 N 5.605571 0.169305 -13.277072 0
M  V30 31 C 10.214901 6.488627 -7.868453 0
M  V30 32 C 7.038292 3.927165 -18.505754 0 CFG=2
M  V30 33 O 6.360402 5.509182 -20.173089 0
M  V30 34 C 8.205448 2.399967 -15.991863 0
M  V30 35 H 8.997897 3.295707 -11.735346 0
M  V30 36 H 8.119797 3.930609 -14.530967 0
M  V30 37 H 8.267125 2.211279 -18.766836 0
M  V30 38 H 6.236681 5.838274 -11.883547 0
M  V30 39 H 8.589148 5.125985 -20.966435 0
M  V30 40 H 6.409222 3.518567 -20.528571 0
M  V30 41 H 8.123956 6.257446 -11.364745 0
M  V30 42 H 9.727340 5.700625 -11.782075 0
M  V30 43 H 4.413374 8.061677 -18.131080 0
M  V30 44 H 3.547081 8.278433 -19.638321 0
M  V30 45 H 4.234838 6.698619 -19.223063 0
M  V30 46 H 8.344990 6.969267 -7.698170 0
M  V30 47 H 7.498088 7.326544 -22.875245 0
M  V30 48 H 6.071608 0.781583 -15.193373 0
M  V30 49 H 7.428047 0.126516 -14.279353 0
M  V30 50 H 10.111533 3.362015 -19.794130 0
M  V30 51 H 10.655887 6.724239 -9.832726 0
M  V30 52 H 9.834812 4.493456 -9.535994 0
M  V30 53 H 8.265312 5.177367 -9.137502 0
M  V30 54 H 7.620766 5.941935 -17.831862 0
M  V30 55 H 5.890135 5.630329 -17.737300 0
M  V30 56 H 6.958416 4.935246 -16.553369 0
M  V30 57 H 6.516918 7.769301 -19.225687 0
M  V30 58 H 5.834814 9.236482 -19.890012 0
M  V30 59 H 5.508667 5.607183 -23.482980 0
M  V30 60 H 5.999406 4.221665 -22.557760 0
M  V30 61 H 4.466830 5.021367 -22.175769 0
M  V30 62 H 9.300706 4.129212 -16.630131 0
M  V30 63 H 10.007706 2.605812 -17.091811 0
M  V30 64 H 7.994936 6.929319 -20.078872 0
M  V30 65 H 5.434840 -0.815632 -13.491666 0
M  V30 66 H 6.005985 0.188810 -12.350512 0
M  V30 67 H 10.900721 7.303117 -7.634006 0
M  V30 68 H 10.708438 5.546671 -7.625832 0
M  V30 69 H 6.234804 3.222711 -18.291604 0
M  V30 70 H 7.904108 1.398917 -16.258371 0
M  V30 71 H 5.147569 4.712598 -12.580032 0
M  V30 END ATOM
M  V30 BEGIN BOND
M  V30 1 1 5 1
M  V30 2 1 8 7
M  V30 3 1 9 1
M  V30 4 1 10 2
M  V30 5 1 11 9
M  V30 6 2 14 9
M  V30 7 1 15 1
M  V30 8 1 15 5
M  V30 9 1 17 4
M  V30 10 1 17 7
M  V30 11 1 20 10
M  V30 12 1 20 18
M  V30 13 1 1 22 CFG=1
M  V30 14 1 22 12
M  V30 15 1 23 5
M  V30 16 1 24 4
M  V30 17 1 25 3
M  V30 18 1 25 16
M  V30 19 2 25 19
M  V30 20 1 26 15
M  V30 21 2 27 2
M  V30 22 1 27 6
M  V30 23 1 27 19
M  V30 24 2 28 9
M  V30 25 1 29 17
M  V30 26 1 30 16
M  V30 27 1 31 13
M  V30 28 1 31 18
M  V30 29 1 32 4
M  V30 30 1 32 8
M  V30 31 1 32 21
M  V30 32 1 5 33 CFG=1
M  V30 33 1 33 8
M  V30 34 2 34 3
M  V30 35 1 34 24
M  V30 36 1 35 2
M  V30 37 1 36 3
M  V30 38 1 4 37 CFG=3
M  V30 39 1 38 6
M  V30 40 1 39 7
M  V30 41 1 8 40 CFG=3
M  V30 42 1 41 10
M  V30 43 1 42 10
M  V30 44 1 43 12
M  V30 45 1 44 12
M  V30 46 1 45 12
M  V30 47 1 46 13
M  V30 48 1 15 47 CFG=3
M  V30 49 1 48 16
M  V30 50 1 49 16
M  V30 51 1 17 50 CFG=3
M  V30 52 1 51 18
M  V30 53 1 52 20
M  V30 54 1 53 20
M  V30 55 1 54 21
M  V30 56 1 55 21
M  V30 57 1 56 21
M  V30 58 1 57 22
M  V30 59 1 58 22
M  V30 60 1 59 23
M  V30 61 1 60 23
M  V30 62 1 61 23
M  V30 63 1 62 24
M  V30 64 1 63 24
M  V30 65 1 64 26
M  V30 66 1 65 30
M  V30 67 1 66 30
M  V30 68 1 67 31
M  V30 69 1 68 31
M  V30 70 1 32 69 CFG=3
M  V30 71 1 70 34
M  V30 72 1 71 6
M  V30 END BOND
M  V30 END CTAB
M  END
>  <i_epik_Tot_Q>  (1) 
-1

>  <i_epik_Tot_abs_Q>  (1) 
1

>  <i_i_glide_confnum>  (1) 
3108

>  <i_i_glide_lignum>  (1) 
38

>  <i_i_glide_posenum>  (1) 
238

>  <i_i_glide_rotatable_bonds>  (1) 
15

>  <i_lp_mmshare_version>  (1) 
72125

>  <i_m_source_file_index>  (1) 
11

>  <i_f3d_flags>  (1) 
0

>  <num_sample>  (1) 
50

>  <b_lp_Chiralities_Consistent>  (1) 
1

>  <r_epik_Charging_Adjusted_Penalty>  (1) 
1.239197207418439

>  <r_epik_Ionization_Penalty>  (1) 
1.2496715491914541

>  <r_epik_Ionization_Penalty_Charging>  (1) 
1.1069707349969355e-11

>  <r_epik_Ionization_Penalty_Neutral>  (1) 
1.2496715491803843

>  <r_epik_State_Penalty>  (1) 
1.2391972074073692

>  <r_glide_ring_energy>  (1) 
0

>  <r_i_docking_score>  (1) 
-2.2177657312848122

>  <r_i_glide_ecoul>  (1) 
-4.1984503462526428

>  <r_i_glide_eff_state_penalty>  (1) 
1.2391972074073692

>  <r_i_glide_einternal>  (1) 
6.3219601501349896

>  <r_i_glide_emodel>  (1) 
-40.365946334943978

>  <r_i_glide_emodel_strain>  (1) 
0.080147227722505932

>  <r_i_glide_energy>  (1) 
-36.358799980262148

>  <r_i_glide_erotb>  (1) 
0.82803537691766171

>  <r_i_glide_esite>  (1) 
0

>  <r_i_glide_evdw>  (1) 
-32.160349634009506

>  <r_i_glide_gscore>  (1) 
-3.4569629386921812

>  <r_i_glide_gscore_strain>  (1) 
0

>  <r_i_glide_hbond>  (1) 
-0.25719685552366034

>  <r_i_glide_ligand_efficiency>  (1) 
-0.065228403861318007

>  <r_i_glide_ligand_efficiency_ln>  (1) 
-0.4899666562625124

>  <r_i_glide_ligand_efficiency_sa>  (1) 
-0.21131470692761961

>  <r_i_glide_lipo>  (1) 
-1.2983707880203699

>  <r_i_glide_metal>  (1) 
-0

>  <r_i_glide_rewards>  (1) 
-0.49164563842744097

>  <r_lp_Energy>  (1) 
21.684180999999999

>  <s_epik_Chemistry_Notes>  (1) 
This compound has an imine and may undergo hydrolysis. This compound contains an acetal/aminal-like group ( X-CH(R)-Y where X, Y are N, S, or O) that may be acid/base labile, releasing an aldehyde.

>  <s_epik_cmdline>  (1) 
J2VwaWtfcHl0aG9uJywgJy1waHQnLCAnMS4wJywgJy1waCcsICc3LjQnLCAnLXRuJywgJzgnLCAnLW1hJywgJzUwMCcsICctaW1hZScsICc8aW5maWxlLm1hZT4nLCAnLW9tYWUnLCAnPG91dGZpbGUubWFlPic=

>  <s_epik_input>  (1) 
W1NIXVMoPU8pKD1PKVtDQEBdMShbQ0gyXVtDSDNdKVtDQEBdKFtDSDNdKShbQ0BASF0xW09IXSlPW0NASF0oW0NAQEhdMltDSDNdKVtOSF1bQ0BASF0oRilbQ0BIXTJbQ0gyXVxbQ0hdPVtDSF1cQyhbQ0gyXVtOSDJdKT1OL0MoPU4vW0hdKS9bQ0gyXVtDSDJdW0NIMl1bTkhdW0NIMl1bT0hd

>  <s_glide_docking_method>  (1) 
confgen

>  <s_i_glide_gridfile>  (1) 
gpcr_drd2_6luq_protein_autoprepared_prepared

>  <s_lp_Force_Field>  (1) 
S-OPLS

>  <s_lp_Variant>  (1) 
DiffSBDD_10_num_sample_50-18

>  <s_m_source_file>  (1) 
generated__ligand_DiffSBDD_2026-05-06_prepared.sdf

>  <GenAI_Model>  (1) 
DiffSBDD

>  <Protein>  (1) 
generic_title2

$$$$
DiffSBDD_47_num_sample_50
     RDKit          3D

  0  0  0  0  0  0  0  0  0  0999 V3000
M  V30 BEGIN CTAB
M  V30 COUNTS 61 63 0 0 1
M  V30 BEGIN ATOM
M  V30 1 C 9.863692 6.276938 -9.566577 0
M  V30 2 C 11.166371 4.881265 -16.815197 0
M  V30 3 O 12.822915 3.327964 -17.562919 0
M  V30 4 N 8.476777 5.952066 -13.068210 0
M  V30 5 C 5.514156 6.326669 -17.471795 0
M  V30 6 O 9.834952 5.368895 -13.057992 0
M  V30 7 N 10.771446 8.169320 -10.224313 0
M  V30 8 C 7.182609 5.605663 -15.167210 0
M  V30 9 C 11.514387 3.616053 -17.293264 0
M  V30 10 C 6.755705 4.757573 -18.985146 0
M  V30 11 O 6.577633 4.745061 -13.017522 0
M  V30 12 C 9.151950 2.909684 -17.205362 0
M  V30 13 C 8.799919 4.245322 -16.728215 0
M  V30 14 C 8.234919 5.661228 -7.845086 0
M  V30 15 O 10.912194 1.408438 -17.957045 0
M  V30 16 N 10.543481 7.435126 -9.162283 0
M  V30 17 F 8.671185 0.672039 -16.899640 0
M  V30 18 C 7.683377 5.022718 -13.817245 0 CFG=2
M  V30 19 C 8.098221 1.756622 -17.426633 0
M  V30 20 C 9.480521 5.221943 -8.588718 0
M  V30 21 C 9.829894 5.192884 -16.539711 0
M  V30 22 C 7.903054 1.414566 -18.919105 0
M  V30 23 N 10.235213 7.496204 -11.267802 0
M  V30 24 C 10.529606 2.633905 -17.491610 0
M  V30 25 C 5.889566 3.563757 -13.331814 0
M  V30 26 C 9.673394 6.316457 -10.907214 0
M  V30 27 C 6.836467 5.550070 -17.675357 0
M  V30 28 C 6.760280 1.627165 -16.685745 0
M  V30 29 C 9.037315 5.366812 -11.863958 0 CFG=1
M  V30 30 C 7.335298 4.700458 -16.447677 0 CFG=2
M  V30 31 H 11.931529 5.628180 -16.662051 0
M  V30 32 H 13.404146 4.034864 -17.326437 0
M  V30 33 H 4.699470 5.689876 -17.132892 0
M  V30 34 H 5.188990 6.800249 -18.398761 0
M  V30 35 H 5.623789 7.139636 -16.753584 0
M  V30 36 H 6.137250 5.869633 -15.010662 0
M  V30 37 H 7.672666 6.565279 -15.323777 0
M  V30 38 H 6.043250 3.937103 -18.907506 0
M  V30 39 H 7.732019 4.365079 -19.265000 0
M  V30 40 H 6.435203 5.392773 -19.811153 0
M  V30 41 H 7.887603 4.969278 -7.091815 0
M  V30 42 H 7.434308 5.769260 -8.570516 0
M  V30 43 H 8.391778 6.619076 -7.349700 0
M  V30 44 H 11.852352 1.400445 -18.066454 0
M  V30 45 H 8.246574 4.100279 -13.979107 0
M  V30 46 H 10.295976 5.056374 -7.886849 0
M  V30 47 H 9.311687 4.271207 -9.089646 0
M  V30 48 H 9.587575 6.169316 -16.185049 0
M  V30 49 H 7.384325 2.195897 -19.464096 0
M  V30 50 H 7.313118 0.505443 -19.037556 0
M  V30 51 H 8.848648 1.241592 -19.430330 0
M  V30 52 H 5.085137 3.399483 -12.623885 0
M  V30 53 H 6.537781 2.687158 -13.346594 0
M  V30 54 H 5.434791 3.722935 -14.291645 0
M  V30 55 H 10.273637 7.856705 -12.209113 0
M  V30 56 H 7.583881 6.325201 -17.851887 0
M  V30 57 H 5.972705 2.169220 -17.195521 0
M  V30 58 H 6.831868 1.891909 -15.631470 0
M  V30 59 H 6.408625 0.594261 -16.709576 0
M  V30 60 H 8.753748 4.391067 -11.473557 0
M  V30 61 H 6.640282 3.914191 -16.268355 0
M  V30 END ATOM
M  V30 BEGIN BOND
M  V30 1 1 6 4
M  V30 2 2 9 2
M  V30 3 1 9 3
M  V30 4 1 13 12
M  V30 5 1 16 1
M  V30 6 2 16 7
M  V30 7 1 18 4
M  V30 8 1 18 8
M  V30 9 1 18 11
M  V30 10 1 19 12
M  V30 11 1 19 17
M  V30 12 1 20 1
M  V30 13 1 20 14
M  V30 14 1 21 2
M  V30 15 2 21 13
M  V30 16 1 22 19
M  V30 17 1 23 7
M  V30 18 1 24 9
M  V30 19 2 24 12
M  V30 20 1 24 15
M  V30 21 1 25 11
M  V30 22 2 26 1
M  V30 23 1 26 23
M  V30 24 1 27 5
M  V30 25 1 27 10
M  V30 26 1 28 19
M  V30 27 1 29 4
M  V30 28 1 29 6
M  V30 29 1 29 26
M  V30 30 1 30 8
M  V30 31 1 30 13
M  V30 32 1 30 27
M  V30 33 1 31 2
M  V30 34 1 32 3
M  V30 35 1 33 5
M  V30 36 1 34 5
M  V30 37 1 35 5
M  V30 38 1 36 8
M  V30 39 1 37 8
M  V30 40 1 38 10
M  V30 41 1 39 10
M  V30 42 1 40 10
M  V30 43 1 41 14
M  V30 44 1 42 14
M  V30 45 1 43 14
M  V30 46 1 44 15
M  V30 47 1 18 45 CFG=3
M  V30 48 1 46 20
M  V30 49 1 47 20
M  V30 50 1 48 21
M  V30 51 1 49 22
M  V30 52 1 50 22
M  V30 53 1 51 22
M  V30 54 1 52 25
M  V30 55 1 53 25
M  V30 56 1 54 25
M  V30 57 1 55 23
M  V30 58 1 56 27
M  V30 59 1 57 28
M  V30 60 1 58 28
M  V30 61 1 59 28
M  V30 62 1 29 60 CFG=1
M  V30 63 1 30 61 CFG=1
M  V30 END BOND
M  V30 END CTAB
M  END
>  <i_epik_Tot_Q>  (1) 
0

>  <i_epik_Tot_abs_Q>  (1) 
0

>  <i_i_glide_confnum>  (1) 
74

>  <i_i_glide_lignum>  (1) 
115

>  <i_i_glide_posenum>  (1) 
178

>  <i_i_glide_rotatable_bonds>  (1) 
11

>  <i_lp_mmshare_version>  (1) 
72125

>  <i_m_source_file_index>  (1) 
48

>  <i_f3d_flags>  (1) 
0

>  <num_sample>  (1) 
50

>  <b_lp_Chiralities_Consistent>  (1) 
1

>  <r_epik_Charging_Adjusted_Penalty>  (1) 
0.72670062587857698

>  <r_epik_Ionization_Penalty>  (1) 
0.0032694115883081043

>  <r_epik_Ionization_Penalty_Charging>  (1) 
0

>  <r_epik_Ionization_Penalty_Neutral>  (1) 
0.0032694115883081043

>  <r_epik_State_Penalty>  (1) 
0.72670062587857698

>  <r_glide_ring_energy>  (1) 
0

>  <r_i_docking_score>  (1) 
-2.2141109752658834

>  <r_i_glide_ecoul>  (1) 
0.89646167260872867

>  <r_i_glide_eff_state_penalty>  (1) 
0.72670062587857698

>  <r_i_glide_einternal>  (1) 
29.702487478374373

>  <r_i_glide_emodel>  (1) 
-15.182343519438689

>  <r_i_glide_emodel_strain>  (1) 
0.5146879865821532

>  <r_i_glide_energy>  (1) 
-23.363568743564606

>  <r_i_glide_erotb>  (1) 
0.55490112727109764

>  <r_i_glide_esite>  (1) 
-0.072502229323158779

>  <r_i_glide_evdw>  (1) 
-24.260030416173336

>  <r_i_glide_gscore>  (1) 
-2.9408116011444605

>  <r_i_glide_gscore_strain>  (1) 
0

>  <r_i_glide_hbond>  (1) 
0

>  <r_i_glide_ligand_efficiency>  (1) 
-0.073803699175529452

>  <r_i_glide_ligand_efficiency_ln>  (1) 
-0.50307013825171876

>  <r_i_glide_ligand_efficiency_sa>  (1) 
-0.22932525313784513

>  <r_i_glide_lipo>  (1) 
-1.2934814220782209

>  <r_i_glide_metal>  (1) 
-0

>  <r_i_glide_rewards>  (1) 
-1.0511968070968212

>  <r_lp_Energy>  (1) 
27.508982

>  <r_lp_tautomer_probability>  (1) 
0.17382617382613486

>  <s_epik_Chemistry_Notes>  (1) 
This compound contains an acetal/aminal-like group ( X-CH(R)-Y where X, Y are N, S, or O) that may be acid/base labile, releasing an aldehyde. This compound has a N-S or N-O group and may undergo hydrolysis at high or low pH.

>  <s_epik_cmdline>  (1) 
J2VwaWtfcHl0aG9uJywgJy1waHQnLCAnMS4wJywgJy1waCcsICc3LjQnLCAnLXRuJywgJzgnLCAnLW1hJywgJzUwMCcsICctaW1hZScsICc8aW5maWxlLm1hZT4nLCAnLW9tYWUnLCAnPG91dGZpbGUubWFlPic=

>  <s_epik_input>  (1) 
W0NIM11bQ0gyXUMxPU5OPU5bQ0BIXTFbQ0BASF0yT04yW0NAQEhdKE9bQ0gzXSlbQ0gyXVtDQEBIXShbQ0hdKFtDSDNdKVtDSDNdKUMoQyhDKEYpKFtDSDNdKVtDSDNdKT1DM1tPSF0pPVtDSF1bQ0gyXUMzPU8=

>  <s_glide_docking_method>  (1) 
confgen

>  <s_i_glide_gridfile>  (1) 
gpcr_drd2_6luq_protein_autoprepared_prepared

>  <s_lp_Force_Field>  (1) 
S-OPLS

>  <s_lp_Variant>  (1) 
DiffSBDD_47_num_sample_50-2

>  <s_m_source_file>  (1) 
generated__ligand_DiffSBDD_2026-05-06_prepared.sdf

>  <GenAI_Model>  (1) 
DiffSBDD

>  <Protein>  (1) 
generic_title2

$$$$
DiffSBDD_10_num_sample_50
     RDKit          3D

  0  0  0  0  0  0  0  0  0  0999 V3000
M  V30 BEGIN CTAB
M  V30 COUNTS 73 74 0 0 1
M  V30 BEGIN ATOM
M  V30 1 C 7.143121 7.122704 -20.723389 0 CFG=2
M  V30 2 C 9.034884 5.420875 -10.155918 0
M  V30 3 C 6.545028 4.655768 -12.114871 0
M  V30 4 C 5.901550 5.980659 -15.162923 0 CFG=1
M  V30 5 C 5.971950 7.222534 -19.720669 0 CFG=2
M  V30 6 N 9.104196 7.109664 -11.885112 0
M  V30 7 N 6.669383 5.053562 -17.245652 0
M  V30 8 C 5.847562 6.168566 -17.565240 0 CFG=1
M  V30 9 S 7.165120 8.417705 -22.085657 0
M  V30 10 C 9.119026 6.372233 -8.980358 0
M  V30 11 S 6.860436 7.166220 -23.764831 0 CHG=-1
M  V30 12 C 9.318851 5.954742 -21.473013 0
M  V30 13 O 10.656907 8.961306 -5.887213 0
M  V30 14 O 6.015066 9.328489 -22.005302 0
M  V30 15 C 5.976982 6.159290 -20.802865 0 CFG=2
M  V30 16 C 7.840961 2.902714 -13.410619 0
M  V30 17 C 6.930717 5.047932 -15.825696 0 CFG=1
M  V30 18 N 10.325157 7.029564 -6.906728 0 CHG=1
M  V30 19 N 8.929159 4.868546 -12.479843 0
M  V30 20 C 10.382364 6.208601 -8.135505 0
M  V30 21 C 5.966810 8.365965 -16.182808 0
M  V30 22 C 8.551888 6.653673 -20.342402 0
M  V30 23 C 4.861346 8.254942 -19.657861 0
M  V30 24 C 6.325756 6.582020 -13.789243 0
M  V30 25 C 7.847442 4.205035 -12.655303 0
M  V30 26 O 6.149108 4.865879 -20.260176 0
M  V30 27 C 9.025116 5.804547 -11.451171 0
M  V30 28 O 8.523467 8.969787 -22.187161 0
M  V30 29 F 8.190441 5.437705 -15.637959 0
M  V30 30 N 8.634851 1.915426 -12.691836 0 CHG=1
M  V30 31 C 10.229808 8.482065 -7.140592 0
M  V30 32 C 5.440403 6.929547 -16.280256 0 CFG=2
M  V30 33 O 6.553145 6.969387 -18.441085 0
M  V30 34 C 5.877067 5.721685 -12.606311 0
M  V30 35 H 8.974041 4.369763 -9.913904 0
M  V30 36 H 6.144361 4.073690 -11.296991 0
M  V30 37 H 5.033630 5.368910 -14.956103 0
M  V30 38 H 9.004304 7.876401 -11.235037 0
M  V30 39 H 7.566791 5.122365 -17.705342 0
M  V30 40 H 4.949195 5.791343 -18.056091 0
M  V30 41 H 8.248397 6.169216 -8.357575 0
M  V30 42 H 9.036395 7.401726 -9.323193 0
M  V30 43 H 10.271612 5.567993 -21.112291 0
M  V30 44 H 8.749480 5.116296 -21.871281 0
M  V30 45 H 9.536996 6.632402 -22.297286 0
M  V30 46 H 11.051659 9.811658 -6.005110 0
M  V30 47 H 5.257378 6.218680 -21.616543 0
M  V30 48 H 6.821618 2.536903 -13.543411 0
M  V30 49 H 8.285452 3.035290 -14.395775 0
M  V30 50 H 6.818280 4.027221 -15.476258 0
M  V30 51 H 11.162620 6.862624 -6.368885 0
M  V30 52 H 11.263097 6.489891 -8.714862 0
M  V30 53 H 10.500553 5.163926 -7.851154 0
M  V30 54 H 7.007168 8.421338 -15.865044 0
M  V30 55 H 5.834437 8.927887 -17.091862 0
M  V30 56 H 5.359672 8.919527 -15.480368 0
M  V30 57 H 9.119706 7.512515 -19.992935 0
M  V30 58 H 8.502348 5.965844 -19.501344 0
M  V30 59 H 4.282868 8.264221 -20.580645 0
M  V30 60 H 4.169229 8.030462 -18.847387 0
M  V30 61 H 5.280938 9.248147 -19.492352 0
M  V30 62 H 5.824518 7.535920 -13.633974 0
M  V30 63 H 7.388145 6.808079 -13.775332 0
M  V30 64 H 6.436235 4.970787 -19.363908 0
M  V30 65 H 8.617158 1.033945 -13.181397 0
M  V30 66 H 9.590157 2.242980 -12.633769 0
M  V30 67 H 9.212108 8.800579 -7.370984 0
M  V30 68 H 10.911122 8.812641 -7.925373 0
M  V30 69 H 4.351946 6.991876 -16.292050 0
M  V30 70 H 4.946361 5.999544 -12.150915 0
M  V30 71 H 8.974888 7.340189 -12.859281 0
M  V30 72 H 9.529436 6.746236 -6.351080 0
M  V30 73 H 8.315779 1.777027 -11.744192 0
M  V30 END ATOM
M  V30 BEGIN BOND
M  V30 1 1 5 1
M  V30 2 1 8 7
M  V30 3 1 9 1
M  V30 4 1 10 2
M  V30 5 1 11 9
M  V30 6 2 14 9
M  V30 7 1 15 1
M  V30 8 1 15 5
M  V30 9 1 17 4
M  V30 10 1 17 7
M  V30 11 1 20 10
M  V30 12 1 20 18
M  V30 13 1 1 22 CFG=1
M  V30 14 1 22 12
M  V30 15 1 23 5
M  V30 16 1 24 4
M  V30 17 1 25 3
M  V30 18 1 25 16
M  V30 19 2 25 19
M  V30 20 1 26 15
M  V30 21 2 27 2
M  V30 22 1 27 6
M  V30 23 1 27 19
M  V30 24 2 28 9
M  V30 25 1 29 17
M  V30 26 1 30 16
M  V30 27 1 31 13
M  V30 28 1 31 18
M  V30 29 1 32 4
M  V30 30 1 32 8
M  V30 31 1 32 21
M  V30 32 1 5 33 CFG=1
M  V30 33 1 33 8
M  V30 34 2 34 3
M  V30 35 1 34 24
M  V30 36 1 35 2
M  V30 37 1 36 3
M  V30 38 1 4 37 CFG=1
M  V30 39 1 38 6
M  V30 40 1 39 7
M  V30 41 1 8 40 CFG=3
M  V30 42 1 41 10
M  V30 43 1 42 10
M  V30 44 1 43 12
M  V30 45 1 44 12
M  V30 46 1 45 12
M  V30 47 1 46 13
M  V30 48 1 15 47 CFG=3
M  V30 49 1 48 16
M  V30 50 1 49 16
M  V30 51 1 17 50 CFG=1
M  V30 52 1 51 18
M  V30 53 1 52 20
M  V30 54 1 53 20
M  V30 55 1 54 21
M  V30 56 1 55 21
M  V30 57 1 56 21
M  V30 58 1 57 22
M  V30 59 1 58 22
M  V30 60 1 59 23
M  V30 61 1 60 23
M  V30 62 1 61 23
M  V30 63 1 62 24
M  V30 64 1 63 24
M  V30 65 1 64 26
M  V30 66 1 65 30
M  V30 67 1 66 30
M  V30 68 1 67 31
M  V30 69 1 68 31
M  V30 70 1 32 69 CFG=3
M  V30 71 1 70 34
M  V30 72 1 71 6
M  V30 73 1 72 18
M  V30 74 1 73 30
M  V30 END BOND
M  V30 END CTAB
M  END
>  <i_epik_Tot_Q>  (1) 
1

>  <i_epik_Tot_abs_Q>  (1) 
3

>  <i_i_glide_confnum>  (1) 
2162

>  <i_i_glide_lignum>  (1) 
29

>  <i_i_glide_posenum>  (1) 
11

>  <i_i_glide_rotatable_bonds>  (1) 
15

>  <i_lp_mmshare_version>  (1) 
72125

>  <i_m_source_file_index>  (1) 
11

>  <i_f3d_flags>  (1) 
0

>  <num_sample>  (1) 
50

>  <b_lp_Chiralities_Consistent>  (1) 
1

>  <r_epik_Charging_Adjusted_Penalty>  (1) 
2.168687317063887

>  <r_epik_Ionization_Penalty>  (1) 
1.1047352072338965

>  <r_epik_Ionization_Penalty_Charging>  (1) 
1.0999234457570315

>  <r_epik_Ionization_Penalty_Neutral>  (1) 
0.0048117614768649203

>  <r_epik_State_Penalty>  (1) 
1.0687638713068555

>  <r_glide_ring_energy>  (1) 
0

>  <r_i_docking_score>  (1) 
-2.2106123955933006

>  <r_i_glide_ecoul>  (1) 
-4.7590941629937555

>  <r_i_glide_eff_state_penalty>  (1) 
1.0687638713068555

>  <r_i_glide_einternal>  (1) 
50.192061644057823

>  <r_i_glide_emodel>  (1) 
-15.163413136007403

>  <r_i_glide_emodel_strain>  (1) 
8.2736390889838276

>  <r_i_glide_energy>  (1) 
-35.874111343011315

>  <r_i_glide_erotb>  (1) 
0.82219216958862984

>  <r_i_glide_esite>  (1) 
-0.043220784488286118

>  <r_i_glide_evdw>  (1) 
-31.115017180017556

>  <r_i_glide_gscore>  (1) 
-3.2793762669001563

>  <r_i_glide_gscore_strain>  (1) 
1.0684097722459569

>  <r_i_glide_hbond>  (1) 
0

>  <r_i_glide_ligand_efficiency>  (1) 
-0.065018011635097073

>  <r_i_glide_ligand_efficiency_ln>  (1) 
-0.48838628376398763

>  <r_i_glide_ligand_efficiency_sa>  (1) 
-0.21063311778865723

>  <r_i_glide_lipo>  (1) 
-1.6383774967385201

>  <r_i_glide_metal>  (1) 
-0

>  <r_i_glide_rewards>  (1) 
-1.2187649440579951

>  <r_lp_Energy>  (1) 
21.645868

>  <s_epik_Chemistry_Notes>  (1) 
This compound has an imine and may undergo hydrolysis. This compound contains an acetal/aminal-like group ( X-CH(R)-Y where X, Y are N, S, or O) that may be acid/base labile, releasing an aldehyde.

>  <s_epik_cmdline>  (1) 
J2VwaWtfcHl0aG9uJywgJy1waHQnLCAnMS4wJywgJy1waCcsICc3LjQnLCAnLXRuJywgJzgnLCAnLW1hJywgJzUwMCcsICctaW1hZScsICc8aW5maWxlLm1hZT4nLCAnLW9tYWUnLCAnPG91dGZpbGUubWFlPic=

>  <s_epik_input>  (1) 
W1NIXVMoPU8pKD1PKVtDQEBdMShbQ0gyXVtDSDNdKVtDQEBdKFtDSDNdKShbQ0BASF0xW09IXSlPW0NASF0oW0NAQEhdMltDSDNdKVtOSF1bQ0BASF0oRilbQ0BIXTJbQ0gyXS9bQ0hdPVtDSF1cQyhbQ0gyXVtOSDJdKT1OL0MoPU4vW0hdKS9bQ0gyXVtDSDJdW0NIMl1bTkhdW0NIMl1bT0hd

>  <s_glide_docking_method>  (1) 
confgen

>  <s_i_glide_gridfile>  (1) 
gpcr_drd2_6luq_protein_autoprepared_prepared

>  <s_lp_Force_Field>  (1) 
S-OPLS

>  <s_lp_Variant>  (1) 
DiffSBDD_10_num_sample_50-9

>  <s_m_source_file>  (1) 
generated__ligand_DiffSBDD_2026-05-06_prepared.sdf

>  <GenAI_Model>  (1) 
DiffSBDD

>  <Protein>  (1) 
generic_title2

$$$$
DiffSBDD_10_num_sample_50
     RDKit          3D

  0  0  0  0  0  0  0  0  0  0999 V3000
M  V30 BEGIN CTAB
M  V30 COUNTS 71 72 0 0 1
M  V30 BEGIN ATOM
M  V30 1 C 6.220854 5.374979 -20.294418 0 CFG=2
M  V30 2 C 9.956726 5.753837 -7.609074 0
M  V30 3 C 9.281911 4.432582 -11.301253 0
M  V30 4 C 8.248862 3.688505 -14.965321 0 CFG=1
M  V30 5 C 7.166529 4.417431 -19.538808 0 CFG=2
M  V30 6 N 10.029602 6.915010 -9.723724 0
M  V30 7 N 9.019838 4.250933 -17.135352 0
M  V30 8 C 7.662397 3.789614 -17.227269 0 CFG=1
M  V30 9 S 5.747142 4.661390 -21.972372 0
M  V30 10 C 11.210586 6.378606 -7.018767 0
M  V30 11 S 4.234777 5.968392 -22.679839 0 CHG=-1
M  V30 12 C 5.094798 7.676102 -19.897543 0
M  V30 13 O 11.834852 10.569286 -5.891683 0
M  V30 14 O 6.895256 4.756733 -22.886872 0
M  V30 15 C 7.700769 5.697505 -20.138794 0 CFG=2
M  V30 16 C 6.693230 4.557982 -10.875804 0
M  V30 17 C 9.326916 4.480951 -15.729284 0 CFG=1
M  V30 18 N 10.730105 8.643734 -6.225483 0
M  V30 19 N 8.310334 5.386551 -9.286222 0
M  V30 20 C 10.951052 7.270165 -5.794317 0
M  V30 21 C 6.235525 5.199825 -15.616357 0
M  V30 22 C 5.104845 6.165243 -19.597468 0
M  V30 23 C 7.631588 3.051842 -20.039462 0
M  V30 24 C 7.980141 3.957627 -13.467643 0
M  V30 25 C 8.116407 4.841144 -10.420190 0
M  V30 26 O 8.067809 6.568936 -19.088287 0
M  V30 27 C 9.471276 6.016967 -8.829046 0
M  V30 28 O 5.101626 3.360001 -21.750532 0
M  V30 29 F 9.197760 5.769283 -15.492234 0
M  V30 30 N 6.041311 5.769211 -11.330377 0
M  V30 31 C 11.104875 9.595024 -5.198193 0
M  V30 32 C 7.024921 3.869899 -15.838264 0 CFG=2
M  V30 33 O 6.875943 4.496366 -18.136917 0
M  V30 34 C 9.220371 4.042631 -12.604751 0
M  V30 35 H 9.434947 5.052416 -6.990294 0
M  V30 36 H 10.234748 4.467815 -10.814950 0
M  V30 37 H 8.528575 2.637085 -15.044056 0
M  V30 38 H 10.747996 7.553810 -9.422957 0
M  V30 39 H 9.167723 5.101904 -17.662316 0
M  V30 40 H 7.680169 2.737813 -17.515072 0
M  V30 41 H 11.792790 6.913315 -7.771068 0
M  V30 42 H 11.835958 5.546526 -6.695405 0
M  V30 43 H 5.077510 7.894493 -20.963105 0
M  V30 44 H 5.976101 8.168444 -19.491745 0
M  V30 45 H 4.221901 8.152141 -19.449499 0
M  V30 46 H 11.481569 11.419179 -5.672745 0
M  V30 47 H 8.383819 5.668004 -20.984757 0
M  V30 48 H 6.560648 3.695871 -11.506412 0
M  V30 49 H 6.145724 4.262354 -9.981619 0
M  V30 50 H 10.352028 4.200144 -15.491594 0
M  V30 51 H 11.312381 8.833388 -7.026371 0
M  V30 52 H 11.834811 7.214745 -5.160460 0
M  V30 53 H 10.117920 6.907083 -5.190648 0
M  V30 54 H 6.872834 6.081467 -15.643159 0
M  V30 55 H 5.460911 5.369360 -16.361000 0
M  V30 56 H 5.715628 5.195259 -14.658496 0
M  V30 57 H 4.154197 5.712362 -19.867377 0
M  V30 58 H 5.170510 6.053210 -18.519847 0
M  V30 59 H 7.834119 3.065587 -21.108171 0
M  V30 60 H 8.562767 2.758377 -19.554011 0
M  V30 61 H 6.871590 2.296446 -19.835032 0
M  V30 62 H 7.373745 3.110680 -13.159190 0
M  V30 63 H 7.438166 4.888985 -13.350582 0
M  V30 64 H 7.491816 6.364671 -18.362172 0
M  V30 65 H 6.196502 6.467915 -10.600914 0
M  V30 66 H 6.525929 6.122382 -12.140620 0
M  V30 67 H 11.727683 9.171878 -4.408255 0
M  V30 68 H 10.234910 10.059640 -4.739776 0
M  V30 69 H 6.377632 3.008147 -15.686513 0
M  V30 70 H 10.139343 3.769663 -13.091673 0
M  V30 71 H 9.498101 7.219315 -10.526626 0
M  V30 END ATOM
M  V30 BEGIN BOND
M  V30 1 1 5 1
M  V30 2 1 8 7
M  V30 3 1 9 1
M  V30 4 1 10 2
M  V30 5 1 11 9
M  V30 6 2 14 9
M  V30 7 1 15 1
M  V30 8 1 15 5
M  V30 9 1 17 4
M  V30 10 1 17 7
M  V30 11 1 20 10
M  V30 12 1 20 18
M  V30 13 1 1 22 CFG=1
M  V30 14 1 22 12
M  V30 15 1 23 5
M  V30 16 1 24 4
M  V30 17 1 25 3
M  V30 18 1 25 16
M  V30 19 2 25 19
M  V30 20 1 26 15
M  V30 21 2 27 2
M  V30 22 1 27 6
M  V30 23 1 27 19
M  V30 24 2 28 9
M  V30 25 1 29 17
M  V30 26 1 30 16
M  V30 27 1 31 13
M  V30 28 1 31 18
M  V30 29 1 32 4
M  V30 30 1 32 8
M  V30 31 1 32 21
M  V30 32 1 5 33 CFG=1
M  V30 33 1 33 8
M  V30 34 2 34 3
M  V30 35 1 34 24
M  V30 36 1 35 2
M  V30 37 1 36 3
M  V30 38 1 4 37 CFG=1
M  V30 39 1 38 6
M  V30 40 1 39 7
M  V30 41 1 8 40 CFG=3
M  V30 42 1 41 10
M  V30 43 1 42 10
M  V30 44 1 43 12
M  V30 45 1 44 12
M  V30 46 1 45 12
M  V30 47 1 46 13
M  V30 48 1 15 47 CFG=3
M  V30 49 1 48 16
M  V30 50 1 49 16
M  V30 51 1 17 50 CFG=1
M  V30 52 1 51 18
M  V30 53 1 52 20
M  V30 54 1 53 20
M  V30 55 1 54 21
M  V30 56 1 55 21
M  V30 57 1 56 21
M  V30 58 1 57 22
M  V30 59 1 58 22
M  V30 60 1 59 23
M  V30 61 1 60 23
M  V30 62 1 61 23
M  V30 63 1 62 24
M  V30 64 1 63 24
M  V30 65 1 64 26
M  V30 66 1 65 30
M  V30 67 1 66 30
M  V30 68 1 67 31
M  V30 69 1 68 31
M  V30 70 1 32 69 CFG=3
M  V30 71 1 70 34
M  V30 72 1 71 6
M  V30 END BOND
M  V30 END CTAB
M  END
>  <i_epik_Tot_Q>  (1) 
-1

>  <i_epik_Tot_abs_Q>  (1) 
1

>  <i_i_glide_confnum>  (1) 
1316

>  <i_i_glide_lignum>  (1) 
37

>  <i_i_glide_posenum>  (1) 
41

>  <i_i_glide_rotatable_bonds>  (1) 
15

>  <i_lp_mmshare_version>  (1) 
72125

>  <i_m_source_file_index>  (1) 
11

>  <i_f3d_flags>  (1) 
0

>  <num_sample>  (1) 
50

>  <b_lp_Chiralities_Consistent>  (1) 
1

>  <r_epik_Charging_Adjusted_Penalty>  (1) 
1.239197207418439

>  <r_epik_Ionization_Penalty>  (1) 
1.2496715491914541

>  <r_epik_Ionization_Penalty_Charging>  (1) 
1.1069707349969355e-11

>  <r_epik_Ionization_Penalty_Neutral>  (1) 
1.2496715491803843

>  <r_epik_State_Penalty>  (1) 
1.2391972074073692

>  <r_glide_ring_energy>  (1) 
0

>  <r_i_docking_score>  (1) 
-2.1476231400475703

>  <r_i_glide_ecoul>  (1) 
-2.3849018923162717

>  <r_i_glide_eff_state_penalty>  (1) 
1.2391972074073692

>  <r_i_glide_einternal>  (1) 
14.748709021651994

>  <r_i_glide_emodel>  (1) 
-23.590737149365772

>  <r_i_glide_emodel_strain>  (1) 
5.5271551883625278

>  <r_i_glide_energy>  (1) 
-29.21702566590837

>  <r_i_glide_erotb>  (1) 
0.82803537691766171

>  <r_i_glide_esite>  (1) 
-0.11555543338983364

>  <r_i_glide_evdw>  (1) 
-26.832123773592098

>  <r_i_glide_gscore>  (1) 
-3.3868203474549397

>  <r_i_glide_gscore_strain>  (1) 
0.38178879709063196

>  <r_i_glide_hbond>  (1) 
-0.16

>  <r_i_glide_ligand_efficiency>  (1) 
-0.063165386471987356

>  <r_i_glide_ligand_efficiency_ln>  (1) 
-0.47447019042516286

>  <r_i_glide_ligand_efficiency_sa>  (1) 
-0.20463133144690338

>  <r_i_glide_lipo>  (1) 
-1.8637986709400014

>  <r_i_glide_metal>  (1) 
-0

>  <r_i_glide_rewards>  (1) 
-0.75794894460635298

>  <r_lp_Energy>  (1) 
27.690203

>  <s_epik_Chemistry_Notes>  (1) 
This compound has an imine and may undergo hydrolysis. This compound contains an acetal/aminal-like group ( X-CH(R)-Y where X, Y are N, S, or O) that may be acid/base labile, releasing an aldehyde.

>  <s_epik_cmdline>  (1) 
J2VwaWtfcHl0aG9uJywgJy1waHQnLCAnMS4wJywgJy1waCcsICc3LjQnLCAnLXRuJywgJzgnLCAnLW1hJywgJzUwMCcsICctaW1hZScsICc8aW5maWxlLm1hZT4nLCAnLW9tYWUnLCAnPG91dGZpbGUubWFlPic=

>  <s_epik_input>  (1) 
W1NIXVMoPU8pKD1PKVtDQEBdMShbQ0gyXVtDSDNdKVtDQEBdKFtDSDNdKShbQ0BASF0xW09IXSlPW0NASF0oW0NAQEhdMltDSDNdKVtOSF1bQ0BASF0oRilbQ0BIXTJbQ0gyXS9bQ0hdPVtDSF1cQyhbQ0gyXVtOSDJdKT1OL0MoPU4vW0hdKS9bQ0gyXVtDSDJdW0NIMl1bTkhdW0NIMl1bT0hd

>  <s_glide_docking_method>  (1) 
confgen

>  <s_i_glide_gridfile>  (1) 
gpcr_drd2_6luq_protein_autoprepared_prepared

>  <s_lp_Force_Field>  (1) 
S-OPLS

>  <s_lp_Variant>  (1) 
DiffSBDD_10_num_sample_50-17

>  <s_m_source_file>  (1) 
generated__ligand_DiffSBDD_2026-05-06_prepared.sdf

>  <GenAI_Model>  (1) 
DiffSBDD

>  <Protein>  (1) 
generic_title2

$$$$
DiffSBDD_10_num_sample_50
     RDKit          3D

  0  0  0  0  0  0  0  0  0  0999 V3000
M  V30 BEGIN CTAB
M  V30 COUNTS 72 73 0 0 1
M  V30 BEGIN ATOM
M  V30 1 C 6.433297 6.841048 -20.329307 0 CFG=2
M  V30 2 C 9.503376 7.035112 -7.674972 0
M  V30 3 C 8.634934 7.471988 -11.482163 0
M  V30 4 C 7.260656 7.039582 -15.022212 0 CFG=1
M  V30 5 C 5.333688 6.713801 -19.259490 0 CFG=2
M  V30 6 N 10.890469 8.144244 -9.316269 0
M  V30 7 N 5.139601 6.898332 -16.095666 0
M  V30 8 C 6.179881 6.689703 -17.043426 0 CFG=1
M  V30 9 S 6.394909 8.397837 -21.404642 0
M  V30 10 C 9.735224 8.026082 -6.566667 0
M  V30 11 S 5.956449 7.515746 -23.278162 0 CHG=-1
M  V30 12 C 8.535330 5.833438 -21.408236 0
M  V30 13 O 12.214433 10.169188 -5.811047 0
M  V30 14 O 5.270634 9.285621 -21.076030 0
M  V30 15 C 5.232642 5.928347 -20.545783 0 CFG=2
M  V30 16 C 9.071064 4.943278 -11.798496 0
M  V30 17 C 5.805272 7.495632 -14.956230 0 CFG=1
M  V30 18 N 11.434827 8.413906 -4.691664 0 CHG=1
M  V30 19 N 9.833537 6.144424 -9.839110 0
M  V30 20 C 11.034096 7.595958 -5.857705 0
M  V30 21 C 7.122969 4.602007 -15.948302 0
M  V30 22 C 7.852406 6.310477 -20.118924 0
M  V30 23 C 4.239108 7.712771 -18.917307 0
M  V30 24 C 7.834703 6.506800 -13.734917 0
M  V30 25 C 9.225223 6.197000 -10.959764 0
M  V30 26 O 5.396820 4.554975 -20.255635 0
M  V30 27 C 10.054685 7.125018 -8.895545 0
M  V30 28 O 7.750300 8.962959 -21.491702 0
M  V30 29 F 5.281219 7.106122 -13.804717 0
M  V30 30 N 9.434837 3.769250 -11.091239 0
M  V30 31 C 11.261542 9.872127 -4.813713 0
M  V30 32 C 7.343590 6.096278 -16.258123 0 CFG=2
M  V30 33 O 5.794269 5.923745 -18.140975 0
M  V30 34 C 8.025430 7.606129 -12.687056 0
M  V30 35 H 8.860169 6.197209 -7.443388 0
M  V30 36 H 8.717279 8.322534 -10.822812 0
M  V30 37 H 7.816226 7.965090 -15.091664 0
M  V30 38 H 11.117814 8.926912 -8.722221 0
M  V30 39 H 4.767347 6.008219 -15.800497 0
M  V30 40 H 6.498144 7.665816 -17.409251 0
M  V30 41 H 8.878873 8.025758 -5.894329 0
M  V30 42 H 9.813307 9.023263 -6.997084 0
M  V30 43 H 9.526088 5.434245 -21.196591 0
M  V30 44 H 7.952630 5.048283 -21.889076 0
M  V30 45 H 8.658770 6.640430 -22.128946 0
M  V30 46 H 12.134181 11.083351 -6.045622 0
M  V30 47 H 4.452343 6.168261 -21.265461 0
M  V30 48 H 8.027709 4.745456 -12.006897 0
M  V30 49 H 9.706300 4.966632 -12.680750 0
M  V30 50 H 5.712238 8.569308 -15.080388 0
M  V30 51 H 12.406657 8.230413 -4.488734 0
M  V30 52 H 11.837527 7.617322 -6.590839 0
M  V30 53 H 10.956430 6.558611 -5.524915 0
M  V30 54 H 6.234859 4.431313 -15.343213 0
M  V30 55 H 7.035165 4.018093 -16.865471 0
M  V30 56 H 7.969844 4.194854 -15.396022 0
M  V30 57 H 8.450599 7.089911 -19.645631 0
M  V30 58 H 7.832726 5.476576 -19.417271 0
M  V30 59 H 3.720602 8.073166 -19.799872 0
M  V30 60 H 3.496461 7.260799 -18.259451 0
M  V30 61 H 4.687099 8.569221 -18.423658 0
M  V30 62 H 8.789767 6.083566 -14.022983 0
M  V30 63 H 7.146438 5.737050 -13.400281 0
M  V30 64 H 5.708485 4.516949 -19.360076 0
M  V30 65 H 8.894038 3.709508 -10.241013 0
M  V30 66 H 9.251446 2.925442 -11.618365 0
M  V30 67 H 11.483007 10.343250 -3.860171 0
M  V30 68 H 10.252040 10.168776 -5.091755 0
M  V30 69 H 8.265690 6.169303 -16.833781 0
M  V30 70 H 7.633020 8.570732 -12.950611 0
M  V30 71 H 11.271172 8.165915 -10.250450 0
M  V30 72 H 10.887194 8.101703 -3.904985 0
M  V30 END ATOM
M  V30 BEGIN BOND
M  V30 1 1 5 1
M  V30 2 1 8 7
M  V30 3 1 9 1
M  V30 4 1 10 2
M  V30 5 1 11 9
M  V30 6 2 14 9
M  V30 7 1 15 1
M  V30 8 1 15 5
M  V30 9 1 17 4
M  V30 10 1 17 7
M  V30 11 1 20 10
M  V30 12 1 20 18
M  V30 13 1 1 22 CFG=1
M  V30 14 1 22 12
M  V30 15 1 23 5
M  V30 16 1 24 4
M  V30 17 1 25 3
M  V30 18 1 25 16
M  V30 19 2 25 19
M  V30 20 1 26 15
M  V30 21 2 27 2
M  V30 22 1 27 6
M  V30 23 1 27 19
M  V30 24 2 28 9
M  V30 25 1 29 17
M  V30 26 1 30 16
M  V30 27 1 31 13
M  V30 28 1 31 18
M  V30 29 1 32 4
M  V30 30 1 32 8
M  V30 31 1 32 21
M  V30 32 1 5 33 CFG=1
M  V30 33 1 33 8
M  V30 34 2 34 3
M  V30 35 1 34 24
M  V30 36 1 35 2
M  V30 37 1 36 3
M  V30 38 1 4 37 CFG=3
M  V30 39 1 38 6
M  V30 40 1 39 7
M  V30 41 1 8 40 CFG=3
M  V30 42 1 41 10
M  V30 43 1 42 10
M  V30 44 1 43 12
M  V30 45 1 44 12
M  V30 46 1 45 12
M  V30 47 1 46 13
M  V30 48 1 15 47 CFG=3
M  V30 49 1 48 16
M  V30 50 1 49 16
M  V30 51 1 17 50 CFG=3
M  V30 52 1 51 18
M  V30 53 1 52 20
M  V30 54 1 53 20
M  V30 55 1 54 21
M  V30 56 1 55 21
M  V30 57 1 56 21
M  V30 58 1 57 22
M  V30 59 1 58 22
M  V30 60 1 59 23
M  V30 61 1 60 23
M  V30 62 1 61 23
M  V30 63 1 62 24
M  V30 64 1 63 24
M  V30 65 1 64 26
M  V30 66 1 65 30
M  V30 67 1 66 30
M  V30 68 1 67 31
M  V30 69 1 68 31
M  V30 70 1 32 69 CFG=3
M  V30 71 1 70 34
M  V30 72 1 71 6
M  V30 73 1 72 18
M  V30 END BOND
M  V30 END CTAB
M  END
>  <i_epik_Tot_Q>  (1) 
0

>  <i_epik_Tot_abs_Q>  (1) 
2

>  <i_i_glide_confnum>  (1) 
261

>  <i_i_glide_lignum>  (1) 
21

>  <i_i_glide_posenum>  (1) 
281

>  <i_i_glide_rotatable_bonds>  (1) 
15

>  <i_lp_mmshare_version>  (1) 
72125

>  <i_m_source_file_index>  (1) 
11

>  <i_f3d_flags>  (1) 
0

>  <num_sample>  (1) 
50

>  <b_lp_Chiralities_Consistent>  (1) 
1

>  <r_epik_Charging_Adjusted_Penalty>  (1) 
0.33639934582642134

>  <r_epik_Ionization_Penalty>  (1) 
0.23315943830934333

>  <r_epik_Ionization_Penalty_Charging>  (1) 
0.10316865490585193

>  <r_epik_Ionization_Penalty_Neutral>  (1) 
0.12999078340349141

>  <r_epik_State_Penalty>  (1) 
0.23323069092056939

>  <r_glide_ring_energy>  (1) 
0

>  <r_i_docking_score>  (1) 
-2.1185183292617911

>  <r_i_glide_ecoul>  (1) 
1.1743110486030235

>  <r_i_glide_eff_state_penalty>  (1) 
0.23323069092056939

>  <r_i_glide_einternal>  (1) 
9.3517010358605397

>  <r_i_glide_emodel>  (1) 
-16.167271669485814

>  <r_i_glide_emodel_strain>  (1) 
6.4340483528852843

>  <r_i_glide_energy>  (1) 
-22.246294782000895

>  <r_i_glide_erotb>  (1) 
0.82510599487301828

>  <r_i_glide_esite>  (1) 
-0.057410624292151304

>  <r_i_glide_evdw>  (1) 
-23.420605830603918

>  <r_i_glide_gscore>  (1) 
-2.3517490201823605

>  <r_i_glide_gscore_strain>  (1) 
0.60851208822132108

>  <r_i_glide_hbond>  (1) 
0

>  <r_i_glide_ligand_efficiency>  (1) 
-0.062309362625346795

>  <r_i_glide_ligand_efficiency_ln>  (1) 
-0.46804012136029371

>  <r_i_glide_ligand_efficiency_sa>  (1) 
-0.20185814649115166

>  <r_i_glide_lipo>  (1) 
-1.5936411089297118

>  <r_i_glide_metal>  (1) 
-0

>  <r_i_glide_rewards>  (1) 
-1.1394317358150943

>  <r_lp_Energy>  (1) 
25.793744999999998

>  <s_epik_Chemistry_Notes>  (1) 
This compound has an imine and may undergo hydrolysis. This compound contains an acetal/aminal-like group ( X-CH(R)-Y where X, Y are N, S, or O) that may be acid/base labile, releasing an aldehyde.

>  <s_epik_cmdline>  (1) 
J2VwaWtfcHl0aG9uJywgJy1waHQnLCAnMS4wJywgJy1waCcsICc3LjQnLCAnLXRuJywgJzgnLCAnLW1hJywgJzUwMCcsICctaW1hZScsICc8aW5maWxlLm1hZT4nLCAnLW9tYWUnLCAnPG91dGZpbGUubWFlPic=

>  <s_epik_input>  (1) 
W1NIXVMoPU8pKD1PKVtDQEBdMShbQ0gyXVtDSDNdKVtDQEBdKFtDSDNdKShbQ0BASF0xW09IXSlPW0NASF0oW0NAQEhdMltDSDNdKVtOSF1bQ0BASF0oRilbQ0BIXTJbQ0gyXS9bQ0hdPVtDSF1cQyhbQ0gyXVtOSDJdKT1OL0MoPU4vW0hdKS9bQ0gyXVtDSDJdW0NIMl1bTkhdW0NIMl1bT0hd

>  <s_glide_docking_method>  (1) 
confgen

>  <s_i_glide_gridfile>  (1) 
gpcr_drd2_6luq_protein_autoprepared_prepared

>  <s_lp_Force_Field>  (1) 
S-OPLS

>  <s_lp_Variant>  (1) 
DiffSBDD_10_num_sample_50-1

>  <s_m_source_file>  (1) 
generated__ligand_DiffSBDD_2026-05-06_prepared.sdf

>  <GenAI_Model>  (1) 
DiffSBDD

>  <Protein>  (1) 
generic_title2

$$$$
DiffSBDD_19_num_sample_50
     RDKit          3D

  0  0  0  0  0  0  0  0  0  0999 V3000
M  V30 BEGIN CTAB
M  V30 COUNTS 77 82 0 0 1
M  V30 BEGIN ATOM
M  V30 1 C 7.530702 5.840254 -12.693668 0 CFG=1
M  V30 2 C 5.282010 -1.306153 -16.939126 0
M  V30 3 O 5.738773 6.168123 -14.307676 0
M  V30 4 C 5.713054 -1.458632 -18.190682 0
M  V30 5 C 7.639578 2.703848 -15.749434 0
M  V30 6 C 8.295090 3.264178 -16.718787 0
M  V30 7 C 10.132406 6.294433 -10.625773 0 CFG=2
M  V30 8 O 4.258000 -3.205810 -18.584915 0 CHG=-1
M  V30 9 C 6.568601 3.617407 -12.320569 0 CFG=1
M  V30 10 C 9.469163 5.010162 -9.990343 0 CFG=1
M  V30 11 O 7.441829 1.423353 -15.709425 0
M  V30 12 O 8.805016 1.109004 -19.662949 0 CHG=-1
M  V30 13 C 6.788144 -0.603927 -18.820032 0
M  V30 14 C 6.004589 5.921124 -12.941913 0 CFG=1
M  V30 15 C 8.073912 7.166417 -12.108510 0
M  V30 16 C 9.283205 8.183174 -6.543814 0
M  V30 17 C 6.887224 0.652512 -16.635519 0
M  V30 18 C 9.568161 4.988769 -8.444982 0
M  V30 19 N 5.147482 -2.494944 -19.043765 0 CHG=1
M  V30 20 C 10.068370 7.189654 -7.416865 0
M  V30 21 C 8.349867 1.401987 -18.533677 0
M  V30 22 C 7.340675 0.539088 -17.935717 0
M  V30 23 C 11.143319 6.600600 -6.466986 0
M  V30 24 O 10.634834 6.117301 -11.935131 0
M  V30 25 C 11.247383 6.969321 -9.712759 0
M  V30 26 O 9.118751 6.172993 -7.778186 0
M  V30 27 C 9.022534 7.261882 -10.872110 0 CFG=2
M  V30 28 C 7.802891 4.504581 -11.965901 0 CFG=2
M  V30 29 C 5.823623 -0.257653 -16.013348 0
M  V30 30 O 7.227799 3.435279 -14.663867 0
M  V30 31 C 9.934561 9.013758 -9.359125 0
M  V30 32 C 5.408565 4.587975 -12.502952 0
M  V30 33 C 9.435319 8.660738 -10.760322 0
M  V30 34 C 8.003114 4.683697 -10.443763 0
M  V30 35 C 10.724206 7.913648 -8.643594 0 CFG=1
M  V30 36 C 6.751731 2.691474 -13.546536 0
M  V30 37 O 5.586740 -2.609076 -20.184506 0
M  V30 38 O 8.971792 3.904042 -12.500876 0
M  V30 39 C 8.806933 2.620741 -17.920622 0
M  V30 40 H 7.999209 5.740194 -13.675318 0
M  V30 41 H 4.512699 -1.950481 -16.545080 0
M  V30 42 H 6.155718 6.981541 -14.548658 0
M  V30 43 H 8.483758 4.322238 -16.622648 0
M  V30 44 H 6.281673 2.969395 -11.494254 0
M  V30 45 H 10.058163 4.158282 -10.305782 0
M  V30 46 H 7.617493 -1.254419 -19.103585 0
M  V30 47 H 6.391127 -0.168273 -19.738052 0
M  V30 48 H 5.520062 6.708362 -12.363765 0
M  V30 49 H 8.570426 7.667743 -12.939367 0
M  V30 50 H 7.235566 7.826921 -11.891185 0
M  V30 51 H 9.865741 9.079817 -6.331312 0
M  V30 52 H 9.035663 7.733599 -5.589612 0
M  V30 53 H 8.336701 8.488679 -6.988143 0
M  V30 54 H 8.955906 4.174318 -8.059116 0
M  V30 55 H 10.579692 4.715921 -8.167651 0
M  V30 56 H 11.752849 7.393073 -6.034653 0
M  V30 57 H 11.834522 5.907394 -6.939504 0
M  V30 58 H 10.677897 6.065707 -5.640021 0
M  V30 59 H 10.126054 5.420851 -12.340321 0
M  V30 60 H 11.820217 6.301900 -9.092870 0
M  V30 61 H 11.964987 7.503619 -10.338229 0
M  V30 62 H 8.634833 7.125681 -9.903787 0
M  V30 63 H 6.247371 -0.747891 -15.136616 0
M  V30 64 H 4.995545 0.361013 -15.667889 0
M  V30 65 H 10.623344 9.843206 -9.491659 0
M  V30 66 H 9.090780 9.368745 -8.776796 0
M  V30 67 H 4.636743 4.210874 -13.175975 0
M  V30 68 H 4.940451 4.736544 -11.529867 0
M  V30 69 H 10.228227 8.751714 -11.491600 0
M  V30 70 H 8.634818 9.349900 -11.039278 0
M  V30 71 H 7.673035 3.778330 -9.951811 0
M  V30 72 H 7.291049 5.414685 -10.058824 0
M  V30 73 H 11.594991 8.423633 -8.228615 0
M  V30 74 H 7.458916 1.902410 -13.284514 0
M  V30 75 H 5.814754 2.197421 -13.798095 0
M  V30 76 H 8.791829 3.690038 -13.406475 0
M  V30 77 H 9.531020 3.196053 -18.478755 0
M  V30 END ATOM
M  V30 BEGIN BOND
M  V30 1 2 4 2
M  V30 2 2 6 5
M  V30 3 1 10 7
M  V30 4 1 11 5
M  V30 5 1 13 4
M  V30 6 1 14 1
M  V30 7 1 14 3
M  V30 8 1 15 1
M  V30 9 1 17 11
M  V30 10 1 18 10
M  V30 11 1 19 4
M  V30 12 1 19 8
M  V30 13 1 20 16
M  V30 14 1 21 12
M  V30 15 1 22 13
M  V30 16 2 22 17
M  V30 17 1 22 21
M  V30 18 1 23 20
M  V30 19 1 7 24 CFG=3
M  V30 20 1 25 7
M  V30 21 1 26 18
M  V30 22 1 26 20
M  V30 23 1 27 7
M  V30 24 1 27 15
M  V30 25 1 28 1
M  V30 26 1 28 9
M  V30 27 1 29 2
M  V30 28 1 29 17
M  V30 29 1 30 5
M  V30 30 1 32 9
M  V30 31 1 32 14
M  V30 32 1 33 27
M  V30 33 1 33 31
M  V30 34 1 34 10
M  V30 35 1 34 28
M  V30 36 1 35 20
M  V30 37 1 35 25
M  V30 38 1 35 31
M  V30 39 1 36 9
M  V30 40 1 36 30
M  V30 41 2 37 19
M  V30 42 1 28 38 CFG=3
M  V30 43 1 39 6
M  V30 44 2 39 21
M  V30 45 1 1 40 CFG=3
M  V30 46 1 41 2
M  V30 47 1 42 3
M  V30 48 1 43 6
M  V30 49 1 9 44 CFG=1
M  V30 50 1 10 45 CFG=3
M  V30 51 1 46 13
M  V30 52 1 47 13
M  V30 53 1 14 48 CFG=1
M  V30 54 1 49 15
M  V30 55 1 50 15
M  V30 56 1 51 16
M  V30 57 1 52 16
M  V30 58 1 53 16
M  V30 59 1 54 18
M  V30 60 1 55 18
M  V30 61 1 56 23
M  V30 62 1 57 23
M  V30 63 1 58 23
M  V30 64 1 59 24
M  V30 65 1 60 25
M  V30 66 1 61 25
M  V30 67 1 27 62 CFG=1
M  V30 68 1 63 29
M  V30 69 1 64 29
M  V30 70 1 65 31
M  V30 71 1 66 31
M  V30 72 1 67 32
M  V30 73 1 68 32
M  V30 74 1 69 33
M  V30 75 1 70 33
M  V30 76 1 71 34
M  V30 77 1 72 34
M  V30 78 1 35 73 CFG=1
M  V30 79 1 74 36
M  V30 80 1 75 36
M  V30 81 1 76 38
M  V30 82 1 77 39
M  V30 END BOND
M  V30 END CTAB
M  END
>  <i_epik_Tot_Q>  (1) 
-1

>  <i_epik_Tot_abs_Q>  (1) 
3

>  <i_i_glide_confnum>  (1) 
7

>  <i_i_glide_lignum>  (1) 
55

>  <i_i_glide_posenum>  (1) 
182

>  <i_i_glide_rotatable_bonds>  (1) 
7

>  <i_lp_mmshare_version>  (1) 
72125

>  <i_m_source_file_index>  (1) 
20

>  <i_f3d_flags>  (1) 
0

>  <num_sample>  (1) 
50

>  <b_lp_Chiralities_Consistent>  (1) 
1

>  <r_epik_Charging_Adjusted_Penalty>  (1) 
0.37497455050254402

>  <r_epik_Ionization_Penalty>  (1) 
0.18748815805699803

>  <r_epik_Ionization_Penalty_Charging>  (1) 
0.18748727525127204

>  <r_epik_Ionization_Penalty_Neutral>  (1) 
8.8280572598136269e-07

>  <r_epik_State_Penalty>  (1) 
0.18748727525127201

>  <r_glide_ring_energy>  (1) 
0

>  <r_i_docking_score>  (1) 
-2.0955243911270656

>  <r_i_glide_ecoul>  (1) 
1.5988828802246762

>  <r_i_glide_eff_state_penalty>  (1) 
0.18748727525127201

>  <r_i_glide_einternal>  (1) 
4.456260158659453

>  <r_i_glide_emodel>  (1) 
-9.2973029142059609

>  <r_i_glide_emodel_strain>  (1) 
6.8733676877079688

>  <r_i_glide_energy>  (1) 
-16.148854726662332

>  <r_i_glide_erotb>  (1) 
0.20935287492175977

>  <r_i_glide_esite>  (1) 
-0.012631743256446226

>  <r_i_glide_evdw>  (1) 
-17.747737606887007

>  <r_i_glide_gscore>  (1) 
-2.2830116663783375

>  <r_i_glide_gscore_strain>  (1) 
0.7183419219269922

>  <r_i_glide_hbond>  (1) 
0

>  <r_i_glide_ligand_efficiency>  (1) 
-0.053731394644283732

>  <r_i_glide_ligand_efficiency_ln>  (1) 
-0.44933991445490379

>  <r_i_glide_ligand_efficiency_sa>  (1) 
-0.18221452036680513

>  <r_i_glide_lipo>  (1) 
-1.7048850896733079

>  <r_i_glide_metal>  (1) 
-0

>  <r_i_glide_rewards>  (1) 
-0.84563518198668608

>  <r_lp_Energy>  (1) 
69.26473

>  <s_epik_cmdline>  (1) 
J2VwaWtfcHl0aG9uJywgJy1waHQnLCAnMS4wJywgJy1waCcsICc3LjQnLCAnLXRuJywgJzgnLCAnLW1hJywgJzUwMCcsICctaW1hZScsICc8aW5maWxlLm1hZT4nLCAnLW9tYWUnLCAnPG91dGZpbGUubWFlPic=

>  <s_epik_input>  (1) 
W09IXVtDQEBdMTJbQ0BIXTNbQ0gyXU9DKFtDSDNdKShbQ0gzXSlbQ0BASF0oW0NIMl0xKVtDSDJdW0NIMl1bQ0BIXTJbQ0gyXVtDQEhdNFtDQF0oW0NIMl0zKShbT0hdKVtDQEBIXShbQ0gyXVtDQEBIXTRbT0hdKVtDSDJdT0MoTzUpPVtDSF1bQ0hdPUMoW09IXSlDKD1DNTYpW0NIMl1DKFtOK10oW08tXSk9Tyk9W0NIXVtDSDJdNg==

>  <s_glide_docking_method>  (1) 
confgen

>  <s_i_glide_gridfile>  (1) 
gpcr_drd2_6luq_protein_autoprepared_prepared

>  <s_lp_Force_Field>  (1) 
S-OPLS

>  <s_lp_Variant>  (1) 
DiffSBDD_19_num_sample_50-1

>  <s_m_source_file>  (1) 
generated__ligand_DiffSBDD_2026-05-06_prepared.sdf

>  <GenAI_Model>  (1) 
DiffSBDD

>  <Protein>  (1) 
generic_title2

$$$$
DiffSBDD_24_num_sample_50
     RDKit          3D

  0  0  0  0  0  0  0  0  0  0999 V3000
M  V30 BEGIN CTAB
M  V30 COUNTS 84 90 0 0 1
M  V30 BEGIN ATOM
M  V30 1 N 10.173477 4.349968 -18.554013 0
M  V30 2 C 19.288279 4.917505 -20.304640 0
M  V30 3 O 15.032997 2.154167 -18.637294 0
M  V30 4 C 11.247835 1.308182 -18.986146 0 CFG=2
M  V30 5 C 8.958331 4.769178 -13.871854 0 CFG=1
M  V30 6 C 20.070559 7.412760 -20.578597 0 CFG=2
M  V30 7 C 14.669873 3.376296 -20.635105 0 CFG=2
M  V30 8 C 12.795282 3.121206 -18.955155 0
M  V30 9 N 7.733222 3.990727 -13.698431 0
M  V30 10 N 15.533192 5.810731 -20.908787 0
M  V30 11 C 13.485075 5.429278 -19.702740 0
M  V30 12 C 9.983744 3.387961 -19.667619 0
M  V30 13 C 9.066939 5.273414 -15.319080 0
M  V30 14 C 12.540211 4.456646 -19.009366 0
M  V30 15 C 7.610195 3.787973 -12.259217 0
M  V30 16 C 8.947296 4.708188 -17.810005 0
M  V30 17 C 7.738892 2.789997 -14.535827 0 CFG=2
M  V30 18 O 11.412972 5.984557 -17.550632 0
M  V30 19 C 21.061042 7.428485 -21.727426 0
M  V30 20 F 13.927220 3.400777 -21.745217 0
M  V30 21 C 7.721720 3.273536 -16.011084 0
M  V30 22 C 9.993291 -0.847534 -18.179262 0
M  V30 23 C 7.638525 5.205467 -11.683158 0 CFG=1
M  V30 24 C 14.727985 1.116641 -17.717422 0
M  V30 25 C 8.957054 4.140723 -16.361431 0 CFG=2
M  V30 26 C 9.875969 1.941019 -19.180609 0
M  V30 27 F 22.253273 7.154433 -19.617124 0
M  V30 28 C 20.045239 6.123174 -19.776712 0 CFG=2
M  V30 29 C 11.360590 5.012704 -18.303232 0
M  V30 30 C 11.239712 0.042739 -18.111446 0
M  V30 31 C 14.013930 2.446202 -19.595353 0 CFG=2
M  V30 32 C 14.857835 4.810388 -20.062459 0 CFG=1
M  V30 33 C 6.567234 1.859207 -14.183437 0
M  V30 34 S 8.868875 6.101921 -12.648445 0
M  V30 35 C 16.995321 5.888087 -20.850397 0 CFG=1
M  V30 36 O 11.990838 2.265854 -18.246949 0
M  V30 37 C 21.305242 6.615209 -20.468213 0 CFG=1
M  V30 38 Cl 6.030355 5.952286 -11.894393 0
M  V30 39 C 17.791848 4.948507 -19.945214 0
M  V30 40 C 16.297819 5.356434 -22.069184 0
M  V30 41 H 19.416473 4.844493 -21.385372 0
M  V30 42 H 19.748366 4.020420 -19.891842 0
M  V30 43 H 11.666960 1.086340 -19.967195 0
M  V30 44 H 9.829579 4.169220 -13.616057 0
M  V30 45 H 20.007182 8.332047 -19.999283 0
M  V30 46 H 15.615244 2.918899 -20.921725 0
M  V30 47 H 12.979748 5.775861 -20.605779 0
M  V30 48 H 13.636459 6.307782 -19.072634 0
M  V30 49 H 10.706149 3.488059 -20.478626 0
M  V30 50 H 9.044576 3.641982 -20.158924 0
M  V30 51 H 8.288251 6.015803 -15.495551 0
M  V30 52 H 10.026496 5.769301 -15.439661 0
M  V30 53 H 6.689777 3.277067 -11.977011 0
M  V30 54 H 8.454870 3.201608 -11.894081 0
M  V30 55 H 8.815785 5.791847 -17.811369 0
M  V30 56 H 8.067179 4.332831 -18.332762 0
M  V30 57 H 8.634644 2.209440 -14.349557 0
M  V30 58 H 20.781285 6.888880 -22.630692 0
M  V30 59 H 21.652170 8.328967 -21.880699 0
M  V30 60 H 7.672999 2.412118 -16.676431 0
M  V30 61 H 6.817026 3.852888 -16.187692 0
M  V30 62 H 10.097794 -1.691111 -17.493373 0
M  V30 63 H 9.823712 -1.220910 -19.187379 0
M  V30 64 H 9.096585 -0.315938 -17.863109 0
M  V30 65 H 7.875981 5.224775 -10.619112 0
M  V30 66 H 15.615549 0.882323 -17.131060 0
M  V30 67 H 14.422320 0.203042 -18.229418 0
M  V30 68 H 13.948727 1.409509 -17.014322 0
M  V30 69 H 9.828611 3.489793 -16.291791 0
M  V30 70 H 9.307176 1.913208 -18.252311 0
M  V30 71 H 9.311776 1.350833 -19.904476 0
M  V30 72 H 20.026481 6.218114 -18.691931 0
M  V30 73 H 12.138604 -0.543521 -18.294696 0
M  V30 74 H 11.331543 0.374060 -17.091485 0
M  V30 75 H 13.743619 1.518321 -20.098050 0
M  V30 76 H 15.403985 4.726392 -19.123038 0
M  V30 77 H 6.314257 1.194794 -15.011626 0
M  V30 78 H 5.676715 2.414875 -13.891489 0
M  V30 79 H 6.826137 1.223550 -13.336029 0
M  V30 80 H 17.402523 6.893614 -20.923125 0
M  V30 81 H 17.663028 5.255570 -18.907348 0
M  V30 82 H 17.406932 3.934067 -20.031961 0
M  V30 83 H 16.417797 4.300731 -22.292145 0
M  V30 84 H 16.290635 5.998825 -22.947001 0
M  V30 END ATOM
M  V30 BEGIN BOND
M  V30 1 1 9 5
M  V30 2 1 12 1
M  V30 3 1 13 5
M  V30 4 2 14 8
M  V30 5 1 14 11
M  V30 6 1 15 9
M  V30 7 1 16 1
M  V30 8 1 17 9
M  V30 9 1 19 6
M  V30 10 1 20 7
M  V30 11 1 21 17
M  V30 12 1 23 15
M  V30 13 1 24 3
M  V30 14 1 25 13
M  V30 15 1 25 16
M  V30 16 1 25 21
M  V30 17 1 26 4
M  V30 18 1 26 12
M  V30 19 1 28 2
M  V30 20 1 28 6
M  V30 21 1 29 1
M  V30 22 1 29 14
M  V30 23 2 29 18
M  V30 24 1 30 4
M  V30 25 1 30 22
M  V30 26 1 31 3
M  V30 27 1 31 7
M  V30 28 1 31 8
M  V30 29 1 32 7
M  V30 30 1 32 10
M  V30 31 1 32 11
M  V30 32 1 33 17
M  V30 33 1 34 5
M  V30 34 1 34 23
M  V30 35 1 35 10
M  V30 36 1 36 4
M  V30 37 1 36 8
M  V30 38 1 37 6
M  V30 39 1 37 19
M  V30 40 1 37 27 CFG=1
M  V30 41 1 37 28
M  V30 42 1 38 23
M  V30 43 1 39 2
M  V30 44 1 39 35
M  V30 45 1 40 10
M  V30 46 1 40 35
M  V30 47 1 41 2
M  V30 48 1 42 2
M  V30 49 1 4 43 CFG=3
M  V30 50 1 5 44 CFG=1
M  V30 51 1 6 45 CFG=1
M  V30 52 1 7 46 CFG=3
M  V30 53 1 47 11
M  V30 54 1 48 11
M  V30 55 1 49 12
M  V30 56 1 50 12
M  V30 57 1 51 13
M  V30 58 1 52 13
M  V30 59 1 53 15
M  V30 60 1 54 15
M  V30 61 1 55 16
M  V30 62 1 56 16
M  V30 63 1 17 57 CFG=3
M  V30 64 1 58 19
M  V30 65 1 59 19
M  V30 66 1 60 21
M  V30 67 1 61 21
M  V30 68 1 62 22
M  V30 69 1 63 22
M  V30 70 1 64 22
M  V30 71 1 23 65 CFG=1
M  V30 72 1 66 24
M  V30 73 1 67 24
M  V30 74 1 68 24
M  V30 75 1 25 69 CFG=3
M  V30 76 1 70 26
M  V30 77 1 71 26
M  V30 78 1 28 72 CFG=1
M  V30 79 1 73 30
M  V30 80 1 74 30
M  V30 81 1 31 75 CFG=3
M  V30 82 1 32 76 CFG=1
M  V30 83 1 77 33
M  V30 84 1 78 33
M  V30 85 1 79 33
M  V30 86 1 35 80 CFG=3
M  V30 87 1 81 39
M  V30 88 1 82 39
M  V30 89 1 83 40
M  V30 90 1 84 40
M  V30 END BOND
M  V30 END CTAB
M  END
>  <i_epik_Tot_Q>  (1) 
0

>  <i_epik_Tot_abs_Q>  (1) 
0

>  <i_i_glide_confnum>  (1) 
270

>  <i_i_glide_lignum>  (1) 
66

>  <i_i_glide_posenum>  (1) 
104

>  <i_i_glide_rotatable_bonds>  (1) 
8

>  <i_lp_mmshare_version>  (1) 
72125

>  <i_m_source_file_index>  (1) 
25

>  <i_f3d_flags>  (1) 
0

>  <num_sample>  (1) 
50

>  <b_lp_Chiralities_Consistent>  (1) 
1

>  <r_epik_Charging_Adjusted_Penalty>  (1) 
0.52172569417545378

>  <r_epik_Ionization_Penalty>  (1) 
0.52172594648505022

>  <r_epik_Ionization_Penalty_Charging>  (1) 
0

>  <r_epik_Ionization_Penalty_Neutral>  (1) 
0.52172594648505022

>  <r_epik_State_Penalty>  (1) 
0.52172569417545378

>  <r_glide_ring_energy>  (1) 
0

>  <r_i_docking_score>  (1) 
-2.0691947473702941

>  <r_i_glide_ecoul>  (1) 
0.057862453353460575

>  <r_i_glide_eff_state_penalty>  (1) 
0.52172569417545378

>  <r_i_glide_einternal>  (1) 
11.675682520849161

>  <r_i_glide_emodel>  (1) 
-25.559577607643114

>  <r_i_glide_emodel_strain>  (1) 
1.6065398318721975

>  <r_i_glide_energy>  (1) 
-27.370737275569354

>  <r_i_glide_erotb>  (1) 
0.23292316522527595

>  <r_i_glide_esite>  (1) 
-0.00822627362903945

>  <r_i_glide_evdw>  (1) 
-27.428599728922816

>  <r_i_glide_gscore>  (1) 
-2.5909204415457481

>  <r_i_glide_gscore_strain>  (1) 
0

>  <r_i_glide_hbond>  (1) 
0

>  <r_i_glide_ligand_efficiency>  (1) 
-0.05172986868425735

>  <r_i_glide_ligand_efficiency_ln>  (1) 
-0.44129834593099232

>  <r_i_glide_ligand_efficiency_sa>  (1) 
-0.17691366234964839

>  <r_i_glide_lipo>  (1) 
-1.3068135028751553

>  <r_i_glide_metal>  (1) 
-0

>  <r_i_glide_rewards>  (1) 
-0.14605321182370767

>  <r_lp_Energy>  (1) 
49.504489

>  <s_epik_Chemistry_Notes>  (1) 
This compound contains an acetal/aminal-like group ( X-CH(R)-Y where X, Y are N, S, or O) that may be acid/base labile, releasing an aldehyde.

>  <s_epik_cmdline>  (1) 
J2VwaWtfcHl0aG9uJywgJy1waHQnLCAnMS4wJywgJy1waCcsICc3LjQnLCAnLXRuJywgJzgnLCAnLW1hJywgJzUwMCcsICctaW1hZScsICc8aW5maWxlLm1hZT4nLCAnLW9tYWUnLCAnPG91dGZpbGUubWFlPic=

>  <s_epik_input>  (1) 
UzFbQ0BASF0oQ2wpW0NIMl1OKFtDQEhdMTIpW0NAQEhdKFtDSDNdKVtDSDJdW0NASF0oW0NIMl0yKVtDSDJdTihbQ0gyXVtDSDJdW0NAQEhdKE8zKVtDSDJdW0NIM10pQyg9TylDKD1DMzQpW0NIMl1bQ0BASF0oW0NASF0oRilbQ0BIXTRPW0NIM10pTjVbQ0BIXShbQ0gyXTUpW0NIMl1bQ0gyXVtDQEBIXTZbQ0hdKFtDSDJdNylDNjdG

>  <s_glide_docking_method>  (1) 
confgen

>  <s_i_glide_gridfile>  (1) 
gpcr_drd2_6luq_protein_autoprepared_prepared

>  <s_lp_Force_Field>  (1) 
S-OPLS

>  <s_lp_Variant>  (1) 
DiffSBDD_24_num_sample_50-3

>  <s_m_source_file>  (1) 
generated__ligand_DiffSBDD_2026-05-06_prepared.sdf

>  <GenAI_Model>  (1) 
DiffSBDD

>  <Protein>  (1) 
generic_title2

$$$$
DiffSBDD_41_num_sample_50
     RDKit          3D

  0  0  0  0  0  0  0  0  0  0999 V3000
M  V30 BEGIN CTAB
M  V30 COUNTS 104 109 0 0 1
M  V30 BEGIN ATOM
M  V30 1 C 5.841834 -2.509652 -22.247958 0
M  V30 2 C 6.590598 -0.261491 -17.829422 0
M  V30 3 C 7.251112 -1.628597 -18.150688 0
M  V30 4 C 7.781899 -4.923862 -17.506641 0
M  V30 5 C 5.034570 -2.655110 -21.194850 0
M  V30 6 O 8.421408 1.124631 -17.145358 0
M  V30 7 C 8.738785 4.974202 -14.998472 0
M  V30 8 N 10.565301 2.651162 -18.313085 0
M  V30 9 O 6.821062 3.677826 -20.007815 0
M  V30 10 C 9.857972 0.746589 -19.788912 0 CFG=2
M  V30 11 C 6.872466 -5.600194 -16.452076 0
M  V30 12 O 9.752713 -0.653192 -19.637173 0
M  V30 13 C 11.694176 0.480274 -17.908451 0
M  V30 14 C 7.341349 5.714847 -18.531028 0 CFG=1
M  V30 15 C 13.777059 3.730388 -17.439571 0
M  V30 16 C 8.667041 5.337901 -19.795949 0 CFG=2
M  V30 17 C 9.174322 -1.303140 -20.752616 0
M  V30 18 C 7.622257 -1.401734 -20.735195 0 CFG=1
M  V30 19 C 8.261382 6.715648 -19.262430 0
M  V30 20 C 7.221900 -1.900177 -22.158878 0
M  V30 21 C 5.458230 3.420230 -19.725615 0
M  V30 22 C 7.153764 2.989001 -14.695986 0
M  V30 23 O 9.362953 4.317535 -16.096541 0
M  V30 24 C 9.687990 5.004556 -20.879687 0
M  V30 25 C 7.371292 0.578624 -16.816481 0
M  V30 26 C 12.843253 3.586470 -18.649027 0
M  V30 27 N 10.980740 4.875485 -17.668953 0 CHG=1
M  V30 28 N 6.848228 0.691016 -15.584682 0
M  V30 29 C 8.164136 3.936902 -14.017275 0
M  V30 30 C 5.407490 -2.217238 -19.800436 0 CFG=2
M  V30 31 S 6.034439 6.169283 -17.343198 0 CHG=-1
M  V30 32 C 6.960173 -2.246617 -19.562170 0 CFG=2
M  V30 33 O 4.654220 -2.919254 -18.831927 0
M  V30 34 C 6.158167 -6.867496 -16.982751 0
M  V30 35 F 10.020618 7.215769 -21.660649 0
M  V30 36 C 11.150762 1.212132 -20.391563 0
M  V30 37 C 11.409762 3.703267 -18.197502 0
M  V30 38 C 9.603025 5.124225 -17.205550 0 CFG=1
M  V30 39 C 5.622371 -6.611448 -18.376469 0
M  V30 40 C 6.071490 -5.618488 -19.153105 0
M  V30 41 C 10.665575 6.147673 -21.193044 0
M  V30 42 C 10.922273 1.347186 -18.891173 0 CFG=2
M  V30 43 F 11.375525 6.486707 -20.117497 0
M  V30 44 N 7.067643 -4.737596 -18.771198 0
M  V30 45 C 7.569252 -3.694461 -19.663137 0
M  V30 46 C 7.152351 5.063233 -19.918723 0 CFG=1
M  V30 47 C 7.486339 1.490488 -14.538406 0
M  V30 48 C 8.580938 4.804331 -18.327329 0 CFG=1
M  V30 49 H 5.516342 -2.839516 -23.224089 0
M  V30 50 H 5.565016 -0.408574 -17.487671 0
M  V30 51 H 6.520664 0.352901 -18.724915 0
M  V30 52 H 8.323574 -1.596847 -17.966475 0
M  V30 53 H 6.869114 -2.311111 -17.393267 0
M  V30 54 H 8.637210 -5.567243 -17.707576 0
M  V30 55 H 8.186682 -3.989640 -17.120632 0
M  V30 56 H 4.058736 -3.099394 -21.324411 0
M  V30 57 H 9.467931 5.607432 -14.492698 0
M  V30 58 H 7.933035 5.620843 -15.343122 0
M  V30 59 H 9.620638 2.745259 -17.954591 0
M  V30 60 H 8.927626 1.284726 -19.967550 0
M  V30 61 H 6.112284 -4.876769 -16.155743 0
M  V30 62 H 7.434914 -5.835196 -15.550132 0
M  V30 63 H 12.528043 -0.013636 -18.407354 0
M  V30 64 H 12.095573 1.077492 -17.091688 0
M  V30 65 H 11.045616 -0.287563 -17.486001 0
M  V30 66 H 14.819084 3.617508 -17.738439 0
M  V30 67 H 13.674324 4.706713 -16.964958 0
M  V30 68 H 13.560726 2.970595 -16.688037 0
M  V30 69 H 9.616204 -2.294994 -20.818555 0
M  V30 70 H 9.505007 -0.800128 -21.664012 0
M  V30 71 H 7.236900 -0.385732 -20.661501 0
M  V30 72 H 7.776773 7.389731 -19.973448 0
M  V30 73 H 9.025178 7.237976 -18.691642 0
M  V30 74 H 7.917907 -2.664919 -22.506298 0
M  V30 75 H 7.288864 -1.078492 -22.873046 0
M  V30 76 H 5.246375 2.360824 -19.869407 0
M  V30 77 H 5.225281 3.667065 -18.691632 0
M  V30 78 H 4.798567 3.990484 -20.380797 0
M  V30 79 H 6.162016 3.182877 -14.291030 0
M  V30 80 H 7.077078 3.243448 -15.754640 0
M  V30 81 H 10.258437 4.129049 -20.585096 0
M  V30 82 H 9.168305 4.721788 -21.795625 0
M  V30 83 H 9.572370 6.169306 -16.905107 0
M  V30 84 H 13.054927 2.649337 -19.158488 0
M  V30 85 H 5.982782 0.218400 -15.364657 0
M  V30 86 H 8.970254 3.385156 -13.531442 0
M  V30 87 H 7.661895 4.467472 -13.207869 0
M  V30 88 H 5.051805 -1.188537 -19.745194 0
M  V30 89 H 3.740175 -2.698934 -18.923547 0
M  V30 90 H 5.338393 -7.139282 -16.317497 0
M  V30 91 H 6.844998 -7.712939 -17.022426 0
M  V30 92 H 11.864786 0.460486 -20.722126 0
M  V30 93 H 11.117463 2.108916 -21.004024 0
M  V30 94 H 13.048863 4.375329 -19.373122 0
M  V30 95 H 4.844746 -7.269849 -18.733838 0
M  V30 96 H 5.679499 -5.438673 -20.143902 0
M  V30 97 H 11.376148 5.850695 -21.964490 0
M  V30 98 H 7.479336 -4.075030 -20.679322 0
M  V30 99 H 8.634781 -3.639018 -19.476149 0
M  V30 100 H 6.622352 5.664044 -20.663803 0
M  V30 101 H 8.565226 1.328240 -14.569814 0
M  V30 102 H 7.157718 1.133783 -13.561891 0
M  V30 103 H 8.273479 3.761165 -18.245897 0
M  V30 104 H 11.668548 5.607135 -17.562127 0
M  V30 END ATOM
M  V30 BEGIN BOND
M  V30 1 1 3 2
M  V30 2 2 5 1
M  V30 3 1 11 4
M  V30 4 1 12 10
M  V30 5 1 17 12
M  V30 6 1 18 17
M  V30 7 1 19 14
M  V30 8 1 19 16
M  V30 9 1 20 1
M  V30 10 1 20 18
M  V30 11 1 21 9
M  V30 12 1 23 7
M  V30 13 1 16 24 CFG=3
M  V30 14 1 25 2
M  V30 15 2 25 6
M  V30 16 1 26 15
M  V30 17 1 28 25
M  V30 18 1 29 7
M  V30 19 1 29 22
M  V30 20 1 30 5
M  V30 21 1 14 31 CFG=1
M  V30 22 1 32 3
M  V30 23 1 32 18
M  V30 24 1 32 30
M  V30 25 1 33 30
M  V30 26 1 34 11
M  V30 27 1 36 10
M  V30 28 1 37 8
M  V30 29 1 37 26
M  V30 30 2 37 27
M  V30 31 1 38 23
M  V30 32 1 38 27
M  V30 33 1 39 34
M  V30 34 2 40 39
M  V30 35 1 41 24
M  V30 36 1 41 35
M  V30 37 1 42 8
M  V30 38 1 42 10
M  V30 39 1 42 13 CFG=1
M  V30 40 1 42 36
M  V30 41 1 43 41
M  V30 42 1 44 4
M  V30 43 1 44 40
M  V30 44 1 32 45 CFG=1
M  V30 45 1 45 44
M  V30 46 1 46 9
M  V30 47 1 46 14
M  V30 48 1 46 16
M  V30 49 1 47 22
M  V30 50 1 47 28
M  V30 51 1 48 14
M  V30 52 1 48 16
M  V30 53 1 48 38
M  V30 54 1 49 1
M  V30 55 1 50 2
M  V30 56 1 51 2
M  V30 57 1 52 3
M  V30 58 1 53 3
M  V30 59 1 54 4
M  V30 60 1 55 4
M  V30 61 1 56 5
M  V30 62 1 57 7
M  V30 63 1 58 7
M  V30 64 1 59 8
M  V30 65 1 10 60 CFG=3
M  V30 66 1 61 11
M  V30 67 1 62 11
M  V30 68 1 63 13
M  V30 69 1 64 13
M  V30 70 1 65 13
M  V30 71 1 66 15
M  V30 72 1 67 15
M  V30 73 1 68 15
M  V30 74 1 69 17
M  V30 75 1 70 17
M  V30 76 1 18 71 CFG=1
M  V30 77 1 72 19
M  V30 78 1 73 19
M  V30 79 1 74 20
M  V30 80 1 75 20
M  V30 81 1 76 21
M  V30 82 1 77 21
M  V30 83 1 78 21
M  V30 84 1 79 22
M  V30 85 1 80 22
M  V30 86 1 81 24
M  V30 87 1 82 24
M  V30 88 1 38 83 CFG=1
M  V30 89 1 84 26
M  V30 90 1 85 28
M  V30 91 1 86 29
M  V30 92 1 87 29
M  V30 93 1 30 88 CFG=3
M  V30 94 1 89 33
M  V30 95 1 90 34
M  V30 96 1 91 34
M  V30 97 1 92 36
M  V30 98 1 93 36
M  V30 99 1 94 26
M  V30 100 1 95 39
M  V30 101 1 96 40
M  V30 102 1 97 41
M  V30 103 1 98 45
M  V30 104 1 99 45
M  V30 105 1 46 100 CFG=3
M  V30 106 1 101 47
M  V30 107 1 102 47
M  V30 108 1 48 103 CFG=3
M  V30 109 1 104 27
M  V30 END BOND
M  V30 END CTAB
M  END
>  <i_epik_Tot_Q>  (1) 
0

>  <i_epik_Tot_abs_Q>  (1) 
2

>  <i_i_glide_confnum>  (1) 
116

>  <i_i_glide_lignum>  (1) 
103

>  <i_i_glide_posenum>  (1) 
21

>  <i_i_glide_rotatable_bonds>  (1) 
8

>  <i_lp_mmshare_version>  (1) 
72125

>  <i_m_source_file_index>  (1) 
42

>  <i_f3d_flags>  (1) 
0

>  <num_sample>  (1) 
50

>  <b_lp_Chiralities_Consistent>  (1) 
1

>  <r_epik_Charging_Adjusted_Penalty>  (1) 
2.5071679655586419

>  <r_epik_Ionization_Penalty>  (1) 
1.2556275080584867

>  <r_epik_Ionization_Penalty_Charging>  (1) 
1.2536750394976632

>  <r_epik_Ionization_Penalty_Neutral>  (1) 
0.0019524685608233448

>  <r_epik_State_Penalty>  (1) 
1.2534929260609784

>  <r_glide_ring_energy>  (1) 
0

>  <r_i_docking_score>  (1) 
-2.043218085680488

>  <r_i_glide_ecoul>  (1) 
-0.82267750028979858

>  <r_i_glide_eff_state_penalty>  (1) 
1.2534929260609784

>  <r_i_glide_einternal>  (1) 
7.8024926429013419

>  <r_i_glide_emodel>  (1) 
-32.94791075114945

>  <r_i_glide_emodel_strain>  (1) 
1.1475902734416792

>  <r_i_glide_energy>  (1) 
-32.359804117864215

>  <r_i_glide_erotb>  (1) 
0.0044950300395880287

>  <r_i_glide_esite>  (1) 
-0.0091334020405266399

>  <r_i_glide_evdw>  (1) 
-31.537126617574415

>  <r_i_glide_gscore>  (1) 
-3.2967110117414666

>  <r_i_glide_gscore_strain>  (1) 
0

>  <r_i_glide_hbond>  (1) 
0

>  <r_i_glide_ligand_efficiency>  (1) 
-0.042567043451676834

>  <r_i_glide_ligand_efficiency_ln>  (1) 
-0.41944852637064028

>  <r_i_glide_ligand_efficiency_sa>  (1) 
-0.15469890246404494

>  <r_i_glide_lipo>  (1) 
-1.2822672468725929

>  <r_i_glide_metal>  (1) 
-0

>  <r_i_glide_rewards>  (1) 
-0.30954743694574449

>  <r_lp_Energy>  (1) 
119.38507999999999

>  <s_epik_Chemistry_Notes>  (1) 
This compound has an imine and may undergo hydrolysis. This compound contains an acetal/aminal-like group ( X-CH(R)-Y where X, Y are N, S, or O) that may be acid/base labile, releasing an aldehyde.

>  <s_epik_cmdline>  (1) 
J2VwaWtfcHl0aG9uJywgJy1waHQnLCAnMS4wJywgJy1waCcsICc3LjQnLCAnLXRuJywgJzgnLCAnLW1hJywgJzUwMCcsICctaW1hZScsICc8aW5maWxlLm1hZT4nLCAnLW9tYWUnLCAnPG91dGZpbGUubWFlPic=

>  <s_epik_input>  (1) 
W0NIXTE9W0NIXVtDSDJdW0NIMl1bQ0gyXU4xW0NIMl1bQ0BdMjNbQ0BIXShbQ0gyXVtDSF09W0NIXVtDQEhdM1tPSF0pW0NIMl1PW0NASF00W0NAQF0oW0NIM10pKFtDSDJdNClbTkhdW0NASF0oW0NIMl1bQ0gzXSkvTj1DKFtDQEBIXTVbQ0BdKFtDSDJdW0NIXShGKUYpKFtDSDJdW0NAXTU2W1NIXSlbQ0BIXTZPW0NIM10pL09bQ0gyXVtDSDJdW0NIMl1bQ0gyXVtOSF1DKD1PKVtDSDJdW0NIMl0y

>  <s_glide_docking_method>  (1) 
confgen

>  <s_i_glide_gridfile>  (1) 
gpcr_drd2_6luq_protein_autoprepared_prepared

>  <s_lp_Force_Field>  (1) 
S-OPLS

>  <s_lp_Variant>  (1) 
DiffSBDD_41_num_sample_50-3

>  <s_m_source_file>  (1) 
generated__ligand_DiffSBDD_2026-05-06_prepared.sdf

>  <GenAI_Model>  (1) 
DiffSBDD

>  <Protein>  (1) 
generic_title2

$$$$
DiffSBDD_19_num_sample_50
     RDKit          3D

  0  0  0  0  0  0  0  0  0  0999 V3000
M  V30 BEGIN CTAB
M  V30 COUNTS 78 83 0 0 1
M  V30 BEGIN ATOM
M  V30 1 C 12.935682 7.122993 -18.778604 0 CFG=1
M  V30 2 C 19.932534 6.234692 -19.719465 0
M  V30 3 O 11.034839 8.169293 -19.891669 0
M  V30 4 C 20.495555 6.248649 -20.931428 0
M  V30 5 C 16.946206 9.810783 -20.276735 0
M  V30 6 C 16.880516 10.269231 -21.531774 0
M  V30 7 C 14.146333 4.197482 -17.648404 0 CFG=2
M  V30 8 O 21.756813 5.155154 -22.519342 0 CHG=-1
M  V30 9 C 14.423072 8.018708 -20.433322 0 CFG=1
M  V30 10 C 15.150957 4.441393 -18.817849 0 CFG=1
M  V30 11 O 18.112393 9.468620 -19.717048 0
M  V30 12 O 20.046142 9.822983 -23.393738 0
M  V30 13 C 20.420517 7.423142 -21.884385 0
M  V30 14 C 12.108378 7.268887 -20.072367 0 CFG=1
M  V30 15 C 12.358911 6.107039 -17.772639 0
M  V30 16 C 12.937261 0.529297 -20.100077 0
M  V30 17 C 18.894455 8.484773 -20.199200 0
M  V30 18 C 15.494020 3.159674 -19.615369 0
M  V30 19 N 21.230677 5.088425 -21.412606 0 CHG=1
M  V30 20 C 13.941838 1.284125 -19.203373 0
M  V30 21 C 19.155258 9.613688 -22.416194 0
M  V30 22 C 19.449621 8.531148 -21.445491 0
M  V30 23 C 15.102862 0.285800 -18.952116 0
M  V30 24 O 14.608289 4.954252 -16.541152 0
M  V30 25 C 14.205356 2.748872 -17.080935 0
M  V30 26 O 14.350591 2.399257 -20.010355 0
M  V30 27 C 12.686319 4.618798 -18.028748 0 CFG=2
M  V30 28 C 14.402876 6.988391 -19.264415 0 CFG=2
M  V30 29 C 19.152340 7.394000 -19.163455 0
M  V30 30 O 15.842758 9.769323 -19.453209 0
M  V30 31 C 11.839451 2.261050 -17.891600 0
M  V30 32 C 13.077142 7.794157 -21.142102 0
M  V30 33 C 11.650749 3.697385 -17.374747 0
M  V30 34 C 14.797049 5.583929 -19.813000 0
M  V30 35 C 13.312416 1.750857 -17.848426 0 CFG=1
M  V30 36 C 14.557117 9.506395 -20.009617 0
M  V30 37 O 21.288160 4.095933 -20.691673 0
M  V30 38 O 15.347482 7.356024 -18.277537 0
M  V30 39 C 18.011800 10.361602 -22.442528 0
M  V30 40 H 12.869399 8.077501 -18.255134 0
M  V30 41 H 20.024690 5.369197 -19.090859 0
M  V30 42 H 11.355922 8.931617 -19.429579 0
M  V30 43 H 15.931415 10.618418 -21.897975 0
M  V30 44 H 15.232517 7.805005 -21.131967 0
M  V30 45 H 16.101635 4.736449 -18.369979 0
M  V30 46 H 19.750180 10.569476 -23.889223 0
M  V30 47 H 21.418095 7.849635 -21.993407 0
M  V30 48 H 20.107211 7.069199 -22.867488 0
M  V30 49 H 11.706801 6.306420 -20.391371 0
M  V30 50 H 12.641640 6.397689 -16.761247 0
M  V30 51 H 11.275994 6.235946 -17.782254 0
M  V30 52 H 12.396008 -0.230695 -19.537843 0
M  V30 53 H 13.445123 0.028417 -20.925162 0
M  V30 54 H 12.208063 1.192341 -20.563281 0
M  V30 55 H 16.009388 3.440432 -20.534162 0
M  V30 56 H 16.234838 2.569775 -19.084415 0
M  V30 57 H 14.725559 -0.658432 -18.556482 0
M  V30 58 H 15.834819 0.638726 -18.229876 0
M  V30 59 H 15.635305 0.056332 -19.875452 0
M  V30 60 H 13.964643 4.899009 -15.850920 0
M  V30 61 H 15.233507 2.401065 -16.995777 0
M  V30 62 H 13.848447 2.746907 -16.050259 0
M  V30 63 H 12.539437 4.435593 -19.092492 0
M  V30 64 H 19.684018 7.820172 -18.312995 0
M  V30 65 H 18.192569 7.028176 -18.796972 0
M  V30 66 H 11.201371 1.590754 -17.315137 0
M  V30 67 H 11.434163 2.240979 -18.898752 0
M  V30 68 H 12.710760 8.686831 -21.650900 0
M  V30 69 H 13.197300 7.034298 -21.915305 0
M  V30 70 H 11.739496 3.750161 -16.291666 0
M  V30 71 H 10.637797 4.025518 -17.610657 0
M  V30 72 H 15.683696 5.719962 -20.433561 0
M  V30 73 H 14.036620 5.231297 -20.509691 0
M  V30 74 H 13.272660 0.854306 -17.226932 0
M  V30 75 H 14.292697 10.169301 -20.827605 0
M  V30 76 H 13.834840 9.756586 -19.236314 0
M  V30 77 H 15.379996 8.301567 -18.230479 0
M  V30 78 H 17.913604 11.066095 -23.256044 0
M  V30 END ATOM
M  V30 BEGIN BOND
M  V30 1 2 4 2
M  V30 2 2 6 5
M  V30 3 1 10 7
M  V30 4 1 11 5
M  V30 5 1 13 4
M  V30 6 1 14 1
M  V30 7 1 14 3
M  V30 8 1 15 1
M  V30 9 1 17 11
M  V30 10 1 18 10
M  V30 11 1 19 4
M  V30 12 1 19 8
M  V30 13 1 20 16
M  V30 14 1 21 12
M  V30 15 1 22 13
M  V30 16 2 22 17
M  V30 17 1 22 21
M  V30 18 1 23 20
M  V30 19 1 7 24 CFG=1
M  V30 20 1 25 7
M  V30 21 1 26 18
M  V30 22 1 26 20
M  V30 23 1 27 7
M  V30 24 1 27 15
M  V30 25 1 28 1
M  V30 26 1 28 9
M  V30 27 1 29 2
M  V30 28 1 29 17
M  V30 29 1 30 5
M  V30 30 1 32 9
M  V30 31 1 32 14
M  V30 32 1 33 27
M  V30 33 1 33 31
M  V30 34 1 34 10
M  V30 35 1 34 28
M  V30 36 1 35 20
M  V30 37 1 35 25
M  V30 38 1 35 31
M  V30 39 1 36 9
M  V30 40 1 36 30
M  V30 41 2 37 19
M  V30 42 1 28 38 CFG=1
M  V30 43 1 39 6
M  V30 44 2 39 21
M  V30 45 1 1 40 CFG=1
M  V30 46 1 41 2
M  V30 47 1 42 3
M  V30 48 1 43 6
M  V30 49 1 9 44 CFG=3
M  V30 50 1 10 45 CFG=1
M  V30 51 1 46 12
M  V30 52 1 47 13
M  V30 53 1 48 13
M  V30 54 1 14 49 CFG=3
M  V30 55 1 50 15
M  V30 56 1 51 15
M  V30 57 1 52 16
M  V30 58 1 53 16
M  V30 59 1 54 16
M  V30 60 1 55 18
M  V30 61 1 56 18
M  V30 62 1 57 23
M  V30 63 1 58 23
M  V30 64 1 59 23
M  V30 65 1 60 24
M  V30 66 1 61 25
M  V30 67 1 62 25
M  V30 68 1 27 63 CFG=3
M  V30 69 1 64 29
M  V30 70 1 65 29
M  V30 71 1 66 31
M  V30 72 1 67 31
M  V30 73 1 68 32
M  V30 74 1 69 32
M  V30 75 1 70 33
M  V30 76 1 71 33
M  V30 77 1 72 34
M  V30 78 1 73 34
M  V30 79 1 35 74 CFG=1
M  V30 80 1 75 36
M  V30 81 1 76 36
M  V30 82 1 77 38
M  V30 83 1 78 39
M  V30 END BOND
M  V30 END CTAB
M  END
>  <i_epik_Tot_Q>  (1) 
0

>  <i_epik_Tot_abs_Q>  (1) 
2

>  <i_i_glide_confnum>  (1) 
9

>  <i_i_glide_lignum>  (1) 
56

>  <i_i_glide_posenum>  (1) 
172

>  <i_i_glide_rotatable_bonds>  (1) 
8

>  <i_lp_mmshare_version>  (1) 
72125

>  <i_m_source_file_index>  (1) 
20

>  <i_f3d_flags>  (1) 
0

>  <num_sample>  (1) 
50

>  <b_lp_Chiralities_Consistent>  (1) 
1

>  <r_epik_Charging_Adjusted_Penalty>  (1) 
0.77299719136223677

>  <r_epik_Ionization_Penalty>  (1) 
0.77299806013173578

>  <r_epik_Ionization_Penalty_Charging>  (1) 
0

>  <r_epik_Ionization_Penalty_Neutral>  (1) 
0.77299806013173578

>  <r_epik_State_Penalty>  (1) 
0.77299719136223677

>  <r_glide_ring_energy>  (1) 
0

>  <r_i_docking_score>  (1) 
-1.9885227830511401

>  <r_i_glide_ecoul>  (1) 
-2.9579062363068274

>  <r_i_glide_eff_state_penalty>  (1) 
0.77299719136223677

>  <r_i_glide_einternal>  (1) 
1.2062313600503507

>  <r_i_glide_emodel>  (1) 
-33.392902040024318

>  <r_i_glide_emodel_strain>  (1) 
0.28830956511566797

>  <r_i_glide_energy>  (1) 
-30.69747707672224

>  <r_i_glide_erotb>  (1) 
0.20863989142985551

>  <r_i_glide_esite>  (1) 
-0.0090191068003436931

>  <r_i_glide_evdw>  (1) 
-27.739570840415414

>  <r_i_glide_gscore>  (1) 
-2.7615199744133769

>  <r_i_glide_gscore_strain>  (1) 
0

>  <r_i_glide_hbond>  (1) 
-0.18951003644981668

>  <r_i_glide_ligand_efficiency>  (1) 
-0.050987763667977949

>  <r_i_glide_ligand_efficiency_ln>  (1) 
-0.42639573226215255

>  <r_i_glide_ligand_efficiency_sa>  (1) 
-0.17291028760454882

>  <r_i_glide_lipo>  (1) 
-0.91565166728479708

>  <r_i_glide_metal>  (1) 
-0

>  <r_i_glide_rewards>  (1) 
-0.025314577841480293

>  <r_lp_Energy>  (1) 
64.670022000000003

>  <s_epik_cmdline>  (1) 
J2VwaWtfcHl0aG9uJywgJy1waHQnLCAnMS4wJywgJy1waCcsICc3LjQnLCAnLXRuJywgJzgnLCAnLW1hJywgJzUwMCcsICctaW1hZScsICc8aW5maWxlLm1hZT4nLCAnLW9tYWUnLCAnPG91dGZpbGUubWFlPic=

>  <s_epik_input>  (1) 
W09IXVtDQEBdMTJbQ0BIXTNbQ0gyXU9DKFtDSDNdKShbQ0gzXSlbQ0BASF0oW0NIMl0xKVtDSDJdW0NIMl1bQ0BIXTJbQ0gyXVtDQEhdNFtDQF0oW0NIMl0zKShbT0hdKVtDQEBIXShbQ0gyXVtDQEBIXTRbT0hdKVtDSDJdT0MoTzUpPVtDSF1bQ0hdPUMoW09IXSlDKD1DNTYpW0NIMl1DKFtOK10oW08tXSk9Tyk9W0NIXVtDSDJdNg==

>  <s_glide_docking_method>  (1) 
confgen

>  <s_i_glide_gridfile>  (1) 
gpcr_drd2_6luq_protein_autoprepared_prepared

>  <s_lp_Force_Field>  (1) 
S-OPLS

>  <s_lp_Variant>  (1) 
DiffSBDD_19_num_sample_50-2

>  <s_m_source_file>  (1) 
generated__ligand_DiffSBDD_2026-05-06_prepared.sdf

>  <GenAI_Model>  (1) 
DiffSBDD

>  <Protein>  (1) 
generic_title2

$$$$
DiffSBDD_10_num_sample_50
     RDKit          3D

  0  0  0  0  0  0  0  0  0  0999 V3000
M  V30 BEGIN CTAB
M  V30 COUNTS 71 72 0 0 1
M  V30 BEGIN ATOM
M  V30 1 C 10.732402 7.529132 -8.883307 0 CFG=2
M  V30 2 C 7.912959 0.563466 -18.246828 0
M  V30 3 C 8.234877 2.195915 -15.668494 0
M  V30 4 C 7.540761 4.221228 -12.788558 0 CFG=1
M  V30 5 C 9.480699 6.650783 -9.161363 0 CFG=2
M  V30 6 N 8.591776 -1.431044 -17.075203 0
M  V30 7 N 7.273736 5.369226 -10.748095 0
M  V30 8 C 8.671057 5.035038 -10.862958 0 CFG=1
M  V30 9 S 11.053053 7.633786 -7.014115 0
M  V30 10 C 8.727535 0.293519 -19.499487 0
M  V30 11 S 12.229541 9.369324 -6.691478 0 CHG=-1
M  V30 12 C 13.014478 8.570628 -9.695247 0
M  V30 13 O 12.954027 0.872956 -21.515757 0
M  V30 14 O 9.813067 7.947122 -6.291416 0
M  V30 15 C 9.434816 8.175517 -9.239472 0 CFG=2
M  V30 16 C 6.396992 1.270286 -14.043619 0
M  V30 17 C 6.616892 5.190371 -12.027075 0 CFG=1
M  V30 18 N 10.894363 0.712314 -20.582301 0
M  V30 19 N 7.136084 0.045468 -16.027468 0
M  V30 20 C 10.051829 1.070100 -19.453228 0
M  V30 21 C 9.633078 5.768743 -13.100362 0
M  V30 22 C 11.934477 7.516963 -9.864008 0
M  V30 23 C 8.838373 5.768966 -8.071259 0
M  V30 24 C 7.229667 4.167485 -14.306752 0
M  V30 25 C 7.240911 1.108338 -15.310649 0
M  V30 26 O 9.336799 8.569271 -10.592536 0
M  V30 27 C 7.892005 -0.249786 -17.169334 0
M  V30 28 O 11.834606 6.451426 -6.629621 0
M  V30 29 F 6.523470 6.378992 -12.624658 0
M  V30 30 N 5.403045 0.218476 -13.868576 0
M  V30 31 C 12.167990 1.395994 -20.472737 0
M  V30 32 C 8.958862 4.618577 -12.322146 0 CFG=2
M  V30 33 O 9.548576 6.063345 -10.478254 0
M  V30 34 C 8.235964 3.488751 -15.228282 0
M  V30 35 H 7.328084 1.472439 -18.240902 0
M  V30 36 H 9.011689 1.884136 -16.348500 0
M  V30 37 H 7.355039 3.233224 -12.370334 0
M  V30 38 H 9.060271 -1.824365 -17.876079 0
M  V30 39 H 7.108009 6.301764 -10.353626 0
M  V30 40 H 8.865154 4.178916 -10.215721 0
M  V30 41 H 8.140857 0.582467 -20.370947 0
M  V30 42 H 8.922192 -0.774586 -19.598842 0
M  V30 43 H 13.687477 8.569095 -10.552674 0
M  V30 44 H 12.568959 9.561561 -9.626530 0
M  V30 45 H 13.627309 8.387878 -8.814127 0
M  V30 46 H 13.177717 1.578650 -22.104066 0
M  V30 47 H 8.915878 8.797163 -8.512484 0
M  V30 48 H 7.056210 1.256641 -13.176496 0
M  V30 49 H 5.834634 2.179147 -14.024228 0
M  V30 50 H 5.604720 4.804676 -11.901173 0
M  V30 51 H 11.064865 -0.282440 -20.589554 0
M  V30 52 H 10.577293 0.838574 -18.524668 0
M  V30 53 H 9.861672 2.144800 -19.460227 0
M  V30 54 H 9.036673 6.679501 -13.070137 0
M  V30 55 H 10.620533 5.994501 -12.693765 0
M  V30 56 H 9.797417 5.510476 -14.142086 0
M  V30 57 H 12.433737 6.569295 -9.891606 0
M  V30 58 H 11.560766 7.612262 -10.881877 0
M  V30 59 H 8.494963 6.338200 -7.216976 0
M  V30 60 H 7.931507 5.267688 -8.390338 0
M  V30 61 H 9.543248 5.009102 -7.740119 0
M  V30 62 H 7.298561 5.200762 -14.644866 0
M  V30 63 H 6.192946 3.976377 -14.558415 0
M  V30 64 H 9.166798 7.766117 -11.068240 0
M  V30 65 H 4.866904 0.126448 -14.720454 0
M  V30 66 H 5.820744 -0.696150 -13.719951 0
M  V30 67 H 12.648409 1.187665 -19.514843 0
M  V30 68 H 12.048771 2.475412 -20.578925 0
M  V30 69 H 9.624530 3.754055 -12.321126 0
M  V30 70 H 9.032427 4.129032 -15.574812 0
M  V30 71 H 8.406657 -2.080158 -16.313351 0
M  V30 END ATOM
M  V30 BEGIN BOND
M  V30 1 1 5 1
M  V30 2 1 8 7
M  V30 3 1 9 1
M  V30 4 1 10 2
M  V30 5 1 11 9
M  V30 6 2 14 9
M  V30 7 1 15 1
M  V30 8 1 15 5
M  V30 9 1 17 4
M  V30 10 1 17 7
M  V30 11 1 20 10
M  V30 12 1 20 18
M  V30 13 1 1 22 CFG=3
M  V30 14 1 22 12
M  V30 15 1 23 5
M  V30 16 1 24 4
M  V30 17 1 25 3
M  V30 18 1 25 16
M  V30 19 2 25 19
M  V30 20 1 26 15
M  V30 21 2 27 2
M  V30 22 1 27 6
M  V30 23 1 27 19
M  V30 24 2 28 9
M  V30 25 1 29 17
M  V30 26 1 30 16
M  V30 27 1 31 13
M  V30 28 1 31 18
M  V30 29 1 32 4
M  V30 30 1 32 8
M  V30 31 1 32 21
M  V30 32 1 5 33 CFG=3
M  V30 33 1 33 8
M  V30 34 2 34 3
M  V30 35 1 34 24
M  V30 36 1 35 2
M  V30 37 1 36 3
M  V30 38 1 4 37 CFG=1
M  V30 39 1 38 6
M  V30 40 1 39 7
M  V30 41 1 8 40 CFG=1
M  V30 42 1 41 10
M  V30 43 1 42 10
M  V30 44 1 43 12
M  V30 45 1 44 12
M  V30 46 1 45 12
M  V30 47 1 46 13
M  V30 48 1 15 47 CFG=1
M  V30 49 1 48 16
M  V30 50 1 49 16
M  V30 51 1 17 50 CFG=1
M  V30 52 1 51 18
M  V30 53 1 52 20
M  V30 54 1 53 20
M  V30 55 1 54 21
M  V30 56 1 55 21
M  V30 57 1 56 21
M  V30 58 1 57 22
M  V30 59 1 58 22
M  V30 60 1 59 23
M  V30 61 1 60 23
M  V30 62 1 61 23
M  V30 63 1 62 24
M  V30 64 1 63 24
M  V30 65 1 64 26
M  V30 66 1 65 30
M  V30 67 1 66 30
M  V30 68 1 67 31
M  V30 69 1 68 31
M  V30 70 1 32 69 CFG=1
M  V30 71 1 70 34
M  V30 72 1 71 6
M  V30 END BOND
M  V30 END CTAB
M  END
>  <i_epik_Tot_Q>  (1) 
-1

>  <i_epik_Tot_abs_Q>  (1) 
1

>  <i_i_glide_confnum>  (1) 
1983

>  <i_i_glide_lignum>  (1) 
37

>  <i_i_glide_posenum>  (1) 
344

>  <i_i_glide_rotatable_bonds>  (1) 
15

>  <i_lp_mmshare_version>  (1) 
72125

>  <i_m_source_file_index>  (1) 
11

>  <i_f3d_flags>  (1) 
0

>  <num_sample>  (1) 
50

>  <b_lp_Chiralities_Consistent>  (1) 
1

>  <r_epik_Charging_Adjusted_Penalty>  (1) 
1.239197207418439

>  <r_epik_Ionization_Penalty>  (1) 
1.2496715491914541

>  <r_epik_Ionization_Penalty_Charging>  (1) 
1.1069707349969355e-11

>  <r_epik_Ionization_Penalty_Neutral>  (1) 
1.2496715491803843

>  <r_epik_State_Penalty>  (1) 
1.2391972074073692

>  <r_glide_ring_energy>  (1) 
0

>  <r_i_docking_score>  (1) 
-1.9768294026430546

>  <r_i_glide_ecoul>  (1) 
-7.8335104064579912

>  <r_i_glide_eff_state_penalty>  (1) 
1.2391972074073692

>  <r_i_glide_einternal>  (1) 
14.563078677069893

>  <r_i_glide_emodel>  (1) 
-29.933194674075644

>  <r_i_glide_emodel_strain>  (1) 
8.5575809260342055

>  <r_i_glide_energy>  (1) 
-38.863975399769068

>  <r_i_glide_erotb>  (1) 
0.82803537691766171

>  <r_i_glide_esite>  (1) 
-0.054496765099636628

>  <r_i_glide_evdw>  (1) 
-31.030464993311075

>  <r_i_glide_gscore>  (1) 
-3.2160266100504238

>  <r_i_glide_gscore_strain>  (1) 
1.1393952315085514

>  <r_i_glide_hbond>  (1) 
-0.52337431913140375

>  <r_i_glide_ligand_efficiency>  (1) 
-0.058142041254207487

>  <r_i_glide_ligand_efficiency_ln>  (1) 
-0.43673706323043965

>  <r_i_glide_ligand_efficiency_sa>  (1) 
-0.18835764299749289

>  <r_i_glide_lipo>  (1) 
-0.98131976433411494

>  <r_i_glide_metal>  (1) 
-0

>  <r_i_glide_rewards>  (1) 
-0.89771655927722871

>  <r_lp_Energy>  (1) 
27.690203

>  <s_epik_Chemistry_Notes>  (1) 
This compound has an imine and may undergo hydrolysis. This compound contains an acetal/aminal-like group ( X-CH(R)-Y where X, Y are N, S, or O) that may be acid/base labile, releasing an aldehyde.

>  <s_epik_cmdline>  (1) 
J2VwaWtfcHl0aG9uJywgJy1waHQnLCAnMS4wJywgJy1waCcsICc3LjQnLCAnLXRuJywgJzgnLCAnLW1hJywgJzUwMCcsICctaW1hZScsICc8aW5maWxlLm1hZT4nLCAnLW9tYWUnLCAnPG91dGZpbGUubWFlPic=

>  <s_epik_input>  (1) 
W1NIXVMoPU8pKD1PKVtDQEBdMShbQ0gyXVtDSDNdKVtDQEBdKFtDSDNdKShbQ0BASF0xW09IXSlPW0NASF0oW0NAQEhdMltDSDNdKVtOSF1bQ0BASF0oRilbQ0BIXTJbQ0gyXS9bQ0hdPVtDSF1cQyhbQ0gyXVtOSDJdKT1OL0MoPU4vW0hdKS9bQ0gyXVtDSDJdW0NIMl1bTkhdW0NIMl1bT0hd

>  <s_glide_docking_method>  (1) 
confgen

>  <s_i_glide_gridfile>  (1) 
gpcr_drd2_6luq_protein_autoprepared_prepared

>  <s_lp_Force_Field>  (1) 
S-OPLS

>  <s_lp_Variant>  (1) 
DiffSBDD_10_num_sample_50-17

>  <s_m_source_file>  (1) 
generated__ligand_DiffSBDD_2026-05-06_prepared.sdf

>  <GenAI_Model>  (1) 
DiffSBDD

>  <Protein>  (1) 
generic_title2

$$$$
DiffSBDD_19_num_sample_50
     RDKit          3D

  0  0  0  0  0  0  0  0  0  0999 V3000
M  V30 BEGIN CTAB
M  V30 COUNTS 78 83 0 0 1
M  V30 BEGIN ATOM
M  V30 1 C 12.947061 7.140307 -18.791368 0 CFG=1
M  V30 2 C 19.864470 6.197020 -19.771848 0
M  V30 3 O 11.034838 8.169300 -19.891667 0
M  V30 4 C 20.368372 6.117298 -21.008025 0
M  V30 5 C 16.928699 9.789941 -20.432447 0
M  V30 6 C 16.814495 10.169300 -21.710539 0
M  V30 7 C 14.161426 4.219161 -17.657039 0 CFG=2
M  V30 8 O 21.520431 4.889820 -22.580663 0 CHG=-1
M  V30 9 C 14.414591 8.025065 -20.469048 0 CFG=1
M  V30 10 C 15.159905 4.459682 -18.832856 0 CFG=1
M  V30 11 O 18.113732 9.465683 -19.901937 0
M  V30 12 O 19.874619 9.532900 -23.687581 0
M  V30 13 C 20.284428 7.234642 -22.028997 0
M  V30 14 C 12.107382 7.271055 -20.077977 0 CFG=1
M  V30 15 C 12.379393 6.130989 -17.773872 0
M  V30 16 C 12.942906 0.540165 -20.100785 0
M  V30 17 C 18.858359 8.438206 -20.351480 0
M  V30 18 C 15.497698 3.174364 -19.626583 0
M  V30 19 N 21.042353 4.905713 -21.450373 0 CHG=1
M  V30 20 C 13.946347 1.300773 -19.207296 0
M  V30 21 C 19.032358 9.411480 -22.652546 0
M  V30 22 C 19.354863 8.389927 -21.623178 0
M  V30 23 C 15.108118 0.303785 -18.955977 0
M  V30 24 O 14.631639 4.978240 -16.554457 0
M  V30 25 C 14.218166 2.770900 -17.088140 0
M  V30 26 O 14.351932 2.415156 -20.017152 0
M  V30 27 C 12.700671 4.641890 -18.029733 0 CFG=2
M  V30 28 C 14.409825 7.005961 -19.290586 0 CFG=2
M  V30 29 C 19.148302 7.414517 -19.256274 0
M  V30 30 O 15.858243 9.809144 -19.564047 0
M  V30 31 C 11.849263 2.285002 -17.893964 0
M  V30 32 C 13.061671 7.791897 -21.161535 0
M  V30 33 C 11.664396 3.720896 -17.374403 0
M  V30 34 C 14.802420 5.598037 -19.831612 0
M  V30 35 C 13.321312 1.772341 -17.851943 0 CFG=1
M  V30 36 C 14.552292 9.518159 -20.061119 0
M  V30 37 O 21.099075 3.955335 -20.675425 0
M  V30 38 O 15.364252 7.387843 -18.318455 0
M  V30 39 C 17.903577 10.179824 -22.675490 0
M  V30 40 H 12.883043 8.098966 -18.275417 0
M  V30 41 H 19.960170 5.369277 -19.091671 0
M  V30 42 H 11.358784 8.936537 -19.439794 0
M  V30 43 H 15.854060 10.506767 -22.058082 0
M  V30 44 H 15.212975 7.802155 -21.177284 0
M  V30 45 H 16.112868 4.756963 -18.390980 0
M  V30 46 H 20.574758 8.911770 -23.559411 0
M  V30 47 H 21.288583 7.624917 -22.197380 0
M  V30 48 H 19.924079 6.827170 -22.974761 0
M  V30 49 H 11.704669 6.305201 -20.385564 0
M  V30 50 H 12.672137 6.425995 -16.766758 0
M  V30 51 H 11.296916 6.261771 -17.772346 0
M  V30 52 H 12.414416 -0.230687 -19.540097 0
M  V30 53 H 13.451972 0.049855 -20.931426 0
M  V30 54 H 12.203670 1.196963 -20.557060 0
M  V30 55 H 16.013930 3.449726 -20.546558 0
M  V30 56 H 16.234908 2.584246 -19.091640 0
M  V30 57 H 14.731362 -0.643195 -18.566408 0
M  V30 58 H 15.834840 0.655124 -18.228120 0
M  V30 59 H 15.645322 0.079688 -19.878071 0
M  V30 60 H 13.995845 4.920511 -15.857062 0
M  V30 61 H 15.245704 2.421574 -17.003319 0
M  V30 62 H 13.863649 2.772240 -16.056501 0
M  V30 63 H 12.549290 4.459405 -19.092818 0
M  V30 64 H 19.741466 7.881557 -18.470347 0
M  V30 65 H 18.202775 7.102960 -18.810791 0
M  V30 66 H 11.210677 1.614548 -17.318072 0
M  V30 67 H 11.443612 2.266846 -18.901104 0
M  V30 68 H 12.685845 8.679189 -21.673465 0
M  V30 69 H 13.175768 7.026966 -21.930598 0
M  V30 70 H 11.755739 3.769292 -16.291665 0
M  V30 71 H 10.651281 4.050915 -17.606522 0
M  V30 72 H 15.686362 5.730513 -20.456853 0
M  V30 73 H 14.039379 5.241740 -20.523019 0
M  V30 74 H 13.281594 0.877447 -17.228245 0
M  V30 75 H 14.255167 10.169300 -20.877034 0
M  V30 76 H 13.850753 9.769709 -19.268107 0
M  V30 77 H 15.373122 8.332914 -18.260487 0
M  V30 78 H 17.779908 10.828357 -23.531304 0
M  V30 END ATOM
M  V30 BEGIN BOND
M  V30 1 2 4 2
M  V30 2 2 6 5
M  V30 3 1 10 7
M  V30 4 1 11 5
M  V30 5 1 13 4
M  V30 6 1 14 1
M  V30 7 1 14 3
M  V30 8 1 15 1
M  V30 9 1 17 11
M  V30 10 1 18 10
M  V30 11 1 19 4
M  V30 12 1 19 8
M  V30 13 1 20 16
M  V30 14 1 21 12
M  V30 15 1 22 13
M  V30 16 2 22 17
M  V30 17 1 22 21
M  V30 18 1 23 20
M  V30 19 1 7 24 CFG=1
M  V30 20 1 25 7
M  V30 21 1 26 18
M  V30 22 1 26 20
M  V30 23 1 27 7
M  V30 24 1 27 15
M  V30 25 1 28 1
M  V30 26 1 28 9
M  V30 27 1 29 2
M  V30 28 1 29 17
M  V30 29 1 30 5
M  V30 30 1 32 9
M  V30 31 1 32 14
M  V30 32 1 33 27
M  V30 33 1 33 31
M  V30 34 1 34 10
M  V30 35 1 34 28
M  V30 36 1 35 20
M  V30 37 1 35 25
M  V30 38 1 35 31
M  V30 39 1 36 9
M  V30 40 1 36 30
M  V30 41 2 37 19
M  V30 42 1 28 38 CFG=1
M  V30 43 1 39 6
M  V30 44 2 39 21
M  V30 45 1 1 40 CFG=1
M  V30 46 1 41 2
M  V30 47 1 42 3
M  V30 48 1 43 6
M  V30 49 1 9 44 CFG=3
M  V30 50 1 10 45 CFG=1
M  V30 51 1 46 12
M  V30 52 1 47 13
M  V30 53 1 48 13
M  V30 54 1 14 49 CFG=3
M  V30 55 1 50 15
M  V30 56 1 51 15
M  V30 57 1 52 16
M  V30 58 1 53 16
M  V30 59 1 54 16
M  V30 60 1 55 18
M  V30 61 1 56 18
M  V30 62 1 57 23
M  V30 63 1 58 23
M  V30 64 1 59 23
M  V30 65 1 60 24
M  V30 66 1 61 25
M  V30 67 1 62 25
M  V30 68 1 27 63 CFG=3
M  V30 69 1 64 29
M  V30 70 1 65 29
M  V30 71 1 66 31
M  V30 72 1 67 31
M  V30 73 1 68 32
M  V30 74 1 69 32
M  V30 75 1 70 33
M  V30 76 1 71 33
M  V30 77 1 72 34
M  V30 78 1 73 34
M  V30 79 1 35 74 CFG=1
M  V30 80 1 75 36
M  V30 81 1 76 36
M  V30 82 1 77 38
M  V30 83 1 78 39
M  V30 END BOND
M  V30 END CTAB
M  END
>  <i_epik_Tot_Q>  (1) 
0

>  <i_epik_Tot_abs_Q>  (1) 
2

>  <i_i_glide_confnum>  (1) 
9

>  <i_i_glide_lignum>  (1) 
56

>  <i_i_glide_posenum>  (1) 
172

>  <i_i_glide_rotatable_bonds>  (1) 
8

>  <i_lp_mmshare_version>  (1) 
72125

>  <i_m_source_file_index>  (1) 
20

>  <i_f3d_flags>  (1) 
0

>  <num_sample>  (1) 
50

>  <b_lp_Chiralities_Consistent>  (1) 
1

>  <r_epik_Charging_Adjusted_Penalty>  (1) 
0.77299719136223677

>  <r_epik_Ionization_Penalty>  (1) 
0.77299806013173578

>  <r_epik_Ionization_Penalty_Charging>  (1) 
0

>  <r_epik_Ionization_Penalty_Neutral>  (1) 
0.77299806013173578

>  <r_epik_State_Penalty>  (1) 
0.77299719136223677

>  <r_glide_ring_energy>  (1) 
0

>  <r_i_docking_score>  (1) 
-1.9698523531415866

>  <r_i_glide_ecoul>  (1) 
-3.0600799079564669

>  <r_i_glide_eff_state_penalty>  (1) 
0.77299719136223677

>  <r_i_glide_einternal>  (1) 
1.4783442885888891

>  <r_i_glide_emodel>  (1) 
-33.451008438563889

>  <r_i_glide_emodel_strain>  (1) 
0.17794450770841763

>  <r_i_glide_energy>  (1) 
-30.805525307988308

>  <r_i_glide_erotb>  (1) 
0.20863989142985551

>  <r_i_glide_esite>  (1) 
0

>  <r_i_glide_evdw>  (1) 
-27.745445400031841

>  <r_i_glide_gscore>  (1) 
-2.7428495445038235

>  <r_i_glide_gscore_strain>  (1) 
0

>  <r_i_glide_hbond>  (1) 
-0.18697194701193753

>  <r_i_glide_ligand_efficiency>  (1) 
-0.050509034695938114

>  <r_i_glide_ligand_efficiency_ln>  (1) 
-0.42239226209787406

>  <r_i_glide_ligand_efficiency_sa>  (1) 
-0.17128681643646493

>  <r_i_glide_lipo>  (1) 
-0.88511393761829316

>  <r_i_glide_metal>  (1) 
-0

>  <r_i_glide_rewards>  (1) 
-0.033119295108386328

>  <r_lp_Energy>  (1) 
64.670022000000003

>  <s_epik_cmdline>  (1) 
J2VwaWtfcHl0aG9uJywgJy1waHQnLCAnMS4wJywgJy1waCcsICc3LjQnLCAnLXRuJywgJzgnLCAnLW1hJywgJzUwMCcsICctaW1hZScsICc8aW5maWxlLm1hZT4nLCAnLW9tYWUnLCAnPG91dGZpbGUubWFlPic=

>  <s_epik_input>  (1) 
W09IXVtDQEBdMTJbQ0BIXTNbQ0gyXU9DKFtDSDNdKShbQ0gzXSlbQ0BASF0oW0NIMl0xKVtDSDJdW0NIMl1bQ0BIXTJbQ0gyXVtDQEhdNFtDQF0oW0NIMl0zKShbT0hdKVtDQEBIXShbQ0gyXVtDQEBIXTRbT0hdKVtDSDJdT0MoTzUpPVtDSF1bQ0hdPUMoW09IXSlDKD1DNTYpW0NIMl1DKFtOK10oW08tXSk9Tyk9W0NIXVtDSDJdNg==

>  <s_glide_docking_method>  (1) 
confgen

>  <s_i_glide_gridfile>  (1) 
gpcr_drd2_6luq_protein_autoprepared_prepared

>  <s_lp_Force_Field>  (1) 
S-OPLS

>  <s_lp_Variant>  (1) 
DiffSBDD_19_num_sample_50-2

>  <s_m_source_file>  (1) 
generated__ligand_DiffSBDD_2026-05-06_prepared.sdf

>  <GenAI_Model>  (1) 
DiffSBDD

>  <Protein>  (1) 
generic_title2

$$$$
DiffSBDD_19_num_sample_50
     RDKit          3D

  0  0  0  0  0  0  0  0  0  0999 V3000
M  V30 BEGIN CTAB
M  V30 COUNTS 77 82 0 0 1
M  V30 BEGIN ATOM
M  V30 1 C 8.830142 5.538117 -17.576455 0 CFG=1
M  V30 2 C 9.339172 -0.220930 -19.505242 0
M  V30 3 O 11.270956 5.457684 -17.765223 0
M  V30 4 C 8.227750 -0.631939 -20.115281 0
M  V30 5 C 7.525615 0.904697 -15.235505 0
M  V30 6 C 6.239236 0.806566 -15.129354 0
M  V30 7 C 6.316550 5.654338 -19.850706 0 CFG=2
M  V30 8 O 9.289624 -0.774381 -22.157540 0 CHG=-1
M  V30 9 C 8.540891 3.522146 -16.248009 0 CFG=1
M  V30 10 C 5.914211 4.357156 -19.083738 0 CFG=1
M  V30 11 O 8.207300 0.123169 -16.008340 0
M  V30 12 O 4.641485 -1.092464 -17.833474 0 CHG=-1
M  V30 13 C 6.907110 -0.833389 -19.411761 0
M  V30 14 C 10.085570 4.690707 -17.706808 0 CFG=1
M  V30 15 C 8.541777 6.493767 -18.749017 0
M  V30 16 C 7.560270 2.743014 -22.953218 0
M  V30 17 C 8.050763 -0.030307 -17.314852 0
M  V30 18 C 5.447906 3.224132 -20.012985 0
M  V30 19 N 8.235887 -0.916303 -21.541810 0 CHG=1
M  V30 20 C 6.384988 3.460118 -22.264478 0
M  V30 21 C 5.598504 -0.560319 -17.232233 0
M  V30 22 C 6.876598 -0.433419 -17.919681 0
M  V30 23 C 5.090061 2.958786 -22.928801 0
M  V30 24 O 5.755433 6.723856 -19.106780 0
M  V30 25 C 5.634184 5.758334 -21.248359 0
M  V30 26 O 6.477261 2.926548 -20.945332 0
M  V30 27 C 7.870217 5.847987 -19.976952 0 CFG=2
M  V30 28 C 7.729286 4.565956 -17.085945 0 CFG=2
M  V30 29 C 9.396833 0.086158 -18.039639 0
M  V30 30 O 8.234859 1.787846 -14.472256 0
M  V30 31 C 7.850103 5.706956 -22.483349 0
M  V30 32 C 10.027267 3.889899 -16.414861 0
M  V30 33 C 8.247076 6.574148 -21.275280 0
M  V30 34 C 6.995326 3.736340 -18.169484 0
M  V30 35 C 6.449761 5.033696 -22.347735 0 CFG=1
M  V30 36 C 8.024365 3.168258 -14.814581 0
M  V30 37 O 7.188982 -1.287206 -22.064329 0
M  V30 38 O 6.807197 5.329816 -16.328639 0
M  V30 39 C 5.359954 -0.039353 -15.913945 0
M  V30 40 H 9.062706 6.168191 -16.722948 0
M  V30 41 H 10.253881 -0.095846 -20.063717 0
M  V30 42 H 12.010332 4.871020 -17.717228 0
M  V30 43 H 5.769742 1.435937 -14.392244 0
M  V30 44 H 8.507238 2.593450 -16.805572 0
M  V30 45 H 5.038735 4.585375 -18.471197 0
M  V30 46 H 6.144711 -0.252247 -19.935025 0
M  V30 47 H 6.627988 -1.885072 -19.492421 0
M  V30 48 H 10.025536 4.033053 -18.575019 0
M  V30 49 H 7.982253 7.363609 -18.401512 0
M  V30 50 H 9.497520 6.919394 -19.053986 0
M  V30 51 H 7.747983 3.139364 -23.946729 0
M  V30 52 H 7.366998 1.674330 -23.050288 0
M  V30 53 H 8.479939 2.831331 -22.374809 0
M  V30 54 H 5.269414 2.321842 -19.428416 0
M  V30 55 H 4.483203 3.436777 -20.462880 0
M  V30 56 H 5.160880 3.036612 -24.007091 0
M  V30 57 H 4.234581 3.561133 -22.641590 0
M  V30 58 H 4.885087 1.915293 -22.687981 0
M  V30 59 H 6.093591 6.666475 -18.222342 0
M  V30 60 H 4.591789 5.442079 -21.225664 0
M  V30 61 H 5.563799 6.807642 -21.538090 0
M  V30 62 H 8.334128 4.873064 -20.114015 0
M  V30 63 H 9.797074 1.090213 -17.910092 0
M  V30 64 H 10.104428 -0.597968 -17.571888 0
M  V30 65 H 7.853864 6.342201 -23.369761 0
M  V30 66 H 8.644315 4.986087 -22.655452 0
M  V30 67 H 10.375769 4.492070 -15.571785 0
M  V30 68 H 10.672237 3.021307 -16.535543 0
M  V30 69 H 7.758035 7.547790 -21.310693 0
M  V30 70 H 9.318950 6.772297 -21.321418 0
M  V30 71 H 6.516540 2.897055 -17.662684 0
M  V30 72 H 7.746166 3.249311 -18.791912 0
M  V30 73 H 5.959081 5.282018 -23.290149 0
M  V30 74 H 8.528840 3.788601 -14.073702 0
M  V30 75 H 6.962916 3.389798 -14.709715 0
M  V30 76 H 6.202181 4.740576 -15.904856 0
M  V30 77 H 4.361199 -0.163510 -15.520246 0
M  V30 END ATOM
M  V30 BEGIN BOND
M  V30 1 2 4 2
M  V30 2 2 6 5
M  V30 3 1 10 7
M  V30 4 1 11 5
M  V30 5 1 13 4
M  V30 6 1 14 1
M  V30 7 1 14 3
M  V30 8 1 15 1
M  V30 9 1 17 11
M  V30 10 1 18 10
M  V30 11 1 19 4
M  V30 12 1 19 8
M  V30 13 1 20 16
M  V30 14 1 21 12
M  V30 15 1 22 13
M  V30 16 2 22 17
M  V30 17 1 22 21
M  V30 18 1 23 20
M  V30 19 1 7 24 CFG=1
M  V30 20 1 25 7
M  V30 21 1 26 18
M  V30 22 1 26 20
M  V30 23 1 27 7
M  V30 24 1 27 15
M  V30 25 1 28 1
M  V30 26 1 28 9
M  V30 27 1 29 2
M  V30 28 1 29 17
M  V30 29 1 30 5
M  V30 30 1 32 9
M  V30 31 1 32 14
M  V30 32 1 33 27
M  V30 33 1 33 31
M  V30 34 1 34 10
M  V30 35 1 34 28
M  V30 36 1 35 20
M  V30 37 1 35 25
M  V30 38 1 35 31
M  V30 39 1 36 9
M  V30 40 1 36 30
M  V30 41 2 37 19
M  V30 42 1 28 38 CFG=1
M  V30 43 1 39 6
M  V30 44 2 39 21
M  V30 45 1 1 40 CFG=1
M  V30 46 1 41 2
M  V30 47 1 42 3
M  V30 48 1 43 6
M  V30 49 1 9 44 CFG=3
M  V30 50 1 10 45 CFG=1
M  V30 51 1 46 13
M  V30 52 1 47 13
M  V30 53 1 14 48 CFG=3
M  V30 54 1 49 15
M  V30 55 1 50 15
M  V30 56 1 51 16
M  V30 57 1 52 16
M  V30 58 1 53 16
M  V30 59 1 54 18
M  V30 60 1 55 18
M  V30 61 1 56 23
M  V30 62 1 57 23
M  V30 63 1 58 23
M  V30 64 1 59 24
M  V30 65 1 60 25
M  V30 66 1 61 25
M  V30 67 1 27 62 CFG=3
M  V30 68 1 63 29
M  V30 69 1 64 29
M  V30 70 1 65 31
M  V30 71 1 66 31
M  V30 72 1 67 32
M  V30 73 1 68 32
M  V30 74 1 69 33
M  V30 75 1 70 33
M  V30 76 1 71 34
M  V30 77 1 72 34
M  V30 78 1 35 73 CFG=3
M  V30 79 1 74 36
M  V30 80 1 75 36
M  V30 81 1 76 38
M  V30 82 1 77 39
M  V30 END BOND
M  V30 END CTAB
M  END
>  <i_epik_Tot_Q>  (1) 
-1

>  <i_epik_Tot_abs_Q>  (1) 
3

>  <i_i_glide_confnum>  (1) 
6

>  <i_i_glide_lignum>  (1) 
55

>  <i_i_glide_posenum>  (1) 
190

>  <i_i_glide_rotatable_bonds>  (1) 
7

>  <i_lp_mmshare_version>  (1) 
72125

>  <i_m_source_file_index>  (1) 
20

>  <i_f3d_flags>  (1) 
0

>  <num_sample>  (1) 
50

>  <b_lp_Chiralities_Consistent>  (1) 
1

>  <r_epik_Charging_Adjusted_Penalty>  (1) 
0.37497455050254402

>  <r_epik_Ionization_Penalty>  (1) 
0.18748815805699803

>  <r_epik_Ionization_Penalty_Charging>  (1) 
0.18748727525127204

>  <r_epik_Ionization_Penalty_Neutral>  (1) 
8.8280572598136269e-07

>  <r_epik_State_Penalty>  (1) 
0.18748727525127201

>  <r_glide_ring_energy>  (1) 
0

>  <r_i_docking_score>  (1) 
-1.936013951353476

>  <r_i_glide_ecoul>  (1) 
1.90402012719236

>  <r_i_glide_eff_state_penalty>  (1) 
0.18748727525127201

>  <r_i_glide_einternal>  (1) 
6.1903551521861404

>  <r_i_glide_emodel>  (1) 
-18.26725021895702

>  <r_i_glide_emodel_strain>  (1) 
0.29884231707671916

>  <r_i_glide_energy>  (1) 
-19.568524347963873

>  <r_i_glide_erotb>  (1) 
0.20935287492175977

>  <r_i_glide_esite>  (1) 
-0.00096685210682386196

>  <r_i_glide_evdw>  (1) 
-21.472544475156234

>  <r_i_glide_gscore>  (1) 
-2.1235012266047479

>  <r_i_glide_gscore_strain>  (1) 
0

>  <r_i_glide_hbond>  (1) 
0

>  <r_i_glide_ligand_efficiency>  (1) 
-0.049641383368037847

>  <r_i_glide_ligand_efficiency_ln>  (1) 
-0.41513634819434636

>  <r_i_glide_ligand_efficiency_sa>  (1) 
-0.16834442732474311

>  <r_i_glide_lipo>  (1) 
-1.5438585094214925

>  <r_i_glide_metal>  (1) 
-0

>  <r_i_glide_rewards>  (1) 
-4.5353192334582391e-06

>  <r_lp_Energy>  (1) 
69.26473

>  <s_epik_cmdline>  (1) 
J2VwaWtfcHl0aG9uJywgJy1waHQnLCAnMS4wJywgJy1waCcsICc3LjQnLCAnLXRuJywgJzgnLCAnLW1hJywgJzUwMCcsICctaW1hZScsICc8aW5maWxlLm1hZT4nLCAnLW9tYWUnLCAnPG91dGZpbGUubWFlPic=

>  <s_epik_input>  (1) 
W09IXVtDQEBdMTJbQ0BIXTNbQ0gyXU9DKFtDSDNdKShbQ0gzXSlbQ0BASF0oW0NIMl0xKVtDSDJdW0NIMl1bQ0BIXTJbQ0gyXVtDQEhdNFtDQF0oW0NIMl0zKShbT0hdKVtDQEBIXShbQ0gyXVtDQEBIXTRbT0hdKVtDSDJdT0MoTzUpPVtDSF1bQ0hdPUMoW09IXSlDKD1DNTYpW0NIMl1DKFtOK10oW08tXSk9Tyk9W0NIXVtDSDJdNg==

>  <s_glide_docking_method>  (1) 
confgen

>  <s_i_glide_gridfile>  (1) 
gpcr_drd2_6luq_protein_autoprepared_prepared

>  <s_lp_Force_Field>  (1) 
S-OPLS

>  <s_lp_Variant>  (1) 
DiffSBDD_19_num_sample_50-1

>  <s_m_source_file>  (1) 
generated__ligand_DiffSBDD_2026-05-06_prepared.sdf

>  <GenAI_Model>  (1) 
DiffSBDD

>  <Protein>  (1) 
generic_title2

$$$$
DiffSBDD_10_num_sample_50
     RDKit          3D

  0  0  0  0  0  0  0  0  0  0999 V3000
M  V30 BEGIN CTAB
M  V30 COUNTS 71 72 0 0 1
M  V30 BEGIN ATOM
M  V30 1 C 12.992216 4.788047 -17.757473 0 CFG=2
M  V30 2 C 9.452850 6.896718 -12.480872 0
M  V30 3 C 5.470576 5.707903 -14.335275 0
M  V30 4 C 7.471256 4.779531 -17.201110 0 CFG=1
M  V30 5 C 11.825639 4.649451 -18.751797 0 CFG=2
M  V30 6 N 9.434803 4.493235 -12.697572 0
M  V30 7 N 9.221779 3.203697 -17.344838 0
M  V30 8 C 9.486536 4.125037 -18.398206 0 CFG=1
M  V30 9 S 14.607341 5.443827 -18.462455 0
M  V30 10 C 10.705888 6.970360 -11.646171 0
M  V30 11 S 15.980392 4.569144 -17.095509 0 CHG=-1
M  V30 12 C 12.580447 6.626752 -15.981875 0
M  V30 13 O 8.634784 5.770081 -7.560281 0
M  V30 14 O 14.884864 4.847883 -19.778596 0
M  V30 15 C 12.658621 3.435998 -18.361131 0 CFG=2
M  V30 16 C 6.229607 5.804497 -11.880827 0
M  V30 17 C 8.440670 3.928721 -16.358734 0 CFG=2
M  V30 18 N 9.692688 6.305051 -9.489262 0
M  V30 19 N 7.809677 5.743020 -13.751199 0
M  V30 20 C 10.504469 7.301687 -10.160998 0
M  V30 21 C 8.565814 6.445092 -18.997537 0
M  V30 22 C 12.767669 5.134234 -16.283700 0
M  V30 23 C 11.827583 5.234569 -20.153171 0
M  V30 24 C 6.891160 6.031798 -16.484404 0
M  V30 25 C 6.605016 5.751257 -13.365466 0
M  V30 26 O 12.030956 2.517470 -17.491652 0
M  V30 27 C 8.927023 5.749141 -12.945472 0
M  V30 28 O 14.674947 6.902458 -18.287314 0
M  V30 29 F 7.816796 3.077501 -15.545073 0
M  V30 30 N 6.526772 4.568889 -11.177511 0
M  V30 31 C 9.540453 6.693773 -8.101794 0
M  V30 32 C 8.232212 5.011328 -18.538279 0 CFG=2
M  V30 33 O 10.594447 4.913711 -18.063713 0
M  V30 34 C 5.592689 5.821748 -15.692744 0
M  V30 35 H 8.976586 7.838012 -12.714391 0
M  V30 36 H 4.501212 5.576256 -13.891678 0
M  V30 37 H 6.634809 4.133951 -17.461879 0
M  V30 38 H 10.319030 4.368065 -12.223944 0
M  V30 39 H 10.091241 2.848259 -16.961170 0
M  V30 40 H 9.693406 3.582334 -19.321955 0
M  V30 41 H 11.294074 7.769297 -12.053376 0
M  V30 42 H 11.319979 6.108840 -11.891719 0
M  V30 43 H 12.238369 6.765702 -14.954493 0
M  V30 44 H 13.510714 7.184076 -16.087992 0
M  V30 45 H 11.834970 7.066750 -16.643610 0
M  V30 46 H 7.791980 6.213538 -7.479180 0
M  V30 47 H 13.329631 2.973995 -19.084062 0
M  V30 48 H 6.781290 6.616375 -11.407507 0
M  V30 49 H 5.171821 6.040554 -11.760736 0
M  V30 50 H 9.106361 4.555969 -15.764530 0
M  V30 51 H 8.768934 6.323320 -9.903732 0
M  V30 52 H 10.034144 8.282563 -10.065237 0
M  V30 53 H 11.476366 7.366681 -9.669915 0
M  V30 54 H 9.204797 6.965631 -18.291705 0
M  V30 55 H 9.089710 6.434163 -19.951498 0
M  V30 56 H 7.666977 7.040471 -19.146528 0
M  V30 57 H 11.883037 4.605623 -15.930946 0
M  V30 58 H 13.594440 4.746812 -15.691002 0
M  V30 59 H 12.645075 4.833074 -20.748272 0
M  V30 60 H 10.903672 4.986123 -20.672419 0
M  V30 61 H 11.920396 6.319198 -20.107537 0
M  V30 62 H 6.577927 6.749263 -17.240756 0
M  V30 63 H 7.653001 6.569156 -15.939515 0
M  V30 64 H 12.655192 2.278237 -16.820364 0
M  V30 65 H 7.520823 4.393650 -11.260840 0
M  V30 66 H 6.350314 4.707100 -10.189907 0
M  V30 67 H 9.138775 7.704287 -8.002706 0
M  V30 68 H 10.496234 6.638356 -7.578385 0
M  V30 69 H 7.629224 4.564451 -19.330718 0
M  V30 70 H 4.695564 5.769453 -16.291684 0
M  V30 71 H 9.065067 3.678440 -13.164576 0
M  V30 END ATOM
M  V30 BEGIN BOND
M  V30 1 1 5 1
M  V30 2 1 8 7
M  V30 3 1 9 1
M  V30 4 1 10 2
M  V30 5 1 11 9
M  V30 6 2 14 9
M  V30 7 1 15 1
M  V30 8 1 15 5
M  V30 9 1 17 4
M  V30 10 1 17 7
M  V30 11 1 20 10
M  V30 12 1 20 18
M  V30 13 1 1 22 CFG=1
M  V30 14 1 22 12
M  V30 15 1 23 5
M  V30 16 1 24 4
M  V30 17 1 25 3
M  V30 18 1 25 16
M  V30 19 2 25 19
M  V30 20 1 26 15
M  V30 21 2 27 2
M  V30 22 1 27 6
M  V30 23 1 27 19
M  V30 24 2 28 9
M  V30 25 1 29 17
M  V30 26 1 30 16
M  V30 27 1 31 13
M  V30 28 1 31 18
M  V30 29 1 32 4
M  V30 30 1 32 8
M  V30 31 1 32 21
M  V30 32 1 5 33 CFG=1
M  V30 33 1 33 8
M  V30 34 2 34 3
M  V30 35 1 34 24
M  V30 36 1 35 2
M  V30 37 1 36 3
M  V30 38 1 4 37 CFG=3
M  V30 39 1 38 6
M  V30 40 1 39 7
M  V30 41 1 8 40 CFG=3
M  V30 42 1 41 10
M  V30 43 1 42 10
M  V30 44 1 43 12
M  V30 45 1 44 12
M  V30 46 1 45 12
M  V30 47 1 46 13
M  V30 48 1 15 47 CFG=3
M  V30 49 1 48 16
M  V30 50 1 49 16
M  V30 51 1 17 50 CFG=1
M  V30 52 1 51 18
M  V30 53 1 52 20
M  V30 54 1 53 20
M  V30 55 1 54 21
M  V30 56 1 55 21
M  V30 57 1 56 21
M  V30 58 1 57 22
M  V30 59 1 58 22
M  V30 60 1 59 23
M  V30 61 1 60 23
M  V30 62 1 61 23
M  V30 63 1 62 24
M  V30 64 1 63 24
M  V30 65 1 64 26
M  V30 66 1 65 30
M  V30 67 1 66 30
M  V30 68 1 67 31
M  V30 69 1 68 31
M  V30 70 1 32 69 CFG=3
M  V30 71 1 70 34
M  V30 72 1 71 6
M  V30 END BOND
M  V30 END CTAB
M  END
>  <i_epik_Tot_Q>  (1) 
-1

>  <i_epik_Tot_abs_Q>  (1) 
1

>  <i_i_glide_confnum>  (1) 
494

>  <i_i_glide_lignum>  (1) 
43

>  <i_i_glide_posenum>  (1) 
195

>  <i_i_glide_rotatable_bonds>  (1) 
15

>  <i_lp_mmshare_version>  (1) 
72125

>  <i_m_source_file_index>  (1) 
11

>  <i_f3d_flags>  (1) 
0

>  <num_sample>  (1) 
50

>  <b_lp_Chiralities_Consistent>  (1) 
1

>  <r_epik_Charging_Adjusted_Penalty>  (1) 
1.239197207418439

>  <r_epik_Ionization_Penalty>  (1) 
1.2496715491914541

>  <r_epik_Ionization_Penalty_Charging>  (1) 
1.1069707349969355e-11

>  <r_epik_Ionization_Penalty_Neutral>  (1) 
1.2496715491803843

>  <r_epik_State_Penalty>  (1) 
1.2391972074073692

>  <r_glide_ring_energy>  (1) 
0

>  <r_i_docking_score>  (1) 
-1.9146950488567069

>  <r_i_glide_ecoul>  (1) 
-5.7972831632833577

>  <r_i_glide_eff_state_penalty>  (1) 
1.2391972074073692

>  <r_i_glide_einternal>  (1) 
18.062960444797078

>  <r_i_glide_emodel>  (1) 
-29.207692149113502

>  <r_i_glide_emodel_strain>  (1) 
1.3281915176275589

>  <r_i_glide_energy>  (1) 
-32.388542162003532

>  <r_i_glide_erotb>  (1) 
0.82803537691766171

>  <r_i_glide_esite>  (1) 
-0.080953940084231804

>  <r_i_glide_evdw>  (1) 
-26.591258998720171

>  <r_i_glide_gscore>  (1) 
-3.1538922562640761

>  <r_i_glide_gscore_strain>  (1) 
0

>  <r_i_glide_hbond>  (1) 
-0.27207660844409676

>  <r_i_glide_ligand_efficiency>  (1) 
-0.056314560260491378

>  <r_i_glide_ligand_efficiency_ln>  (1) 
-0.42300984166944466

>  <r_i_glide_ligand_efficiency_sa>  (1) 
-0.18243731400363988

>  <r_i_glide_lipo>  (1) 
-1.0933015954008374

>  <r_i_glide_metal>  (1) 
-0

>  <r_i_glide_rewards>  (1) 
-0.33644006482405941

>  <r_lp_Energy>  (1) 
20.991564

>  <s_epik_Chemistry_Notes>  (1) 
This compound has an imine and may undergo hydrolysis. This compound contains an acetal/aminal-like group ( X-CH(R)-Y where X, Y are N, S, or O) that may be acid/base labile, releasing an aldehyde.

>  <s_epik_cmdline>  (1) 
J2VwaWtfcHl0aG9uJywgJy1waHQnLCAnMS4wJywgJy1waCcsICc3LjQnLCAnLXRuJywgJzgnLCAnLW1hJywgJzUwMCcsICctaW1hZScsICc8aW5maWxlLm1hZT4nLCAnLW9tYWUnLCAnPG91dGZpbGUubWFlPic=

>  <s_epik_input>  (1) 
W1NIXVMoPU8pKD1PKVtDQEBdMShbQ0gyXVtDSDNdKVtDQEBdKFtDSDNdKShbQ0BASF0xW09IXSlPW0NASF0oW0NAQEhdMltDSDNdKVtOSF1bQ0BASF0oRilbQ0BIXTJbQ0gyXS9bQ0hdPVtDSF1cQyhbQ0gyXVtOSDJdKT1OXEMoPU5cW0hdKVxbQ0gyXVtDSDJdW0NIMl1bTkhdW0NIMl1bT0hd

>  <s_glide_docking_method>  (1) 
confgen

>  <s_i_glide_gridfile>  (1) 
gpcr_drd2_6luq_protein_autoprepared_prepared

>  <s_lp_Force_Field>  (1) 
S-OPLS

>  <s_lp_Variant>  (1) 
DiffSBDD_10_num_sample_50-23

>  <s_m_source_file>  (1) 
generated__ligand_DiffSBDD_2026-05-06_prepared.sdf

>  <GenAI_Model>  (1) 
DiffSBDD

>  <Protein>  (1) 
generic_title2

$$$$
DiffSBDD_47_num_sample_50
     RDKit          3D

  0  0  0  0  0  0  0  0  0  0999 V3000
M  V30 BEGIN CTAB
M  V30 COUNTS 61 63 0 0 1
M  V30 BEGIN ATOM
M  V30 1 C 5.040640 7.543632 -18.666497 0
M  V30 2 C 9.380910 4.048839 -10.940884 0
M  V30 3 O 10.014461 5.415978 -9.079098 0
M  V30 4 N 7.191549 4.745659 -17.738524 0
M  V30 5 C 4.734014 4.241671 -13.319112 0
M  V30 6 O 8.291812 5.727786 -17.972244 0
M  V30 7 N 5.881033 7.668484 -20.769226 0
M  V30 8 C 8.170739 4.538291 -15.252993 0
M  V30 9 C 9.432598 5.289164 -10.306201 0
M  V30 10 C 6.287850 2.328478 -13.069719 0
M  V30 11 O 8.593749 3.034076 -16.999551 0
M  V30 12 C 8.096875 6.267288 -12.091118 0
M  V30 13 C 8.029996 4.979413 -12.733961 0
M  V30 14 C 3.404379 6.502334 -17.109158 0
M  V30 15 O 9.035763 7.597104 -10.287763 0
M  V30 16 N 4.861006 7.996796 -19.939612 0
M  V30 17 F 7.679472 8.610421 -12.049375 0
M  V30 18 C 7.612339 3.942832 -16.598718 0 CFG=2
M  V30 19 C 7.288245 7.478568 -12.616743 0
M  V30 20 C 4.069199 7.764220 -17.559887 0
M  V30 21 C 8.720988 3.901333 -12.162487 0
M  V30 22 C 5.824143 7.319140 -12.147130 0
M  V30 23 N 6.740886 6.995855 -20.028890 0
M  V30 24 C 8.873741 6.399231 -10.896051 0
M  V30 25 C 8.117165 1.823419 -17.580740 0
M  V30 26 C 6.235547 6.905610 -18.719578 0
M  V30 27 C 6.067755 3.665483 -13.791951 0
M  V30 28 C 7.416443 7.807775 -14.106337 0
M  V30 29 C 6.975001 6.172353 -17.615323 0 CFG=1
M  V30 30 C 7.201404 4.737433 -14.018974 0 CFG=2
M  V30 31 H 9.829621 3.189972 -10.473254 0
M  V30 32 H 9.762736 6.249235 -8.702262 0
M  V30 33 H 4.773432 4.557030 -12.277874 0
M  V30 34 H 3.931013 3.506248 -13.433096 0
M  V30 35 H 4.478813 5.104100 -13.924292 0
M  V30 36 H 8.922078 3.839542 -14.908681 0
M  V30 37 H 8.734362 5.434554 -15.486752 0
M  V30 38 H 6.248082 2.441460 -11.983062 0
M  V30 39 H 7.179056 1.779139 -13.386150 0
M  V30 40 H 5.455614 1.668398 -13.303850 0
M  V30 41 H 2.704393 6.676283 -16.293709 0
M  V30 42 H 4.141221 5.757741 -16.826136 0
M  V30 43 H 2.807518 6.174112 -17.957375 0
M  V30 44 H 8.149028 7.771519 -9.891666 0
M  V30 45 H 6.753135 3.323950 -16.411812 0
M  V30 46 H 3.240206 8.371161 -17.919122 0
M  V30 47 H 4.543140 8.257388 -16.709839 0
M  V30 48 H 8.697155 2.936866 -12.635996 0
M  V30 49 H 5.215892 6.804019 -12.880518 0
M  V30 50 H 5.333474 8.265244 -11.939952 0
M  V30 51 H 5.761841 6.753363 -11.214039 0
M  V30 52 H 8.967149 1.147530 -17.644918 0
M  V30 53 H 7.707817 1.957214 -18.583263 0
M  V30 54 H 7.362785 1.320940 -16.972740 0
M  V30 55 H 4.064796 8.524311 -20.265022 0
M  V30 56 H 5.835352 3.361675 -14.771538 0
M  V30 57 H 6.501379 7.598074 -14.653740 0
M  V30 58 H 8.233764 7.238746 -14.531544 0
M  V30 59 H 7.575679 8.864698 -14.291740 0
M  V30 60 H 6.880574 6.628191 -16.634149 0
M  V30 61 H 6.614473 5.594214 -14.266928 0
M  V30 END ATOM
M  V30 BEGIN BOND
M  V30 1 1 6 4
M  V30 2 2 9 2
M  V30 3 1 9 3
M  V30 4 1 13 12
M  V30 5 1 16 1
M  V30 6 1 16 7
M  V30 7 1 18 4
M  V30 8 1 18 8
M  V30 9 1 18 11
M  V30 10 1 19 12
M  V30 11 1 19 17
M  V30 12 1 20 1
M  V30 13 1 20 14
M  V30 14 1 21 2
M  V30 15 2 21 13
M  V30 16 1 22 19
M  V30 17 2 23 7
M  V30 18 1 24 9
M  V30 19 2 24 12
M  V30 20 1 24 15
M  V30 21 1 25 11
M  V30 22 2 26 1
M  V30 23 1 26 23
M  V30 24 1 27 5
M  V30 25 1 27 10
M  V30 26 1 28 19
M  V30 27 1 29 4
M  V30 28 1 29 6
M  V30 29 1 29 26
M  V30 30 1 30 8
M  V30 31 1 30 13
M  V30 32 1 30 27
M  V30 33 1 31 2
M  V30 34 1 32 3
M  V30 35 1 33 5
M  V30 36 1 34 5
M  V30 37 1 35 5
M  V30 38 1 36 8
M  V30 39 1 37 8
M  V30 40 1 38 10
M  V30 41 1 39 10
M  V30 42 1 40 10
M  V30 43 1 41 14
M  V30 44 1 42 14
M  V30 45 1 43 14
M  V30 46 1 44 15
M  V30 47 1 18 45 CFG=1
M  V30 48 1 46 20
M  V30 49 1 47 20
M  V30 50 1 48 21
M  V30 51 1 49 22
M  V30 52 1 50 22
M  V30 53 1 51 22
M  V30 54 1 52 25
M  V30 55 1 53 25
M  V30 56 1 54 25
M  V30 57 1 55 16
M  V30 58 1 56 27
M  V30 59 1 57 28
M  V30 60 1 58 28
M  V30 61 1 59 28
M  V30 62 1 29 60 CFG=1
M  V30 63 1 30 61 CFG=3
M  V30 END BOND
M  V30 END CTAB
M  END
>  <i_epik_Tot_Q>  (1) 
0

>  <i_epik_Tot_abs_Q>  (1) 
0

>  <i_i_glide_confnum>  (1) 
47

>  <i_i_glide_lignum>  (1) 
116

>  <i_i_glide_posenum>  (1) 
34

>  <i_i_glide_rotatable_bonds>  (1) 
11

>  <i_lp_mmshare_version>  (1) 
72125

>  <i_m_source_file_index>  (1) 
48

>  <i_f3d_flags>  (1) 
0

>  <num_sample>  (1) 
50

>  <b_lp_Chiralities_Consistent>  (1) 
1

>  <r_epik_Charging_Adjusted_Penalty>  (1) 
0.83298032901439623

>  <r_epik_Ionization_Penalty>  (1) 
0.0039877577423364898

>  <r_epik_Ionization_Penalty_Charging>  (1) 
0

>  <r_epik_Ionization_Penalty_Neutral>  (1) 
0.0039877577423364898

>  <r_epik_State_Penalty>  (1) 
0.83298032901439623

>  <r_glide_ring_energy>  (1) 
0

>  <r_i_docking_score>  (1) 
-1.9054890378143554

>  <r_i_glide_ecoul>  (1) 
-15.066890834483502

>  <r_i_glide_eff_state_penalty>  (1) 
0.83298032901439623

>  <r_i_glide_einternal>  (1) 
19.899652031746083

>  <r_i_glide_emodel>  (1) 
5.6879922296640029

>  <r_i_glide_emodel_strain>  (1) 
12.743102381518192

>  <r_i_glide_energy>  (1) 
-11.106504327235164

>  <r_i_glide_erotb>  (1) 
0.55490112727109764

>  <r_i_glide_esite>  (1) 
-0.079346589579782884

>  <r_i_glide_evdw>  (1) 
3.9603865072483377

>  <r_i_glide_gscore>  (1) 
-2.7384693668287516

>  <r_i_glide_gscore_strain>  (1) 
2.1857755953795479

>  <r_i_glide_hbond>  (1) 
-0.068858179617874313

>  <r_i_glide_ligand_efficiency>  (1) 
-0.063516301260478511

>  <r_i_glide_ligand_efficiency_ln>  (1) 
-0.43294787135739149

>  <r_i_glide_ligand_efficiency_sa>  (1) 
-0.19735991593451691

>  <r_i_glide_lipo>  (1) 
-1.8946496578002501

>  <r_i_glide_metal>  (1) 
-0

>  <r_i_glide_rewards>  (1) 
-1.3742773626713818

>  <r_lp_Energy>  (1) 
29.114134

>  <r_lp_tautomer_probability>  (1) 
0.17382617382613486

>  <s_epik_Chemistry_Notes>  (1) 
This compound contains an acetal/aminal-like group ( X-CH(R)-Y where X, Y are N, S, or O) that may be acid/base labile, releasing an aldehyde. This compound has a N-S or N-O group and may undergo hydrolysis at high or low pH.

>  <s_epik_cmdline>  (1) 
J2VwaWtfcHl0aG9uJywgJy1waHQnLCAnMS4wJywgJy1waCcsICc3LjQnLCAnLXRuJywgJzgnLCAnLW1hJywgJzUwMCcsICctaW1hZScsICc8aW5maWxlLm1hZT4nLCAnLW9tYWUnLCAnPG91dGZpbGUubWFlPic=

>  <s_epik_input>  (1) 
W0NIM11bQ0gyXUMxPU5OPU5bQ0BIXTFbQ0BASF0yT04yW0NAQEhdKE9bQ0gzXSlbQ0gyXVtDQEBIXShbQ0hdKFtDSDNdKVtDSDNdKUMoQyhDKEYpKFtDSDNdKVtDSDNdKT1DM1tPSF0pPVtDSF1bQ0gyXUMzPU8=

>  <s_glide_docking_method>  (1) 
confgen

>  <s_i_glide_gridfile>  (1) 
gpcr_drd2_6luq_protein_autoprepared_prepared

>  <s_lp_Force_Field>  (1) 
S-OPLS

>  <s_lp_Variant>  (1) 
DiffSBDD_47_num_sample_50-3

>  <s_m_source_file>  (1) 
generated__ligand_DiffSBDD_2026-05-06_prepared.sdf

>  <GenAI_Model>  (1) 
DiffSBDD

>  <Protein>  (1) 
generic_title2

$$$$
DiffSBDD_29_num_sample_50
     RDKit          3D

  0  0  0  0  0  0  0  0  0  0999 V3000
M  V30 BEGIN CTAB
M  V30 COUNTS 64 67 0 0 1
M  V30 BEGIN ATOM
M  V30 1 C 9.253854 6.514059 -10.814662 0
M  V30 2 O 7.865475 3.427326 -17.922220 0
M  V30 3 C 5.796556 2.084335 -20.908348 0
M  V30 4 C 9.392291 7.095353 -12.198318 0
M  V30 5 O 6.052326 5.428321 -19.130219 0
M  V30 6 N 7.561267 4.290459 -14.311863 0 CFG=2 CHG=1
M  V30 7 C 5.656713 3.122929 -19.780531 0
M  V30 8 C 8.324678 1.763049 -20.373312 0
M  V30 9 C 10.304721 3.007183 -19.382297 0
M  V30 10 C 9.797985 6.171187 -8.504948 0
M  V30 11 C 8.667926 5.229086 -13.971047 0
M  V30 12 C 7.207308 3.460439 -13.131511 0
M  V30 13 C 5.200296 6.264363 -19.899761 0
M  V30 14 C 7.998826 4.047868 -19.198523 0 CFG=1
M  V30 15 C 8.235001 5.651409 -10.673441 0
M  V30 16 C 6.655165 4.349405 -12.009222 0
M  V30 17 C 8.185220 6.242735 -12.908639 0 CFG=1
M  V30 18 C 8.923621 3.149162 -20.047942 0 CFG=2
M  V30 19 C 10.078051 6.818389 -9.720129 0
M  V30 20 C 7.803258 4.324028 -16.827586 0
M  V30 21 N 7.927851 4.969302 -9.544040 0
M  V30 22 C 6.617353 4.329876 -19.840316 0 CFG=2
M  V30 23 C 7.215571 1.814886 -21.436686 0
M  V30 24 N 7.482286 5.537609 -11.804342 0
M  V30 25 C 8.711962 5.258874 -8.464641 0
M  V30 26 N 12.054069 8.519581 -9.891667 0
M  V30 27 C 7.753177 3.482630 -15.543578 0
M  V30 28 C 11.176359 7.769290 -9.823463 0
M  V30 29 C 4.634832 7.353926 -18.984630 0
M  V30 30 H 5.177526 2.389600 -21.753139 0
M  V30 31 H 5.360452 1.146469 -20.561251 0
M  V30 32 H 9.192160 8.167625 -12.190658 0
M  V30 33 H 10.372514 6.896032 -12.633243 0
M  V30 34 H 4.634827 3.485973 -19.818429 0
M  V30 35 H 5.735459 2.625795 -18.813834 0
M  V30 36 H 9.122515 1.135109 -20.771670 0
M  V30 37 H 7.977664 1.257689 -19.470932 0
M  V30 38 H 10.240976 2.460924 -18.440487 0
M  V30 39 H 11.000078 2.470621 -20.028333 0
M  V30 40 H 10.744608 3.982257 -19.170717 0
M  V30 41 H 10.390583 6.363811 -7.622969 0
M  V30 42 H 9.017466 5.769302 -14.847083 0
M  V30 43 H 9.523245 4.661824 -13.598407 0
M  V30 44 H 8.087294 2.914620 -12.785705 0
M  V30 45 H 6.456499 2.713243 -13.392631 0
M  V30 46 H 5.765444 6.720431 -20.713776 0
M  V30 47 H 4.386001 5.691823 -20.345314 0
M  V30 48 H 8.517111 5.003661 -19.096866 0
M  V30 49 H 6.509988 3.769191 -11.099658 0
M  V30 50 H 5.661822 4.702360 -12.287689 0
M  V30 51 H 7.477581 6.935122 -13.366570 0
M  V30 52 H 9.098750 3.665140 -20.992883 0
M  V30 53 H 6.921278 4.960513 -16.891153 0
M  V30 54 H 8.684435 4.965065 -16.841400 0
M  V30 55 H 6.774746 4.631841 -20.877465 0
M  V30 56 H 7.470953 2.555059 -22.195524 0
M  V30 57 H 7.194309 0.861943 -21.967266 0
M  V30 58 H 8.467641 4.746440 -7.547541 0
M  V30 59 H 8.634837 2.854624 -15.462871 0
M  V30 60 H 6.910978 2.795856 -15.638327 0
M  V30 61 H 4.008093 8.050760 -19.541792 0
M  V30 62 H 4.028431 6.920521 -18.189076 0
M  V30 63 H 5.434750 7.928877 -18.518369 0
M  V30 64 H 6.750953 4.867662 -14.488010 0
M  V30 END ATOM
M  V30 BEGIN BOND
M  V30 1 1 4 1
M  V30 2 1 7 3
M  V30 3 1 11 6
M  V30 4 1 12 6
M  V30 5 1 13 5
M  V30 6 1 14 2
M  V30 7 1 15 1
M  V30 8 1 16 12
M  V30 9 1 17 4
M  V30 10 1 17 11
M  V30 11 1 18 8
M  V30 12 1 18 9
M  V30 13 1 18 14
M  V30 14 2 19 1
M  V30 15 1 19 10
M  V30 16 1 20 2
M  V30 17 2 21 15
M  V30 18 1 22 5
M  V30 19 1 22 7
M  V30 20 1 22 14
M  V30 21 1 23 3
M  V30 22 1 23 8
M  V30 23 1 24 15
M  V30 24 1 24 16
M  V30 25 1 24 17
M  V30 26 2 25 10
M  V30 27 1 25 21
M  V30 28 1 27 6
M  V30 29 1 27 20
M  V30 30 1 28 19
M  V30 31 3 28 26
M  V30 32 1 29 13
M  V30 33 1 30 3
M  V30 34 1 31 3
M  V30 35 1 32 4
M  V30 36 1 33 4
M  V30 37 1 34 7
M  V30 38 1 35 7
M  V30 39 1 36 8
M  V30 40 1 37 8
M  V30 41 1 38 9
M  V30 42 1 39 9
M  V30 43 1 40 9
M  V30 44 1 41 10
M  V30 45 1 42 11
M  V30 46 1 43 11
M  V30 47 1 44 12
M  V30 48 1 45 12
M  V30 49 1 46 13
M  V30 50 1 47 13
M  V30 51 1 14 48 CFG=1
M  V30 52 1 49 16
M  V30 53 1 50 16
M  V30 54 1 17 51 CFG=3
M  V30 55 1 18 52 CFG=3
M  V30 56 1 53 20
M  V30 57 1 54 20
M  V30 58 1 22 55 CFG=3
M  V30 59 1 56 23
M  V30 60 1 57 23
M  V30 61 1 58 25
M  V30 62 1 59 27
M  V30 63 1 60 27
M  V30 64 1 61 29
M  V30 65 1 62 29
M  V30 66 1 63 29
M  V30 67 1 6 64 CFG=3
M  V30 END BOND
M  V30 END CTAB
M  END
>  <i_epik_Tot_Q>  (1) 
1

>  <i_epik_Tot_abs_Q>  (1) 
1

>  <i_i_glide_confnum>  (1) 
359

>  <i_i_glide_lignum>  (1) 
75

>  <i_i_glide_posenum>  (1) 
282

>  <i_i_glide_rotatable_bonds>  (1) 
6

>  <i_lp_mmshare_version>  (1) 
72125

>  <i_m_source_file_index>  (1) 
30

>  <i_f3d_flags>  (1) 
0

>  <num_sample>  (1) 
50

>  <b_lp_Chiralities_Consistent>  (1) 
1

>  <r_epik_Charging_Adjusted_Penalty>  (1) 
1.0026227849201053

>  <r_epik_Ionization_Penalty>  (1) 
0.50131159217577048

>  <r_epik_Ionization_Penalty_Charging>  (1) 
0.50131139246005263

>  <r_epik_Ionization_Penalty_Neutral>  (1) 
1.9971571790720627e-07

>  <r_epik_State_Penalty>  (1) 
0.50131139246005263

>  <r_glide_ring_energy>  (1) 
1.0751441327269913

>  <r_i_docking_score>  (1) 
-1.8919177961434732

>  <r_i_glide_ecoul>  (1) 
0.0097346303259535638

>  <r_i_glide_eff_state_penalty>  (1) 
0.50131139246005263

>  <r_i_glide_einternal>  (1) 
2.0044444971844513

>  <r_i_glide_emodel>  (1) 
-33.539519698094992

>  <r_i_glide_emodel_strain>  (1) 
0.0099779336872387603

>  <r_i_glide_energy>  (1) 
-30.275654498384093

>  <r_i_glide_erotb>  (1) 
0.6137117962777916

>  <r_i_glide_esite>  (1) 
-0.044019394919411217

>  <r_i_glide_evdw>  (1) 
-30.285389128710047

>  <r_i_glide_gscore>  (1) 
-2.393229188603526

>  <r_i_glide_gscore_strain>  (1) 
0

>  <r_i_glide_hbond>  (1) 
0

>  <r_i_glide_ligand_efficiency>  (1) 
-0.065238544694602524

>  <r_i_glide_ligand_efficiency_ln>  (1) 
-0.43320120042093241

>  <r_i_glide_ligand_efficiency_sa>  (1) 
-0.20043347854848553

>  <r_i_glide_lipo>  (1) 
-1.0176256165052149

>  <r_i_glide_metal>  (1) 
-0

>  <r_i_glide_rewards>  (1) 
-0.43248671157008223

>  <r_lp_Energy>  (1) 
45.537855

>  <s_epik_cmdline>  (1) 
J2VwaWtfcHl0aG9uJywgJy1waHQnLCAnMS4wJywgJy1waCcsICc3LjQnLCAnLXRuJywgJzgnLCAnLW1hJywgJzUwMCcsICctaW1hZScsICc8aW5maWxlLm1hZT4nLCAnLW9tYWUnLCAnPG91dGZpbGUubWFlPic=

>  <s_epik_input>  (1) 
TiNDYzFbY0hdW2NIXW5jKGMxMilOM1tDQEhdKFtDSDJdMilbQ0gyXU4oW0NIMl1bQ0gyXTMpW0NIMl1bQ0gyXU9bQ0BIXTRbQ0BASF0oW0NIM10pW0NIMl1bQ0gyXVtDSDJdW0NIMl1bQ0BIXTRPW0NIMl1bQ0gzXQ==

>  <s_glide_docking_method>  (1) 
confgen

>  <s_i_glide_gridfile>  (1) 
gpcr_drd2_6luq_protein_autoprepared_prepared

>  <s_lp_Force_Field>  (1) 
S-OPLS

>  <s_lp_Variant>  (1) 
DiffSBDD_29_num_sample_50-5

>  <s_m_source_file>  (1) 
generated__ligand_DiffSBDD_2026-05-06_prepared.sdf

>  <GenAI_Model>  (1) 
DiffSBDD

>  <Protein>  (1) 
generic_title2

$$$$
DiffSBDD_47_num_sample_50
     RDKit          3D

  0  0  0  0  0  0  0  0  0  0999 V3000
M  V30 BEGIN CTAB
M  V30 COUNTS 61 63 0 0 1
M  V30 BEGIN ATOM
M  V30 1 C 8.297056 6.393206 -19.575690 0
M  V30 2 C 9.384351 4.405940 -10.554246 0
M  V30 3 O 10.167162 6.169291 -9.139256 0
M  V30 4 N 8.304064 3.719974 -17.367170 0
M  V30 5 C 4.741388 4.113368 -13.091700 0
M  V30 6 O 9.721975 4.049437 -17.050071 0
M  V30 7 N 10.447102 6.600469 -20.263198 0
M  V30 8 C 8.236190 3.727866 -14.722295 0
M  V30 9 C 9.481596 5.761582 -10.250171 0
M  V30 10 C 6.241103 2.174607 -12.523996 0
M  V30 11 O 7.481748 1.957286 -16.054364 0
M  V30 12 C 8.102702 6.303760 -12.202791 0
M  V30 13 C 8.016061 4.894166 -12.512625 0
M  V30 14 C 6.150729 5.871241 -20.806434 0
M  V30 15 O 9.034839 8.025860 -10.727772 0
M  V30 16 N 9.146097 6.877527 -20.524447 0
M  V30 17 F 7.834841 8.569307 -12.794678 0
M  V30 18 C 7.645819 3.345035 -16.122527 0 CFG=2
M  V30 19 C 7.323382 7.368472 -13.028048 0
M  V30 20 C 6.812353 6.564594 -19.610875 0
M  V30 21 C 8.683200 3.974807 -11.684316 0
M  V30 22 C 5.881639 7.413897 -12.488728 0
M  V30 23 N 10.451293 5.924510 -19.132974 0
M  V30 24 C 8.886855 6.710714 -11.066607 0
M  V30 25 C 6.747269 1.336866 -17.100943 0
M  V30 26 C 9.125728 5.786796 -18.691534 0
M  V30 27 C 6.038904 3.379764 -13.433820 0
M  V30 28 C 7.374753 7.369780 -14.567812 0
M  V30 29 C 8.785992 5.082390 -17.412822 0 CFG=1
M  V30 30 C 7.221833 4.356377 -13.734173 0 CFG=2
M  V30 31 H 9.850279 3.682042 -9.912422 0
M  V30 32 H 10.071071 7.107627 -9.054533 0
M  V30 33 H 4.721424 4.410265 -12.043466 0
M  V30 34 H 3.869659 3.486043 -13.277617 0
M  V30 35 H 4.633427 5.000041 -13.713602 0
M  V30 36 H 8.634810 2.826435 -14.263930 0
M  V30 37 H 9.069511 4.419712 -14.829662 0
M  V30 38 H 6.184569 2.502390 -11.491624 0
M  V30 39 H 7.180055 1.656909 -12.715081 0
M  V30 40 H 5.460749 1.430051 -12.691640 0
M  V30 41 H 5.071203 6.024202 -20.795367 0
M  V30 42 H 6.334683 4.796515 -20.789251 0
M  V30 43 H 6.531386 6.262585 -21.750653 0
M  V30 44 H 8.202694 8.220915 -10.271608 0
M  V30 45 H 6.646155 3.773231 -16.190738 0
M  V30 46 H 6.571348 7.628080 -19.632695 0
M  V30 47 H 6.376579 6.176566 -18.689719 0
M  V30 48 H 8.639797 2.923568 -11.902775 0
M  V30 49 H 5.542647 6.432746 -12.180226 0
M  V30 50 H 5.164132 7.769301 -13.225627 0
M  V30 51 H 5.814144 8.040562 -11.597929 0
M  V30 52 H 6.620409 0.280462 -16.865601 0
M  V30 53 H 7.268650 1.395941 -18.056397 0
M  V30 54 H 5.756739 1.769302 -17.214143 0
M  V30 55 H 8.869683 7.396747 -21.345349 0
M  V30 56 H 5.834888 2.900169 -14.368950 0
M  V30 57 H 6.478069 6.969194 -15.039111 0
M  V30 58 H 8.234832 6.811880 -14.908564 0
M  V30 59 H 7.434832 8.383952 -14.966851 0
M  V30 60 H 8.510379 5.767953 -16.625499 0
M  V30 61 H 6.737096 5.130786 -14.280121 0
M  V30 END ATOM
M  V30 BEGIN BOND
M  V30 1 1 6 4
M  V30 2 2 9 2
M  V30 3 1 9 3
M  V30 4 1 13 12
M  V30 5 1 16 1
M  V30 6 1 16 7
M  V30 7 1 18 4
M  V30 8 1 18 8
M  V30 9 1 18 11
M  V30 10 1 19 12
M  V30 11 1 19 17
M  V30 12 1 20 1
M  V30 13 1 20 14
M  V30 14 1 21 2
M  V30 15 2 21 13
M  V30 16 1 22 19
M  V30 17 2 23 7
M  V30 18 1 24 9
M  V30 19 2 24 12
M  V30 20 1 24 15
M  V30 21 1 25 11
M  V30 22 2 26 1
M  V30 23 1 26 23
M  V30 24 1 27 5
M  V30 25 1 27 10
M  V30 26 1 28 19
M  V30 27 1 29 4
M  V30 28 1 29 6
M  V30 29 1 29 26
M  V30 30 1 30 8
M  V30 31 1 30 13
M  V30 32 1 30 27
M  V30 33 1 31 2
M  V30 34 1 32 3
M  V30 35 1 33 5
M  V30 36 1 34 5
M  V30 37 1 35 5
M  V30 38 1 36 8
M  V30 39 1 37 8
M  V30 40 1 38 10
M  V30 41 1 39 10
M  V30 42 1 40 10
M  V30 43 1 41 14
M  V30 44 1 42 14
M  V30 45 1 43 14
M  V30 46 1 44 15
M  V30 47 1 18 45 CFG=3
M  V30 48 1 46 20
M  V30 49 1 47 20
M  V30 50 1 48 21
M  V30 51 1 49 22
M  V30 52 1 50 22
M  V30 53 1 51 22
M  V30 54 1 52 25
M  V30 55 1 53 25
M  V30 56 1 54 25
M  V30 57 1 55 16
M  V30 58 1 56 27
M  V30 59 1 57 28
M  V30 60 1 58 28
M  V30 61 1 59 28
M  V30 62 1 29 60 CFG=1
M  V30 63 1 30 61 CFG=3
M  V30 END BOND
M  V30 END CTAB
M  END
>  <i_epik_Tot_Q>  (1) 
0

>  <i_epik_Tot_abs_Q>  (1) 
0

>  <i_i_glide_confnum>  (1) 
47

>  <i_i_glide_lignum>  (1) 
116

>  <i_i_glide_posenum>  (1) 
80

>  <i_i_glide_rotatable_bonds>  (1) 
11

>  <i_lp_mmshare_version>  (1) 
72125

>  <i_m_source_file_index>  (1) 
48

>  <i_f3d_flags>  (1) 
0

>  <num_sample>  (1) 
50

>  <b_lp_Chiralities_Consistent>  (1) 
1

>  <r_epik_Charging_Adjusted_Penalty>  (1) 
0.83298032901439623

>  <r_epik_Ionization_Penalty>  (1) 
0.0039877577423364898

>  <r_epik_Ionization_Penalty_Charging>  (1) 
0

>  <r_epik_Ionization_Penalty_Neutral>  (1) 
0.0039877577423364898

>  <r_epik_State_Penalty>  (1) 
0.83298032901439623

>  <r_glide_ring_energy>  (1) 
0

>  <r_i_docking_score>  (1) 
-1.8852375666511128

>  <r_i_glide_ecoul>  (1) 
-6.084061222198355

>  <r_i_glide_eff_state_penalty>  (1) 
0.83298032901439623

>  <r_i_glide_einternal>  (1) 
11.910670569652027

>  <r_i_glide_emodel>  (1) 
-8.6952716022537686

>  <r_i_glide_emodel_strain>  (1) 
9.4995481418416716

>  <r_i_glide_energy>  (1) 
-18.29534314772965

>  <r_i_glide_erotb>  (1) 
0.55490112727109764

>  <r_i_glide_esite>  (1) 
-0.027946178075116568

>  <r_i_glide_evdw>  (1) 
-12.211281925531296

>  <r_i_glide_gscore>  (1) 
-2.718217895665509

>  <r_i_glide_gscore_strain>  (1) 
1.3748870354604179

>  <r_i_glide_hbond>  (1) 
-0.16

>  <r_i_glide_ligand_efficiency>  (1) 
-0.062841252221703753

>  <r_i_glide_ligand_efficiency_ln>  (1) 
-0.42834651645165117

>  <r_i_glide_ligand_efficiency_sa>  (1) 
-0.19526238161812309

>  <r_i_glide_lipo>  (1) 
-1.4863925018160009

>  <r_i_glide_metal>  (1) 
-0

>  <r_i_glide_rewards>  (1) 
-1.4504940988995889

>  <r_lp_Energy>  (1) 
29.114134

>  <r_lp_tautomer_probability>  (1) 
0.17382617382613486

>  <s_epik_Chemistry_Notes>  (1) 
This compound contains an acetal/aminal-like group ( X-CH(R)-Y where X, Y are N, S, or O) that may be acid/base labile, releasing an aldehyde. This compound has a N-S or N-O group and may undergo hydrolysis at high or low pH.

>  <s_epik_cmdline>  (1) 
J2VwaWtfcHl0aG9uJywgJy1waHQnLCAnMS4wJywgJy1waCcsICc3LjQnLCAnLXRuJywgJzgnLCAnLW1hJywgJzUwMCcsICctaW1hZScsICc8aW5maWxlLm1hZT4nLCAnLW9tYWUnLCAnPG91dGZpbGUubWFlPic=

>  <s_epik_input>  (1) 
W0NIM11bQ0gyXUMxPU5OPU5bQ0BIXTFbQ0BASF0yT04yW0NAQEhdKE9bQ0gzXSlbQ0gyXVtDQEBIXShbQ0hdKFtDSDNdKVtDSDNdKUMoQyhDKEYpKFtDSDNdKVtDSDNdKT1DM1tPSF0pPVtDSF1bQ0gyXUMzPU8=

>  <s_glide_docking_method>  (1) 
confgen

>  <s_i_glide_gridfile>  (1) 
gpcr_drd2_6luq_protein_autoprepared_prepared

>  <s_lp_Force_Field>  (1) 
S-OPLS

>  <s_lp_Variant>  (1) 
DiffSBDD_47_num_sample_50-3

>  <s_m_source_file>  (1) 
generated__ligand_DiffSBDD_2026-05-06_prepared.sdf

>  <GenAI_Model>  (1) 
DiffSBDD

>  <Protein>  (1) 
generic_title2

$$$$
DiffSBDD_31_num_sample_50
     RDKit          3D

  0  0  0  0  0  0  0  0  0  0999 V3000
M  V30 BEGIN CTAB
M  V30 COUNTS 71 76 0 0 1
M  V30 BEGIN ATOM
M  V30 1 C 22.369320 13.962931 -17.330678 0
M  V30 2 C 21.910074 16.555581 -18.361568 0
M  V30 3 C 20.402347 17.570407 -10.017033 0
M  V30 4 C 22.401620 19.316495 -12.130493 0
M  V30 5 C 20.614836 20.513348 -10.839442 0
M  V30 6 C 20.378700 20.037573 -15.986325 0
M  V30 7 C 19.938527 20.961134 -8.484410 0 CFG=2
M  V30 8 C 20.772433 18.111947 -20.113008 0
M  V30 9 F 22.588710 12.722523 -16.834639 0
M  V30 10 C 21.062620 14.476549 -17.387016 0
M  V30 11 C 21.668456 17.943139 -18.903734 0
M  V30 12 C 20.634900 20.487434 -13.430204 0
M  V30 13 C 22.846473 18.352037 -15.778517 0
M  V30 14 C 22.850317 19.140802 -17.104602 0
M  V30 15 C 20.389638 18.969331 -17.089949 0
M  V30 16 C 20.831282 15.766130 -17.902000 0
M  V30 17 F 19.148479 21.961838 -8.878011 0
M  V30 18 C 23.448139 14.737496 -17.789115 0
M  V30 19 C 23.221623 16.028814 -18.303010 0
M  V30 20 C 20.069690 18.631163 -9.249700 0
M  V30 21 N 21.617342 18.995899 -17.880033 0
M  V30 22 C 22.734331 18.460540 -13.352821 0
M  V30 23 C 21.219445 21.550717 -7.845530 0
M  V30 24 C 20.916048 19.726455 -12.117417 0 CFG=1
M  V30 25 O 22.157137 20.558660 -7.467664 0
M  V30 26 C 22.259960 18.325853 -20.243966 0
M  V30 27 C 20.983949 21.958702 -13.584981 0
M  V30 28 C 20.241228 20.022588 -9.611261 0
M  V30 29 C 19.116334 19.941579 -7.573076 0 CFG=2
M  V30 30 O 19.141825 20.224753 -6.188856 0
M  V30 31 C 19.534408 21.543982 -13.460704 0
M  V30 32 C 20.901158 19.520702 -14.616375 0 CFG=2
M  V30 33 N 22.355561 19.144136 -14.617573 0 CFG=2 CHG=1
M  V30 34 C 19.492779 18.434180 -7.891643 0
M  V30 35 H 20.234841 16.569300 -9.649009 0
M  V30 36 H 20.843462 17.656982 -10.971431 0
M  V30 37 H 23.023790 20.213084 -12.138020 0
M  V30 38 H 22.680078 18.782369 -11.221967 0
M  V30 39 H 20.694229 21.584219 -10.937910 0
M  V30 40 H 20.876382 20.951162 -16.311878 0
M  V30 41 H 19.327915 20.296948 -15.876731 0
M  V30 42 H 20.355222 17.215576 -20.567997 0
M  V30 43 H 20.147385 19.000588 -20.177486 0
M  V30 44 H 20.234842 13.880034 -17.035300 0
M  V30 45 H 23.885304 18.081614 -15.584750 0
M  V30 46 H 22.311663 17.404859 -15.845373 0
M  V30 47 H 23.023119 20.198516 -16.903483 0
M  V30 48 H 23.692297 18.830868 -17.724842 0
M  V30 49 H 19.551557 19.137836 -17.767506 0
M  V30 50 H 20.234838 17.988700 -16.644810 0
M  V30 51 H 19.823822 16.153663 -17.943415 0
M  V30 52 H 24.452218 14.341908 -17.746392 0
M  V30 53 H 24.055096 16.620250 -18.652568 0
M  V30 54 H 23.803779 18.244788 -13.345522 0
M  V30 55 H 22.220166 17.499821 -13.286281 0
M  V30 56 H 20.966462 22.145323 -6.967441 0
M  V30 57 H 21.706216 22.228177 -8.547831 0
M  V30 58 H 20.194936 18.921742 -12.208120 0
M  V30 59 H 22.359162 20.027732 -8.222854 0
M  V30 60 H 22.594057 19.351925 -20.385650 0
M  V30 61 H 22.822038 17.573189 -20.793367 0
M  V30 62 H 21.439466 22.480249 -12.747056 0
M  V30 63 H 21.312391 22.315738 -14.558014 0
M  V30 64 H 18.072670 20.049330 -7.868768 0
M  V30 65 H 18.809656 21.099580 -6.054012 0
M  V30 66 H 18.917746 21.684174 -14.343042 0
M  V30 67 H 19.023645 21.795601 -12.534085 0
M  V30 68 H 20.335679 18.607806 -14.418994 0
M  V30 69 H 18.631864 17.769304 -7.891673 0
M  V30 70 H 20.256951 18.049954 -7.214743 0
M  V30 71 H 22.867848 20.014500 -14.638650 0
M  V30 END ATOM
M  V30 BEGIN BOND
M  V30 1 1 9 1
M  V30 2 1 10 1
M  V30 3 1 11 2
M  V30 4 1 11 8
M  V30 5 1 14 13
M  V30 6 1 15 6
M  V30 7 1 16 2
M  V30 8 2 16 10
M  V30 9 1 7 17 CFG=3
M  V30 10 2 18 1
M  V30 11 2 19 2
M  V30 12 1 19 18
M  V30 13 2 20 3
M  V30 14 1 21 11
M  V30 15 1 21 14
M  V30 16 1 21 15
M  V30 17 1 22 4
M  V30 18 1 23 7
M  V30 19 1 24 4
M  V30 20 1 24 5
M  V30 21 1 24 12
M  V30 22 1 25 23
M  V30 23 1 26 8
M  V30 24 1 26 11
M  V30 25 1 27 12
M  V30 26 2 28 5
M  V30 27 1 28 7
M  V30 28 1 28 20
M  V30 29 1 29 7
M  V30 30 1 30 29
M  V30 31 1 31 12
M  V30 32 1 31 27
M  V30 33 1 32 6
M  V30 34 1 32 12
M  V30 35 1 33 13
M  V30 36 1 33 22
M  V30 37 1 33 32
M  V30 38 1 34 20
M  V30 39 1 34 29
M  V30 40 1 35 3
M  V30 41 1 36 3
M  V30 42 1 37 4
M  V30 43 1 38 4
M  V30 44 1 39 5
M  V30 45 1 40 6
M  V30 46 1 41 6
M  V30 47 1 42 8
M  V30 48 1 43 8
M  V30 49 1 44 10
M  V30 50 1 45 13
M  V30 51 1 46 13
M  V30 52 1 47 14
M  V30 53 1 48 14
M  V30 54 1 49 15
M  V30 55 1 50 15
M  V30 56 1 51 16
M  V30 57 1 52 18
M  V30 58 1 53 19
M  V30 59 1 54 22
M  V30 60 1 55 22
M  V30 61 1 56 23
M  V30 62 1 57 23
M  V30 63 1 24 58 CFG=3
M  V30 64 1 59 25
M  V30 65 1 60 26
M  V30 66 1 61 26
M  V30 67 1 62 27
M  V30 68 1 63 27
M  V30 69 1 29 64 CFG=3
M  V30 70 1 65 30
M  V30 71 1 66 31
M  V30 72 1 67 31
M  V30 73 1 32 68 CFG=1
M  V30 74 1 69 34
M  V30 75 1 70 34
M  V30 76 1 33 71 CFG=1
M  V30 END BOND
M  V30 END CTAB
M  END
>  <i_epik_Tot_Q>  (1) 
1

>  <i_epik_Tot_abs_Q>  (1) 
1

>  <i_i_glide_confnum>  (1) 
33

>  <i_i_glide_lignum>  (1) 
81

>  <i_i_glide_posenum>  (1) 
37

>  <i_i_glide_rotatable_bonds>  (1) 
6

>  <i_lp_mmshare_version>  (1) 
72125

>  <i_m_source_file_index>  (1) 
32

>  <i_f3d_flags>  (1) 
0

>  <num_sample>  (1) 
50

>  <b_lp_Chiralities_Consistent>  (1) 
1

>  <r_epik_Charging_Adjusted_Penalty>  (1) 
0.0036996964664751512

>  <r_epik_Ionization_Penalty>  (1) 
0.0040620325304727405

>  <r_epik_Ionization_Penalty_Charging>  (1) 
0.0036996964664751512

>  <r_epik_Ionization_Penalty_Neutral>  (1) 
0.00036233606399758918

>  <r_epik_State_Penalty>  (1) 
-0

>  <r_glide_ring_energy>  (1) 
1.2687512697067889

>  <r_i_docking_score>  (1) 
-1.8412635341894539

>  <r_i_glide_ecoul>  (1) 
-0.3779650723508105

>  <r_i_glide_eff_state_penalty>  (1) 
-0

>  <r_i_glide_einternal>  (1) 
1.8448871002879823

>  <r_i_glide_emodel>  (1) 
-17.073935056511313

>  <r_i_glide_emodel_strain>  (1) 
0

>  <r_i_glide_energy>  (1) 
-14.701087890695357

>  <r_i_glide_erotb>  (1) 
0.36352394052346937

>  <r_i_glide_esite>  (1) 
0

>  <r_i_glide_evdw>  (1) 
-14.323122818344546

>  <r_i_glide_gscore>  (1) 
-1.8412635341894539

>  <r_i_glide_gscore_strain>  (1) 
0

>  <r_i_glide_hbond>  (1) 
0

>  <r_i_glide_ligand_efficiency>  (1) 
-0.054154809829101584

>  <r_i_glide_ligand_efficiency_ln>  (1) 
-0.40678676039522821

>  <r_i_glide_ligand_efficiency_sa>  (1) 
-0.17544056101829536

>  <r_i_glide_lipo>  (1) 
-1.1588295985639732

>  <r_i_glide_metal>  (1) 
-0

>  <r_i_glide_rewards>  (1) 
-0.27310697437910092

>  <r_lp_Energy>  (1) 
34.452109999999998

>  <r_lp_tautomer_probability>  (1) 
1

>  <s_epik_cmdline>  (1) 
J2VwaWtfcHl0aG9uJywgJy1waHQnLCAnMS4wJywgJy1waCcsICc3LjQnLCAnLXRuJywgJzgnLCAnLW1hJywgJzUwMCcsICctaW1hZScsICc8aW5maWxlLm1hZT4nLCAnLW9tYWUnLCAnPG91dGZpbGUubWFlPic=

>  <s_epik_input>  (1) 
RmMxW2NIXVtjSF1jKFtjSF1bY0hdMSlDMihbQ0gyXVtDSDJdMilOKFtDSDJdW0NIMl0zKVtDSDJdW0NIMl1OKFtDQEhdM0M0NVtDSDJdW0NIMl01KVtDSDJdW0NIMl1bQ0BIXTQvW0NIXT1DKC9bQ0BdNihGKVtDSDJdW09IXSlDKD1bQ0gyXSlbQ0gyXVtDQEhdNltPSF0=

>  <s_glide_docking_method>  (1) 
confgen

>  <s_i_glide_gridfile>  (1) 
gpcr_drd2_6luq_protein_autoprepared_prepared

>  <s_lp_Force_Field>  (1) 
S-OPLS

>  <s_lp_Variant>  (1) 
DiffSBDD_31_num_sample_50-4

>  <s_m_source_file>  (1) 
generated__ligand_DiffSBDD_2026-05-06_prepared.sdf

>  <GenAI_Model>  (1) 
DiffSBDD

>  <Protein>  (1) 
generic_title2

$$$$
DiffSBDD_31_num_sample_50
     RDKit          3D

  0  0  0  0  0  0  0  0  0  0999 V3000
M  V30 BEGIN CTAB
M  V30 COUNTS 71 76 0 0 1
M  V30 BEGIN ATOM
M  V30 1 C 21.131878 18.286203 -20.902158 0
M  V30 2 C 21.544852 16.882053 -18.483843 0
M  V30 3 C 20.396145 17.781366 -9.276866 0
M  V30 4 C 24.577166 17.794497 -10.926867 0
M  V30 5 C 23.205488 18.975658 -9.210419 0
M  V30 6 C 21.509052 18.318010 -14.051228 0
M  V30 7 C 22.506059 19.888456 -6.997000 0 CFG=2
M  V30 8 C 22.395590 14.757509 -17.228195 0
M  V30 9 F 20.934083 18.958216 -22.060413 0
M  V30 10 C 22.412964 17.806317 -20.577416 0
M  V30 11 C 21.761365 16.138881 -17.200422 0
M  V30 12 C 22.496853 18.864916 -11.710967 0
M  V30 13 C 23.867352 16.500011 -14.449903 0
M  V30 14 C 23.519793 17.185286 -15.781807 0
M  V30 15 C 21.130601 17.203731 -15.037857 0
M  V30 16 C 22.620258 17.106568 -19.372586 0
M  V30 17 F 22.870183 21.130479 -7.323322 0
M  V30 18 C 20.056710 18.067917 -20.023353 0
M  V30 19 C 20.261669 17.369153 -18.817997 0
M  V30 20 C 20.937586 18.457577 -8.240261 0
M  V30 21 N 22.103672 17.062728 -16.114348 0
M  V30 22 C 24.554826 16.854755 -12.139108 0
M  V30 23 C 23.597446 19.242494 -6.110757 0
M  V30 24 C 23.148652 18.162767 -10.503822 0 CFG=1
M  V30 25 O 23.769749 19.955431 -4.898364 0
M  V30 26 C 20.930178 14.896556 -16.920832 0
M  V30 27 C 22.885601 20.300520 -12.025012 0
M  V30 28 C 22.246249 19.074954 -8.230144 0
M  V30 29 C 21.026293 19.852839 -6.390220 0 CFG=2
M  V30 30 O 20.971292 19.868383 -4.979212 0
M  V30 31 C 21.500557 20.008332 -11.510685 0
M  V30 32 C 22.395534 17.841820 -12.867722 0 CFG=2
M  V30 33 N 23.778605 17.418014 -13.278730 0 CFG=2 CHG=1
M  V30 34 C 20.170566 18.661875 -6.984031 0
M  V30 35 H 19.403072 17.369282 -9.188638 0
M  V30 36 H 20.887608 17.642323 -10.200215 0
M  V30 37 H 25.150374 18.692556 -11.163391 0
M  V30 38 H 25.099995 17.305280 -10.103510 0
M  V30 39 H 24.133500 19.508033 -9.055345 0
M  V30 40 H 21.928927 19.181933 -14.567541 0
M  V30 41 H 20.552278 18.646731 -13.651641 0
M  V30 42 H 22.660067 14.336719 -18.196522 0
M  V30 43 H 23.026334 14.441231 -16.400947 0
M  V30 44 H 23.238762 17.974518 -21.252801 0
M  V30 45 H 24.901515 16.164932 -14.540321 0
M  V30 46 H 23.281574 15.593627 -14.290942 0
M  V30 47 H 23.792337 18.240478 -15.747022 0
M  V30 48 H 24.115446 16.759107 -16.590348 0
M  V30 49 H 20.176757 17.447433 -15.501921 0
M  V30 50 H 20.987907 16.265396 -14.502459 0
M  V30 51 H 23.606236 16.739961 -19.127855 0
M  V30 52 H 19.072597 18.436528 -20.273192 0
M  V30 53 H 19.433965 17.203838 -18.146561 0
M  V30 54 H 25.583053 16.659174 -12.447121 0
M  V30 55 H 24.127349 15.892285 -11.851842 0
M  V30 56 H 24.552707 19.219983 -6.635959 0
M  V30 57 H 23.336977 18.209499 -5.875607 0
M  V30 58 H 22.734384 17.178629 -10.298122 0
M  V30 59 H 24.502294 19.584232 -4.428425 0
M  V30 60 H 20.634851 14.647443 -15.906315 0
M  V30 61 H 20.234904 14.569818 -17.689979 0
M  V30 62 H 23.568504 20.807904 -11.346598 0
M  V30 63 H 22.976305 20.600129 -13.066526 0
M  V30 64 H 20.539165 20.772895 -6.717661 0
M  V30 65 H 21.836798 20.116913 -4.669265 0
M  V30 66 H 20.686675 20.173281 -12.209854 0
M  V30 67 H 21.281565 20.355608 -10.504369 0
M  V30 68 H 21.891753 16.969315 -12.455971 0
M  V30 69 H 19.126908 18.932295 -7.149958 0
M  V30 70 H 20.234889 17.769310 -6.363120 0
M  V30 71 H 24.255330 18.265881 -13.551772 0
M  V30 END ATOM
M  V30 BEGIN BOND
M  V30 1 1 9 1
M  V30 2 1 10 1
M  V30 3 1 11 2
M  V30 4 1 11 8
M  V30 5 1 14 13
M  V30 6 1 15 6
M  V30 7 1 16 2
M  V30 8 2 16 10
M  V30 9 1 7 17 CFG=3
M  V30 10 2 18 1
M  V30 11 2 19 2
M  V30 12 1 19 18
M  V30 13 2 20 3
M  V30 14 1 21 11
M  V30 15 1 21 14
M  V30 16 1 21 15
M  V30 17 1 22 4
M  V30 18 1 23 7
M  V30 19 1 24 4
M  V30 20 1 24 5
M  V30 21 1 24 12
M  V30 22 1 25 23
M  V30 23 1 26 8
M  V30 24 1 26 11
M  V30 25 1 27 12
M  V30 26 2 28 5
M  V30 27 1 28 7
M  V30 28 1 28 20
M  V30 29 1 29 7
M  V30 30 1 30 29
M  V30 31 1 31 12
M  V30 32 1 31 27
M  V30 33 1 32 6
M  V30 34 1 32 12
M  V30 35 1 33 13
M  V30 36 1 33 22
M  V30 37 1 33 32
M  V30 38 1 34 20
M  V30 39 1 34 29
M  V30 40 1 35 3
M  V30 41 1 36 3
M  V30 42 1 37 4
M  V30 43 1 38 4
M  V30 44 1 39 5
M  V30 45 1 40 6
M  V30 46 1 41 6
M  V30 47 1 42 8
M  V30 48 1 43 8
M  V30 49 1 44 10
M  V30 50 1 45 13
M  V30 51 1 46 13
M  V30 52 1 47 14
M  V30 53 1 48 14
M  V30 54 1 49 15
M  V30 55 1 50 15
M  V30 56 1 51 16
M  V30 57 1 52 18
M  V30 58 1 53 19
M  V30 59 1 54 22
M  V30 60 1 55 22
M  V30 61 1 56 23
M  V30 62 1 57 23
M  V30 63 1 24 58 CFG=1
M  V30 64 1 59 25
M  V30 65 1 60 26
M  V30 66 1 61 26
M  V30 67 1 62 27
M  V30 68 1 63 27
M  V30 69 1 29 64 CFG=3
M  V30 70 1 65 30
M  V30 71 1 66 31
M  V30 72 1 67 31
M  V30 73 1 32 68 CFG=1
M  V30 74 1 69 34
M  V30 75 1 70 34
M  V30 76 1 33 71 CFG=3
M  V30 END BOND
M  V30 END CTAB
M  END
>  <i_epik_Tot_Q>  (1) 
1

>  <i_epik_Tot_abs_Q>  (1) 
1

>  <i_i_glide_confnum>  (1) 
33

>  <i_i_glide_lignum>  (1) 
81

>  <i_i_glide_posenum>  (1) 
37

>  <i_i_glide_rotatable_bonds>  (1) 
6

>  <i_lp_mmshare_version>  (1) 
72125

>  <i_m_source_file_index>  (1) 
32

>  <i_f3d_flags>  (1) 
0

>  <num_sample>  (1) 
50

>  <b_lp_Chiralities_Consistent>  (1) 
1

>  <r_epik_Charging_Adjusted_Penalty>  (1) 
0.0036996964664751512

>  <r_epik_Ionization_Penalty>  (1) 
0.0040620325304727405

>  <r_epik_Ionization_Penalty_Charging>  (1) 
0.0036996964664751512

>  <r_epik_Ionization_Penalty_Neutral>  (1) 
0.00036233606399758918

>  <r_epik_State_Penalty>  (1) 
-0

>  <r_glide_ring_energy>  (1) 
1.2687512697067889

>  <r_i_docking_score>  (1) 
-1.8390705299076038

>  <r_i_glide_ecoul>  (1) 
0.43806657269414756

>  <r_i_glide_eff_state_penalty>  (1) 
-0

>  <r_i_glide_einternal>  (1) 
12.042643149950701

>  <r_i_glide_emodel>  (1) 
-11.57923707561924

>  <r_i_glide_emodel_strain>  (1) 
0.54815555315150277

>  <r_i_glide_energy>  (1) 
-14.857348285359036

>  <r_i_glide_erotb>  (1) 
0.36352394052346937

>  <r_i_glide_esite>  (1) 
0

>  <r_i_glide_evdw>  (1) 
-15.295414858053183

>  <r_i_glide_gscore>  (1) 
-1.8390705299076038

>  <r_i_glide_gscore_strain>  (1) 
0

>  <r_i_glide_hbond>  (1) 
0

>  <r_i_glide_ligand_efficiency>  (1) 
-0.054090309703164814

>  <r_i_glide_ligand_efficiency_ln>  (1) 
-0.40630226423768095

>  <r_i_glide_ligand_efficiency_sa>  (1) 
-0.17523160564912674

>  <r_i_glide_lipo>  (1) 
-1.3100070543416256

>  <r_i_glide_metal>  (1) 
-0

>  <r_i_glide_rewards>  (1) 
-0.19352665909091038

>  <r_lp_Energy>  (1) 
34.452109999999998

>  <r_lp_tautomer_probability>  (1) 
1

>  <s_epik_cmdline>  (1) 
J2VwaWtfcHl0aG9uJywgJy1waHQnLCAnMS4wJywgJy1waCcsICc3LjQnLCAnLXRuJywgJzgnLCAnLW1hJywgJzUwMCcsICctaW1hZScsICc8aW5maWxlLm1hZT4nLCAnLW9tYWUnLCAnPG91dGZpbGUubWFlPic=

>  <s_epik_input>  (1) 
RmMxW2NIXVtjSF1jKFtjSF1bY0hdMSlDMihbQ0gyXVtDSDJdMilOKFtDSDJdW0NIMl0zKVtDSDJdW0NIMl1OKFtDQEhdM0M0NVtDSDJdW0NIMl01KVtDSDJdW0NIMl1bQ0BIXTQvW0NIXT1DKC9bQ0BdNihGKVtDSDJdW09IXSlDKD1bQ0gyXSlbQ0gyXVtDQEhdNltPSF0=

>  <s_glide_docking_method>  (1) 
confgen

>  <s_i_glide_gridfile>  (1) 
gpcr_drd2_6luq_protein_autoprepared_prepared

>  <s_lp_Force_Field>  (1) 
S-OPLS

>  <s_lp_Variant>  (1) 
DiffSBDD_31_num_sample_50-4

>  <s_m_source_file>  (1) 
generated__ligand_DiffSBDD_2026-05-06_prepared.sdf

>  <GenAI_Model>  (1) 
DiffSBDD

>  <Protein>  (1) 
generic_title2

$$$$
DiffSBDD_36_num_sample_50
     RDKit          3D

  0  0  0  0  0  0  0  0  0  0999 V3000
M  V30 BEGIN CTAB
M  V30 COUNTS 76 79 0 0 1
M  V30 BEGIN ATOM
M  V30 1 C 4.478346 -1.273909 -18.609562 0
M  V30 2 O 10.170168 4.619585 -15.891674 0
M  V30 3 C 7.566888 2.221424 -20.052694 0
M  V30 4 S 10.806865 5.350764 -17.073098 0
M  V30 5 C 6.334525 -2.827496 -17.878135 0 CFG=2
M  V30 6 C 5.366761 -0.731633 -19.740741 0
M  V30 7 C 11.907854 3.317024 -18.681128 0 CFG=1
M  V30 8 C 6.868297 -0.806747 -19.380153 0 CFG=1
M  V30 9 F 4.556079 -3.518623 -19.270125 0
M  V30 10 O 12.090052 2.568301 -17.491667 0
M  V30 11 C 7.762744 1.414860 -22.518349 0
M  V30 12 C 6.728802 -4.261705 -17.491702 0
M  V30 13 C 4.844699 -2.718326 -18.241757 0 CFG=2
M  V30 14 C 9.478567 0.987436 -19.004830 0
M  V30 15 C 12.622519 5.503949 -16.695786 0
M  V30 16 C 8.129993 4.589671 -18.543237 0
M  V30 17 C 14.885226 6.262664 -17.540042 0
M  V30 18 O 13.213672 5.420906 -19.106601 0
M  V30 19 C 6.316746 1.200894 -22.138541 0
M  V30 20 C 7.224166 -2.268181 -19.003860 0
M  V30 21 C 12.855892 7.539842 -18.186924 0
M  V30 22 C 10.659524 4.234999 -18.575029 0 CFG=1
M  V30 23 C 7.398220 1.105231 -21.080977 0
M  V30 24 C 13.386638 6.127408 -17.877474 0
M  V30 25 C 9.030575 2.371713 -19.547027 0 CFG=2
M  V30 26 C 7.813666 -0.248878 -20.494864 0 CFG=1
M  V30 27 C 14.503794 3.316442 -18.722388 0
M  V30 28 C 9.257032 3.521531 -18.496421 0 CFG=2
M  V30 29 C 13.216510 3.863647 -20.768550 0
M  V30 30 C 9.285455 -0.129337 -20.043104 0
M  V30 31 C 13.210110 3.991968 -19.230910 0
M  V30 32 H 4.576694 -0.637161 -17.729412 0
M  V30 33 H 3.434840 -1.219591 -18.907256 0
M  V30 34 H 6.891104 2.032441 -19.218296 0
M  V30 35 H 7.230145 3.147066 -20.519447 0
M  V30 36 H 6.496405 -2.202959 -16.999443 0
M  V30 37 H 5.068061 0.298135 -19.933568 0
M  V30 38 H 5.174166 -1.288702 -20.658741 0
M  V30 39 H 11.691318 2.554360 -19.422313 0
M  V30 40 H 6.992270 -0.202119 -18.483091 0
M  V30 41 H 11.834829 3.101641 -16.750712 0
M  V30 42 H 8.072829 2.430124 -22.757754 0
M  V30 43 H 8.246937 0.634114 -23.101536 0
M  V30 44 H 6.618998 -4.946908 -18.332488 0
M  V30 45 H 7.765050 -4.306252 -17.154813 0
M  V30 46 H 6.104450 -4.630708 -16.676952 0
M  V30 47 H 4.234840 -3.062923 -17.405995 0
M  V30 48 H 10.517944 0.971025 -18.697242 0
M  V30 49 H 8.926072 0.753020 -18.095728 0
M  V30 50 H 13.049088 4.554203 -16.385252 0
M  V30 51 H 12.713968 6.149739 -15.821900 0
M  V30 52 H 8.103324 5.096839 -19.508024 0
M  V30 53 H 7.147999 4.155601 -18.358930 0
M  V30 54 H 8.234789 5.358650 -17.780426 0
M  V30 55 H 15.032238 6.969302 -16.724211 0
M  V30 56 H 15.339058 5.330678 -17.214547 0
M  V30 57 H 15.451794 6.627243 -18.397340 0
M  V30 58 H 5.846004 0.279658 -22.476363 0
M  V30 59 H 5.664297 2.071496 -22.120163 0
M  V30 60 H 7.144444 -2.904945 -19.885826 0
M  V30 61 H 8.256211 -2.337727 -18.667241 0
M  V30 62 H 12.866627 8.169298 -17.297090 0
M  V30 63 H 13.462539 8.034175 -18.946456 0
M  V30 64 H 11.834842 7.522207 -18.566974 0
M  V30 65 H 10.656832 4.877566 -19.455969 0
M  V30 66 H 9.627198 2.608749 -20.428797 0
M  V30 67 H 7.783948 -0.969246 -21.313898 0
M  V30 68 H 14.536156 2.268984 -19.023956 0
M  V30 69 H 15.391996 3.799863 -19.129692 0
M  V30 70 H 14.582076 3.325385 -17.636811 0
M  V30 71 H 9.179735 3.052566 -17.515071 0
M  V30 72 H 13.252211 2.821732 -21.089268 0
M  V30 73 H 12.326926 4.313810 -21.210514 0
M  V30 74 H 14.082226 4.364884 -21.203323 0
M  V30 75 H 9.907260 0.091067 -20.911770 0
M  V30 76 H 9.670547 -1.069316 -19.655723 0
M  V30 END ATOM
M  V30 BEGIN BOND
M  V30 1 2 4 2
M  V30 2 1 6 1
M  V30 3 1 8 6
M  V30 4 1 10 7
M  V30 5 1 12 5
M  V30 6 1 13 1
M  V30 7 1 13 5
M  V30 8 1 13 9
M  V30 9 1 4 15 CFG=1
M  V30 10 1 19 11
M  V30 11 1 20 5
M  V30 12 1 20 8
M  V30 13 1 22 4
M  V30 14 1 22 7
M  V30 15 1 23 3
M  V30 16 1 23 11
M  V30 17 1 23 19
M  V30 18 1 24 15
M  V30 19 1 24 17
M  V30 20 1 24 18
M  V30 21 1 24 21
M  V30 22 1 25 3
M  V30 23 1 25 14
M  V30 24 1 26 8
M  V30 25 1 26 23
M  V30 26 1 28 16
M  V30 27 1 28 22
M  V30 28 1 28 25
M  V30 29 1 30 14
M  V30 30 1 30 26
M  V30 31 1 31 7
M  V30 32 1 31 18
M  V30 33 1 31 27
M  V30 34 1 31 29
M  V30 35 1 32 1
M  V30 36 1 33 1
M  V30 37 1 34 3
M  V30 38 1 35 3
M  V30 39 1 5 36 CFG=1
M  V30 40 1 37 6
M  V30 41 1 38 6
M  V30 42 1 7 39 CFG=3
M  V30 43 1 8 40 CFG=1
M  V30 44 1 41 10
M  V30 45 1 42 11
M  V30 46 1 43 11
M  V30 47 1 44 12
M  V30 48 1 45 12
M  V30 49 1 46 12
M  V30 50 1 13 47 CFG=1
M  V30 51 1 48 14
M  V30 52 1 49 14
M  V30 53 1 50 15
M  V30 54 1 51 15
M  V30 55 1 52 16
M  V30 56 1 53 16
M  V30 57 1 54 16
M  V30 58 1 55 17
M  V30 59 1 56 17
M  V30 60 1 57 17
M  V30 61 1 58 19
M  V30 62 1 59 19
M  V30 63 1 60 20
M  V30 64 1 61 20
M  V30 65 1 62 21
M  V30 66 1 63 21
M  V30 67 1 64 21
M  V30 68 1 22 65 CFG=3
M  V30 69 1 25 66 CFG=3
M  V30 70 1 26 67 CFG=3
M  V30 71 1 68 27
M  V30 72 1 69 27
M  V30 73 1 70 27
M  V30 74 1 28 71 CFG=1
M  V30 75 1 72 29
M  V30 76 1 73 29
M  V30 77 1 74 29
M  V30 78 1 75 30
M  V30 79 1 76 30
M  V30 END BOND
M  V30 END CTAB
M  END
>  <i_epik_Tot_Q>  (1) 
0

>  <i_epik_Tot_abs_Q>  (1) 
0

>  <i_i_glide_confnum>  (1) 
14

>  <i_i_glide_lignum>  (1) 
91

>  <i_i_glide_posenum>  (1) 
304

>  <i_i_glide_rotatable_bonds>  (1) 
4

>  <i_lp_mmshare_version>  (1) 
72125

>  <i_m_source_file_index>  (1) 
37

>  <i_f3d_flags>  (1) 
0

>  <num_sample>  (1) 
50

>  <b_lp_Chiralities_Consistent>  (1) 
1

>  <r_epik_Charging_Adjusted_Penalty>  (1) 
0

>  <r_epik_Ionization_Penalty>  (1) 
1.4246355220095789e-06

>  <r_epik_Ionization_Penalty_Charging>  (1) 
0

>  <r_epik_Ionization_Penalty_Neutral>  (1) 
1.4246355220095789e-06

>  <r_epik_State_Penalty>  (1) 
-0

>  <r_glide_ring_energy>  (1) 
0

>  <r_i_docking_score>  (1) 
-1.8162178349048972

>  <r_i_glide_ecoul>  (1) 
-0.41038144290036749

>  <r_i_glide_eff_state_penalty>  (1) 
-0

>  <r_i_glide_einternal>  (1) 
4.0439932761209292

>  <r_i_glide_emodel>  (1) 
-20.659387414067979

>  <r_i_glide_emodel_strain>  (1) 
0.6541585209519809

>  <r_i_glide_energy>  (1) 
-21.231318998590918

>  <r_i_glide_erotb>  (1) 
0.28908081276348274

>  <r_i_glide_esite>  (1) 
0

>  <r_i_glide_evdw>  (1) 
-20.820937555690552

>  <r_i_glide_gscore>  (1) 
-1.8162178349048972

>  <r_i_glide_gscore_strain>  (1) 
0

>  <r_i_glide_hbond>  (1) 
0

>  <r_i_glide_ligand_efficiency>  (1) 
-0.058587672093706362

>  <r_i_glide_ligand_efficiency_ln>  (1) 
-0.4096127821631339

>  <r_i_glide_ligand_efficiency_sa>  (1) 
-0.18404617958382033

>  <r_i_glide_lipo>  (1) 
-0.54352513952702286

>  <r_i_glide_metal>  (1) 
-0

>  <r_i_glide_rewards>  (1) 
-0.45916941392177429

>  <r_lp_Energy>  (1) 
32.420203000000001

>  <r_lp_tautomer_probability>  (1) 
1

>  <s_epik_cmdline>  (1) 
J2VwaWtfcHl0aG9uJywgJy1waHQnLCAnMS4wJywgJy1waCcsICc3LjQnLCAnLXRuJywgJzgnLCAnLW1hJywgJzUwMCcsICctaW1hZScsICc8aW5maWxlLm1hZT4nLCAnLW9tYWUnLCAnPG91dGZpbGUubWFlPic=

>  <s_epik_input>  (1) 
W0NIM11bQ0BASF0xW0NASF0oRilbQ0gyXVtDSDJdW0NAQEhdKFtDSDJdMSlbQ0BASF0yW0NIMl1bQ0gyXVtDQEBIXShbQ0gyXUMyM1tDSDJdW0NIMl0zKVtDQEhdKFtDSDNdKVtDQEhdKFtDQEhdKFtPSF0pQyhPNCkoW0NIM10pW0NIM10pUyg9TylbQ0gyXUM0KFtDSDNdKVtDSDNd

>  <s_glide_docking_method>  (1) 
confgen

>  <s_i_glide_gridfile>  (1) 
gpcr_drd2_6luq_protein_autoprepared_prepared

>  <s_lp_Force_Field>  (1) 
S-OPLS

>  <s_lp_Variant>  (1) 
DiffSBDD_36_num_sample_50-1

>  <s_m_source_file>  (1) 
generated__ligand_DiffSBDD_2026-05-06_prepared.sdf

>  <GenAI_Model>  (1) 
DiffSBDD

>  <Protein>  (1) 
generic_title2

$$$$
DiffSBDD_10_num_sample_50
     RDKit          3D

  0  0  0  0  0  0  0  0  0  0999 V3000
M  V30 BEGIN CTAB
M  V30 COUNTS 71 72 0 0 1
M  V30 BEGIN ATOM
M  V30 1 C 12.658438 1.206279 -18.997982 0 CFG=2
M  V30 2 C 8.680197 4.995656 -11.201128 0
M  V30 3 C 8.138085 4.147539 -14.188801 0
M  V30 4 C 9.054277 4.730568 -17.730493 0 CFG=1
M  V30 5 C 11.879625 2.154645 -19.925373 0 CFG=2
M  V30 6 N 6.403605 5.769335 -11.091664 0
M  V30 7 N 9.096204 3.419476 -19.754818 0
M  V30 8 C 10.364586 4.064648 -19.641113 0 CFG=1
M  V30 9 S 14.063559 0.201499 -19.724740 0
M  V30 10 C 9.282587 6.180643 -10.468419 0
M  V30 11 S 15.457149 1.743610 -20.145651 0 CHG=-1
M  V30 12 C 13.979235 2.322874 -17.096329 0
M  V30 13 O 10.773580 6.569358 -6.352922 0
M  V30 14 O 14.635160 -0.630641 -18.655368 0
M  V30 15 C 11.343338 0.770660 -19.622649 0 CFG=2
M  V30 16 C 6.575710 2.100705 -13.905444 0
M  V30 17 C 8.446947 3.505078 -18.456357 0 CFG=2
M  V30 18 N 9.879801 7.207688 -8.348753 0
M  V30 19 N 6.851422 3.769305 -12.152795 0
M  V30 20 C 9.356041 5.987035 -8.948318 0
M  V30 21 C 11.500846 5.733781 -18.065129 0
M  V30 22 C 12.806011 1.416633 -17.491677 0
M  V30 23 C 12.338839 2.582973 -21.312877 0
M  V30 24 C 9.524915 4.458120 -16.284344 0
M  V30 25 C 7.173990 3.380575 -13.328057 0
M  V30 26 O 10.236992 0.789784 -18.749016 0
M  V30 27 C 7.363358 4.865273 -11.467224 0
M  V30 28 O 13.665135 -0.414357 -21.000458 0
M  V30 29 F 7.129893 3.622888 -18.617547 0
M  V30 30 N 7.335339 0.926041 -13.514454 0
M  V30 31 C 9.675576 7.250712 -6.914073 0
M  V30 32 C 10.171805 5.233684 -18.671769 0 CFG=2
M  V30 33 O 11.335392 3.205301 -19.110579 0
M  V30 34 C 8.533480 3.717853 -15.404859 0
M  V30 35 H 9.369634 4.226201 -11.519895 0
M  V30 36 H 8.512595 5.072011 -13.779923 0
M  V30 37 H 8.290959 5.508352 -17.674154 0
M  V30 38 H 6.634393 6.584037 -10.503191 0
M  V30 39 H 9.173803 2.454964 -20.049416 0
M  V30 40 H 10.693941 4.435934 -20.611005 0
M  V30 41 H 8.687418 7.066991 -10.691775 0
M  V30 42 H 10.265661 6.378424 -10.889346 0
M  V30 43 H 13.957821 2.548427 -16.031477 0
M  V30 44 H 14.938203 1.850556 -17.306373 0
M  V30 45 H 13.940890 3.269854 -17.635123 0
M  V30 46 H 10.445376 5.817712 -5.880785 0
M  V30 47 H 11.295673 0.016768 -20.404963 0
M  V30 48 H 5.572769 1.985599 -13.491857 0
M  V30 49 H 6.437278 2.147701 -14.982816 0
M  V30 50 H 8.622005 2.581399 -17.908705 0
M  V30 51 H 10.857568 7.327599 -8.563291 0
M  V30 52 H 9.984008 5.135079 -8.685909 0
M  V30 53 H 8.352245 5.788326 -8.568423 0
M  V30 54 H 12.023575 4.961660 -17.501104 0
M  V30 55 H 12.177882 6.074455 -18.848546 0
M  V30 56 H 11.335116 6.569338 -17.388000 0
M  V30 57 H 11.892858 1.853302 -17.091623 0
M  V30 58 H 12.910810 0.442230 -17.016735 0
M  V30 59 H 12.841351 1.773006 -21.836638 0
M  V30 60 H 11.488810 2.880515 -21.926072 0
M  V30 61 H 13.032305 3.420914 -21.234789 0
M  V30 62 H 9.816969 5.390658 -15.800091 0
M  V30 63 H 10.418649 3.834563 -16.315179 0
M  V30 64 H 10.349974 1.554826 -18.201995 0
M  V30 65 H 6.876599 0.088245 -13.847494 0
M  V30 66 H 8.251805 0.943872 -13.937153 0
M  V30 67 H 8.719346 6.819712 -6.611618 0
M  V30 68 H 9.697419 8.288730 -6.580687 0
M  V30 69 H 9.749617 6.048313 -19.262593 0
M  V30 70 H 8.151654 2.793079 -15.799341 0
M  V30 71 H 5.422620 5.579598 -11.217790 0
M  V30 END ATOM
M  V30 BEGIN BOND
M  V30 1 1 5 1
M  V30 2 1 8 7
M  V30 3 1 9 1
M  V30 4 1 10 2
M  V30 5 1 11 9
M  V30 6 2 14 9
M  V30 7 1 15 1
M  V30 8 1 15 5
M  V30 9 1 17 4
M  V30 10 1 17 7
M  V30 11 1 20 10
M  V30 12 1 20 18
M  V30 13 1 1 22 CFG=1
M  V30 14 1 22 12
M  V30 15 1 23 5
M  V30 16 1 24 4
M  V30 17 1 25 3
M  V30 18 1 25 16
M  V30 19 2 25 19
M  V30 20 1 26 15
M  V30 21 2 27 2
M  V30 22 1 27 6
M  V30 23 1 27 19
M  V30 24 2 28 9
M  V30 25 1 29 17
M  V30 26 1 30 16
M  V30 27 1 31 13
M  V30 28 1 31 18
M  V30 29 1 32 4
M  V30 30 1 32 8
M  V30 31 1 32 21
M  V30 32 1 5 33 CFG=1
M  V30 33 1 33 8
M  V30 34 2 34 3
M  V30 35 1 34 24
M  V30 36 1 35 2
M  V30 37 1 36 3
M  V30 38 1 4 37 CFG=1
M  V30 39 1 38 6
M  V30 40 1 39 7
M  V30 41 1 8 40 CFG=3
M  V30 42 1 41 10
M  V30 43 1 42 10
M  V30 44 1 43 12
M  V30 45 1 44 12
M  V30 46 1 45 12
M  V30 47 1 46 13
M  V30 48 1 15 47 CFG=3
M  V30 49 1 48 16
M  V30 50 1 49 16
M  V30 51 1 17 50 CFG=1
M  V30 52 1 51 18
M  V30 53 1 52 20
M  V30 54 1 53 20
M  V30 55 1 54 21
M  V30 56 1 55 21
M  V30 57 1 56 21
M  V30 58 1 57 22
M  V30 59 1 58 22
M  V30 60 1 59 23
M  V30 61 1 60 23
M  V30 62 1 61 23
M  V30 63 1 62 24
M  V30 64 1 63 24
M  V30 65 1 64 26
M  V30 66 1 65 30
M  V30 67 1 66 30
M  V30 68 1 67 31
M  V30 69 1 68 31
M  V30 70 1 32 69 CFG=3
M  V30 71 1 70 34
M  V30 72 1 71 6
M  V30 END BOND
M  V30 END CTAB
M  END
>  <i_epik_Tot_Q>  (1) 
-1

>  <i_epik_Tot_abs_Q>  (1) 
1

>  <i_i_glide_confnum>  (1) 
1388

>  <i_i_glide_lignum>  (1) 
42

>  <i_i_glide_posenum>  (1) 
70

>  <i_i_glide_rotatable_bonds>  (1) 
15

>  <i_lp_mmshare_version>  (1) 
72125

>  <i_m_source_file_index>  (1) 
11

>  <i_f3d_flags>  (1) 
0

>  <num_sample>  (1) 
50

>  <b_lp_Chiralities_Consistent>  (1) 
1

>  <r_epik_Charging_Adjusted_Penalty>  (1) 
1.239197207418439

>  <r_epik_Ionization_Penalty>  (1) 
1.2496715491914541

>  <r_epik_Ionization_Penalty_Charging>  (1) 
1.1069707349969355e-11

>  <r_epik_Ionization_Penalty_Neutral>  (1) 
1.2496715491803843

>  <r_epik_State_Penalty>  (1) 
1.2391972074073692

>  <r_glide_ring_energy>  (1) 
0

>  <r_i_docking_score>  (1) 
-1.7474061405317747

>  <r_i_glide_ecoul>  (1) 
-3.1953874552114621

>  <r_i_glide_eff_state_penalty>  (1) 
1.2391972074073692

>  <r_i_glide_einternal>  (1) 
9.1300120464651862

>  <r_i_glide_emodel>  (1) 
-38.997442788124822

>  <r_i_glide_emodel_strain>  (1) 
0.71342078189682923

>  <r_i_glide_energy>  (1) 
-36.189018759301

>  <r_i_glide_erotb>  (1) 
0.82803537691766171

>  <r_i_glide_esite>  (1) 
-0.13043243010246539

>  <r_i_glide_evdw>  (1) 
-32.99363130408954

>  <r_i_glide_gscore>  (1) 
-2.9866033479391438

>  <r_i_glide_gscore_strain>  (1) 
0

>  <r_i_glide_hbond>  (1) 
-0.16

>  <r_i_glide_ligand_efficiency>  (1) 
-0.051394298250934549

>  <r_i_glide_ligand_efficiency_ln>  (1) 
-0.38605102952552722

>  <r_i_glide_ligand_efficiency_sa>  (1) 
-0.16649757513210231

>  <r_i_glide_lipo>  (1) 
-0.9138377231928253

>  <r_i_glide_metal>  (1) 
-0

>  <r_i_glide_rewards>  (1) 
-0.48137888807531848

>  <r_lp_Energy>  (1) 
16.483426999999999

>  <s_epik_Chemistry_Notes>  (1) 
This compound has an imine and may undergo hydrolysis. This compound contains an acetal/aminal-like group ( X-CH(R)-Y where X, Y are N, S, or O) that may be acid/base labile, releasing an aldehyde.

>  <s_epik_cmdline>  (1) 
J2VwaWtfcHl0aG9uJywgJy1waHQnLCAnMS4wJywgJy1waCcsICc3LjQnLCAnLXRuJywgJzgnLCAnLW1hJywgJzUwMCcsICctaW1hZScsICc8aW5maWxlLm1hZT4nLCAnLW9tYWUnLCAnPG91dGZpbGUubWFlPic=

>  <s_epik_input>  (1) 
W1NIXVMoPU8pKD1PKVtDQEBdMShbQ0gyXVtDSDNdKVtDQEBdKFtDSDNdKShbQ0BASF0xW09IXSlPW0NASF0oW0NAQEhdMltDSDNdKVtOSF1bQ0BASF0oRilbQ0BIXTJbQ0gyXVxbQ0hdPVtDSF1cQyhbQ0gyXVtOSDJdKT1OL0MoPU4vW0hdKS9bQ0gyXVtDSDJdW0NIMl1bTkhdW0NIMl1bT0hd

>  <s_glide_docking_method>  (1) 
confgen

>  <s_i_glide_gridfile>  (1) 
gpcr_drd2_6luq_protein_autoprepared_prepared

>  <s_lp_Force_Field>  (1) 
S-OPLS

>  <s_lp_Variant>  (1) 
DiffSBDD_10_num_sample_50-22

>  <s_m_source_file>  (1) 
generated__ligand_DiffSBDD_2026-05-06_prepared.sdf

>  <GenAI_Model>  (1) 
DiffSBDD

>  <Protein>  (1) 
generic_title2

$$$$
DiffSBDD_10_num_sample_50
     RDKit          3D

  0  0  0  0  0  0  0  0  0  0999 V3000
M  V30 BEGIN CTAB
M  V30 COUNTS 71 72 0 0 1
M  V30 BEGIN ATOM
M  V30 1 C 5.597918 8.496744 -22.070517 0 CFG=2
M  V30 2 C 10.196842 7.588318 -11.491859 0
M  V30 3 C 8.267166 5.822966 -14.188181 0
M  V30 4 C 6.382319 5.815571 -17.539065 0 CFG=1
M  V30 5 C 5.192261 7.004482 -21.895674 0 CFG=2
M  V30 6 N 9.801269 5.200512 -11.491661 0
M  V30 7 N 6.816167 5.737104 -19.806616 0
M  V30 8 C 5.413492 6.003724 -19.700024 0 CFG=1
M  V30 9 S 4.533176 9.481511 -23.253918 0
M  V30 10 C 11.676732 7.540498 -11.152308 0
M  V30 11 S 3.336843 10.569331 -21.889076 0 CHG=-1
M  V30 12 C 7.259812 10.426540 -21.560640 0
M  V30 13 O 12.162043 8.969266 -7.126092 0
M  V30 14 O 5.373896 10.458331 -23.960004 0
M  V30 15 C 6.394752 7.429809 -22.738220 0 CFG=2
M  V30 16 C 6.047389 6.865880 -13.264793 0
M  V30 17 C 7.454199 6.180595 -18.582380 0 CFG=2
M  V30 18 N 11.434310 7.522378 -8.753326 0
M  V30 19 N 8.054189 6.662722 -11.912169 0
M  V30 20 C 11.967933 8.315198 -9.857732 0
M  V30 21 C 4.697119 7.769306 -17.967482 0
M  V30 22 C 6.310681 9.348672 -21.014222 0
M  V30 23 C 4.113056 6.170916 -22.570307 0
M  V30 24 C 6.565894 6.269080 -16.077067 0
M  V30 25 C 7.503519 6.466981 -13.047573 0
M  V30 26 O 7.616266 6.991346 -22.168573 0
M  V30 27 C 9.399558 6.512309 -11.626359 0
M  V30 28 O 3.637350 8.598611 -24.011673 0
M  V30 29 F 8.611993 5.539359 -18.440309 0
M  V30 30 N 5.440461 7.369043 -12.039051 0
M  V30 31 C 11.017139 8.297339 -7.599014 0
M  V30 32 C 5.098017 6.309985 -18.215393 0 CFG=2
M  V30 33 O 5.033351 7.084437 -20.480948 0
M  V30 34 C 7.858592 5.730276 -15.481905 0
M  V30 35 H 9.772314 8.569314 -11.623828 0
M  V30 36 H 9.224282 5.410867 -13.915892 0
M  V30 37 H 6.336630 4.724867 -17.518145 0
M  V30 38 H 10.771559 4.950903 -11.400421 0
M  V30 39 H 7.226906 6.179538 -20.630331 0
M  V30 40 H 4.863487 5.122309 -20.033096 0
M  V30 41 H 12.306702 7.769302 -12.001739 0
M  V30 42 H 12.048877 6.569302 -11.068223 0
M  V30 43 H 7.838281 10.871085 -20.751847 0
M  V30 44 H 7.960613 10.011704 -22.285150 0
M  V30 45 H 6.721510 11.241647 -22.040859 0
M  V30 46 H 12.909447 8.576248 -7.550029 0
M  V30 47 H 6.353261 7.325981 -23.820380 0
M  V30 48 H 5.967260 7.647893 -14.016166 0
M  V30 49 H 5.465479 5.992660 -13.552901 0
M  V30 50 H 7.654701 7.251201 -18.617633 0
M  V30 51 H 10.610339 7.039434 -9.094975 0
M  V30 52 H 11.506452 9.302850 -9.891588 0
M  V30 53 H 13.039482 8.458643 -9.715730 0
M  V30 54 H 5.434776 8.478059 -18.326334 0
M  V30 55 H 3.761255 7.998140 -18.478615 0
M  V30 56 H 4.527373 7.962264 -16.907953 0
M  V30 57 H 5.556825 9.769284 -20.354811 0
M  V30 58 H 6.900381 8.695628 -20.374358 0
M  V30 59 H 4.260785 6.136666 -23.650097 0
M  V30 60 H 4.147416 5.145776 -22.206815 0
M  V30 61 H 3.125815 6.569387 -22.370303 0
M  V30 62 H 5.692993 5.889226 -15.556998 0
M  V30 63 H 6.579371 7.357470 -16.031512 0
M  V30 64 H 8.315514 7.520848 -22.524152 0
M  V30 65 H 5.486511 6.644610 -11.334519 0
M  V30 66 H 6.042424 8.091026 -11.660103 0
M  V30 67 H 10.647049 7.619718 -6.828717 0
M  V30 68 H 10.206686 8.973290 -7.859386 0
M  V30 69 H 4.234873 5.769276 -17.872959 0
M  V30 70 H 8.512933 5.231259 -16.176464 0
M  V30 71 H 9.163584 4.436398 -11.659442 0
M  V30 END ATOM
M  V30 BEGIN BOND
M  V30 1 1 5 1
M  V30 2 1 8 7
M  V30 3 1 9 1
M  V30 4 1 10 2
M  V30 5 1 11 9
M  V30 6 2 14 9
M  V30 7 1 15 1
M  V30 8 1 15 5
M  V30 9 1 17 4
M  V30 10 1 17 7
M  V30 11 1 20 10
M  V30 12 1 20 18
M  V30 13 1 1 22 CFG=1
M  V30 14 1 22 12
M  V30 15 1 23 5
M  V30 16 1 24 4
M  V30 17 1 25 3
M  V30 18 1 25 16
M  V30 19 2 25 19
M  V30 20 1 26 15
M  V30 21 2 27 2
M  V30 22 1 27 6
M  V30 23 1 27 19
M  V30 24 2 28 9
M  V30 25 1 29 17
M  V30 26 1 30 16
M  V30 27 1 31 13
M  V30 28 1 31 18
M  V30 29 1 32 4
M  V30 30 1 32 8
M  V30 31 1 32 21
M  V30 32 1 5 33 CFG=1
M  V30 33 1 33 8
M  V30 34 2 34 3
M  V30 35 1 34 24
M  V30 36 1 35 2
M  V30 37 1 36 3
M  V30 38 1 4 37 CFG=1
M  V30 39 1 38 6
M  V30 40 1 39 7
M  V30 41 1 8 40 CFG=3
M  V30 42 1 41 10
M  V30 43 1 42 10
M  V30 44 1 43 12
M  V30 45 1 44 12
M  V30 46 1 45 12
M  V30 47 1 46 13
M  V30 48 1 15 47 CFG=3
M  V30 49 1 48 16
M  V30 50 1 49 16
M  V30 51 1 17 50 CFG=3
M  V30 52 1 51 18
M  V30 53 1 52 20
M  V30 54 1 53 20
M  V30 55 1 54 21
M  V30 56 1 55 21
M  V30 57 1 56 21
M  V30 58 1 57 22
M  V30 59 1 58 22
M  V30 60 1 59 23
M  V30 61 1 60 23
M  V30 62 1 61 23
M  V30 63 1 62 24
M  V30 64 1 63 24
M  V30 65 1 64 26
M  V30 66 1 65 30
M  V30 67 1 66 30
M  V30 68 1 67 31
M  V30 69 1 68 31
M  V30 70 1 32 69 CFG=1
M  V30 71 1 70 34
M  V30 72 1 71 6
M  V30 END BOND
M  V30 END CTAB
M  END
>  <i_epik_Tot_Q>  (1) 
-1

>  <i_epik_Tot_abs_Q>  (1) 
1

>  <i_i_glide_confnum>  (1) 
384

>  <i_i_glide_lignum>  (1) 
41

>  <i_i_glide_posenum>  (1) 
372

>  <i_i_glide_rotatable_bonds>  (1) 
15

>  <i_lp_mmshare_version>  (1) 
72125

>  <i_m_source_file_index>  (1) 
11

>  <i_f3d_flags>  (1) 
0

>  <num_sample>  (1) 
50

>  <b_lp_Chiralities_Consistent>  (1) 
1

>  <r_epik_Charging_Adjusted_Penalty>  (1) 
1.239197207418439

>  <r_epik_Ionization_Penalty>  (1) 
1.2496715491914541

>  <r_epik_Ionization_Penalty_Charging>  (1) 
1.1069707349969355e-11

>  <r_epik_Ionization_Penalty_Neutral>  (1) 
1.2496715491803843

>  <r_epik_State_Penalty>  (1) 
1.2391972074073692

>  <r_glide_ring_energy>  (1) 
0

>  <r_i_docking_score>  (1) 
-1.569269981788149

>  <r_i_glide_ecoul>  (1) 
-0.21346200370606344

>  <r_i_glide_eff_state_penalty>  (1) 
1.2391972074073692

>  <r_i_glide_einternal>  (1) 
11.487693715487605

>  <r_i_glide_emodel>  (1) 
-23.398545692404937

>  <r_i_glide_emodel_strain>  (1) 
3.9846289397307544

>  <r_i_glide_energy>  (1) 
-25.970765981490239

>  <r_i_glide_erotb>  (1) 
0.82803537691766171

>  <r_i_glide_esite>  (1) 
-0.0029093838961376625

>  <r_i_glide_evdw>  (1) 
-25.757303977784176

>  <r_i_glide_gscore>  (1) 
-2.8084671891955182

>  <r_i_glide_gscore_strain>  (1) 
0

>  <r_i_glide_hbond>  (1) 
-0.010049337034462407

>  <r_i_glide_ligand_efficiency>  (1) 
-0.046154999464357326

>  <r_i_glide_ligand_efficiency_ln>  (1) 
-0.34669575550905196

>  <r_i_glide_ligand_efficiency_sa>  (1) 
-0.14952428095268794

>  <r_i_glide_lipo>  (1) 
-1.6470601782946852

>  <r_i_glide_metal>  (1) 
-0

>  <r_i_glide_rewards>  (1) 
-0.65659916744277613

>  <r_lp_Energy>  (1) 
23.213093000000001

>  <s_epik_Chemistry_Notes>  (1) 
This compound has an imine and may undergo hydrolysis. This compound contains an acetal/aminal-like group ( X-CH(R)-Y where X, Y are N, S, or O) that may be acid/base labile, releasing an aldehyde.

>  <s_epik_cmdline>  (1) 
J2VwaWtfcHl0aG9uJywgJy1waHQnLCAnMS4wJywgJy1waCcsICc3LjQnLCAnLXRuJywgJzgnLCAnLW1hJywgJzUwMCcsICctaW1hZScsICc8aW5maWxlLm1hZT4nLCAnLW9tYWUnLCAnPG91dGZpbGUubWFlPic=

>  <s_epik_input>  (1) 
W1NIXVMoPU8pKD1PKVtDQEBdMShbQ0gyXVtDSDNdKVtDQEBdKFtDSDNdKShbQ0BASF0xW09IXSlPW0NASF0oW0NAQEhdMltDSDNdKVtOSF1bQ0BASF0oRilbQ0BIXTJbQ0gyXS9bQ0hdPVtDSF1cQyhbQ0gyXVtOSDJdKT1OL0MoPU4vW0hdKS9bQ0gyXVtDSDJdW0NIMl1bTkhdW0NIMl1bT0hd

>  <s_glide_docking_method>  (1) 
confgen

>  <s_i_glide_gridfile>  (1) 
gpcr_drd2_6luq_protein_autoprepared_prepared

>  <s_lp_Force_Field>  (1) 
S-OPLS

>  <s_lp_Variant>  (1) 
DiffSBDD_10_num_sample_50-21

>  <s_m_source_file>  (1) 
generated__ligand_DiffSBDD_2026-05-06_prepared.sdf

>  <GenAI_Model>  (1) 
DiffSBDD

>  <Protein>  (1) 
generic_title2

$$$$
DiffSBDD_10_num_sample_50
     RDKit          3D

  0  0  0  0  0  0  0  0  0  0999 V3000
M  V30 BEGIN CTAB
M  V30 COUNTS 71 72 0 0 1
M  V30 BEGIN ATOM
M  V30 1 C 13.036241 1.743774 -19.670487 0 CFG=2
M  V30 2 C 8.400048 4.724593 -11.103656 0
M  V30 3 C 7.789119 4.022589 -14.128271 0
M  V30 4 C 8.805122 4.380909 -17.684071 0 CFG=1
M  V30 5 C 11.890094 2.493759 -20.398712 0 CFG=2
M  V30 6 N 6.226807 5.769332 -11.091694 0
M  V30 7 N 9.002369 3.123205 -19.704468 0
M  V30 8 C 10.100336 4.038014 -19.705381 0 CFG=1
M  V30 9 S 14.566447 1.317287 -20.691573 0
M  V30 10 C 9.116637 5.834714 -10.360425 0
M  V30 11 S 14.418676 -0.793412 -20.687060 0 CHG=-1
M  V30 12 C 13.918726 0.714020 -17.472775 0
M  V30 13 O 10.234825 7.829033 -6.289646 0
M  V30 14 O 14.447910 1.753898 -22.089400 0
M  V30 15 C 11.782381 1.011577 -20.110024 0 CFG=2
M  V30 16 C 6.242407 1.960996 -13.794366 0
M  V30 17 C 8.551827 3.003751 -18.329921 0 CFG=2
M  V30 18 N 9.837398 6.684328 -8.194850 0
M  V30 19 N 6.476999 3.701105 -12.101250 0
M  V30 20 C 9.129365 5.594064 -8.845786 0
M  V30 21 C 11.132766 5.646058 -17.993424 0
M  V30 22 C 13.376971 1.961659 -18.189837 0
M  V30 23 C 11.867232 2.992346 -21.840696 0
M  V30 24 C 9.214985 4.306173 -16.200835 0
M  V30 25 C 6.821368 3.270128 -13.255892 0
M  V30 26 O 10.837484 0.743682 -19.094949 0
M  V30 27 C 7.086650 4.747895 -11.416127 0
M  V30 28 O 15.771700 1.672558 -19.924596 0
M  V30 29 F 7.267365 2.649816 -18.295872 0
M  V30 30 N 6.895235 0.802153 -13.208012 0
M  V30 31 C 9.587256 6.676233 -6.769539 0
M  V30 32 C 9.832309 5.080011 -18.607572 0 CFG=2
M  V30 33 O 11.312014 3.387699 -19.431887 0
M  V30 34 C 8.234839 3.555424 -15.313892 0
M  V30 35 H 9.001428 3.872458 -11.388563 0
M  V30 36 H 8.122003 4.978140 -13.752153 0
M  V30 37 H 7.876274 4.951006 -17.741470 0
M  V30 38 H 6.522614 6.524741 -10.465585 0
M  V30 39 H 9.256640 2.212728 -20.065680 0
M  V30 40 H 10.172497 4.547968 -20.664934 0
M  V30 41 H 8.634992 6.788705 -10.578034 0
M  V30 42 H 10.126148 5.919618 -10.759103 0
M  V30 43 H 14.136034 0.939971 -16.429282 0
M  V30 44 H 13.193742 -0.100443 -17.494481 0
M  V30 45 H 14.841363 0.344271 -17.918857 0
M  V30 46 H 9.604177 8.532821 -6.309033 0
M  V30 47 H 11.794837 0.300030 -20.933115 0
M  V30 48 H 5.195834 1.913717 -13.491517 0
M  V30 49 H 6.234890 1.901158 -14.878880 0
M  V30 50 H 9.120019 2.225121 -17.822181 0
M  V30 51 H 10.828025 6.618592 -8.372461 0
M  V30 52 H 9.600622 4.641112 -8.600695 0
M  V30 53 H 8.099013 5.553795 -8.487040 0
M  V30 54 H 11.718354 4.881027 -17.483429 0
M  V30 55 H 11.766436 6.077784 -18.768755 0
M  V30 56 H 10.923582 6.432858 -17.270219 0
M  V30 57 H 14.103219 2.771312 -18.119651 0
M  V30 58 H 12.498738 2.306738 -17.645133 0
M  V30 59 H 12.181587 2.214422 -22.532703 0
M  V30 60 H 10.857943 3.248737 -22.156787 0
M  V30 61 H 12.510056 3.864331 -21.957028 0
M  V30 62 H 9.367237 5.308564 -15.798846 0
M  V30 63 H 10.174602 3.797055 -16.146087 0
M  V30 64 H 10.952521 1.410828 -18.433646 0
M  V30 65 H 6.423287 -0.046743 -13.492864 0
M  V30 66 H 7.846354 0.730510 -13.539036 0
M  V30 67 H 10.009054 5.783119 -6.308533 0
M  V30 68 H 8.520773 6.719993 -6.544502 0
M  V30 69 H 9.312694 5.907937 -19.093195 0
M  V30 70 H 7.903616 2.599652 -15.680026 0
M  V30 71 H 5.231664 5.674552 -11.220183 0
M  V30 END ATOM
M  V30 BEGIN BOND
M  V30 1 1 5 1
M  V30 2 1 8 7
M  V30 3 1 9 1
M  V30 4 1 10 2
M  V30 5 1 11 9
M  V30 6 2 14 9
M  V30 7 1 15 1
M  V30 8 1 15 5
M  V30 9 1 17 4
M  V30 10 1 17 7
M  V30 11 1 20 10
M  V30 12 1 20 18
M  V30 13 1 1 22 CFG=1
M  V30 14 1 22 12
M  V30 15 1 23 5
M  V30 16 1 24 4
M  V30 17 1 25 3
M  V30 18 1 25 16
M  V30 19 2 25 19
M  V30 20 1 26 15
M  V30 21 2 27 2
M  V30 22 1 27 6
M  V30 23 1 27 19
M  V30 24 2 28 9
M  V30 25 1 29 17
M  V30 26 1 30 16
M  V30 27 1 31 13
M  V30 28 1 31 18
M  V30 29 1 32 4
M  V30 30 1 32 8
M  V30 31 1 32 21
M  V30 32 1 5 33 CFG=1
M  V30 33 1 33 8
M  V30 34 2 34 3
M  V30 35 1 34 24
M  V30 36 1 35 2
M  V30 37 1 36 3
M  V30 38 1 4 37 CFG=1
M  V30 39 1 38 6
M  V30 40 1 39 7
M  V30 41 1 8 40 CFG=3
M  V30 42 1 41 10
M  V30 43 1 42 10
M  V30 44 1 43 12
M  V30 45 1 44 12
M  V30 46 1 45 12
M  V30 47 1 46 13
M  V30 48 1 15 47 CFG=3
M  V30 49 1 48 16
M  V30 50 1 49 16
M  V30 51 1 17 50 CFG=1
M  V30 52 1 51 18
M  V30 53 1 52 20
M  V30 54 1 53 20
M  V30 55 1 54 21
M  V30 56 1 55 21
M  V30 57 1 56 21
M  V30 58 1 57 22
M  V30 59 1 58 22
M  V30 60 1 59 23
M  V30 61 1 60 23
M  V30 62 1 61 23
M  V30 63 1 62 24
M  V30 64 1 63 24
M  V30 65 1 64 26
M  V30 66 1 65 30
M  V30 67 1 66 30
M  V30 68 1 67 31
M  V30 69 1 68 31
M  V30 70 1 32 69 CFG=3
M  V30 71 1 70 34
M  V30 72 1 71 6
M  V30 END BOND
M  V30 END CTAB
M  END
>  <i_epik_Tot_Q>  (1) 
-1

>  <i_epik_Tot_abs_Q>  (1) 
1

>  <i_i_glide_confnum>  (1) 
50

>  <i_i_glide_lignum>  (1) 
42

>  <i_i_glide_posenum>  (1) 
386

>  <i_i_glide_rotatable_bonds>  (1) 
15

>  <i_lp_mmshare_version>  (1) 
72125

>  <i_m_source_file_index>  (1) 
11

>  <i_f3d_flags>  (1) 
0

>  <num_sample>  (1) 
50

>  <b_lp_Chiralities_Consistent>  (1) 
1

>  <r_epik_Charging_Adjusted_Penalty>  (1) 
1.239197207418439

>  <r_epik_Ionization_Penalty>  (1) 
1.2496715491914541

>  <r_epik_Ionization_Penalty_Charging>  (1) 
1.1069707349969355e-11

>  <r_epik_Ionization_Penalty_Neutral>  (1) 
1.2496715491803843

>  <r_epik_State_Penalty>  (1) 
1.2391972074073692

>  <r_glide_ring_energy>  (1) 
0

>  <r_i_docking_score>  (1) 
-1.5687739115566848

>  <r_i_glide_ecoul>  (1) 
-3.253588932677931

>  <r_i_glide_eff_state_penalty>  (1) 
1.2391972074073692

>  <r_i_glide_einternal>  (1) 
5.3251421116910826

>  <r_i_glide_emodel>  (1) 
-38.331357411321711

>  <r_i_glide_emodel_strain>  (1) 
0.63617965729227421

>  <r_i_glide_energy>  (1) 
-34.026941269115277

>  <r_i_glide_erotb>  (1) 
0.82803537691766171

>  <r_i_glide_esite>  (1) 
-0.12048009807252702

>  <r_i_glide_evdw>  (1) 
-30.773352336437348

>  <r_i_glide_gscore>  (1) 
-2.8079711189640539

>  <r_i_glide_gscore_strain>  (1) 
0

>  <r_i_glide_hbond>  (1) 
-0.16

>  <r_i_glide_ligand_efficiency>  (1) 
-0.046140409163431907

>  <r_i_glide_ligand_efficiency_ln>  (1) 
-0.34658615968062284

>  <r_i_glide_ligand_efficiency_sa>  (1) 
-0.14947701404162575

>  <r_i_glide_lipo>  (1) 
-0.95123337061664204

>  <r_i_glide_metal>  (1) 
-0

>  <r_i_glide_rewards>  (1) 
-0.37758707046898971

>  <r_lp_Energy>  (1) 
16.483426999999999

>  <s_epik_Chemistry_Notes>  (1) 
This compound has an imine and may undergo hydrolysis. This compound contains an acetal/aminal-like group ( X-CH(R)-Y where X, Y are N, S, or O) that may be acid/base labile, releasing an aldehyde.

>  <s_epik_cmdline>  (1) 
J2VwaWtfcHl0aG9uJywgJy1waHQnLCAnMS4wJywgJy1waCcsICc3LjQnLCAnLXRuJywgJzgnLCAnLW1hJywgJzUwMCcsICctaW1hZScsICc8aW5maWxlLm1hZT4nLCAnLW9tYWUnLCAnPG91dGZpbGUubWFlPic=

>  <s_epik_input>  (1) 
W1NIXVMoPU8pKD1PKVtDQEBdMShbQ0gyXVtDSDNdKVtDQEBdKFtDSDNdKShbQ0BASF0xW09IXSlPW0NASF0oW0NAQEhdMltDSDNdKVtOSF1bQ0BASF0oRilbQ0BIXTJbQ0gyXVxbQ0hdPVtDSF1cQyhbQ0gyXVtOSDJdKT1OL0MoPU4vW0hdKS9bQ0gyXVtDSDJdW0NIMl1bTkhdW0NIMl1bT0hd

>  <s_glide_docking_method>  (1) 
confgen

>  <s_i_glide_gridfile>  (1) 
gpcr_drd2_6luq_protein_autoprepared_prepared

>  <s_lp_Force_Field>  (1) 
S-OPLS

>  <s_lp_Variant>  (1) 
DiffSBDD_10_num_sample_50-22

>  <s_m_source_file>  (1) 
generated__ligand_DiffSBDD_2026-05-06_prepared.sdf

>  <GenAI_Model>  (1) 
DiffSBDD

>  <Protein>  (1) 
generic_title2

$$$$
DiffSBDD_41_num_sample_50
     RDKit          3D

  0  0  0  0  0  0  0  0  0  0999 V3000
M  V30 BEGIN CTAB
M  V30 COUNTS 104 109 0 0 1
M  V30 BEGIN ATOM
M  V30 1 C 5.434980 5.649106 -11.867463 0
M  V30 2 C 9.171423 5.137489 -15.172751 0
M  V30 3 C 9.356345 4.780666 -13.670609 0
M  V30 4 C 9.834327 5.744728 -10.202453 0
M  V30 5 C 6.346997 6.610988 -11.997768 0
M  V30 6 O 10.264909 3.626252 -16.691667 0
M  V30 7 C 9.854830 4.032524 -20.859598 0
M  V30 8 N 7.467127 2.478466 -18.520305 0
M  V30 9 O 4.235015 6.313230 -19.180660 0
M  V30 10 C 7.047532 2.454957 -16.027850 0 CFG=2
M  V30 11 C 9.957779 6.874371 -9.159700 0
M  V30 12 O 7.792993 2.277729 -14.829714 0
M  V30 13 C 8.855084 0.910929 -17.190135 0
M  V30 14 C 6.692854 6.129581 -19.299017 0 CFG=1
M  V30 15 C 7.620891 -0.393814 -20.239320 0
M  V30 16 C 6.039438 6.421404 -21.009314 0 CFG=2
M  V30 17 C 7.059632 2.602881 -13.654626 0
M  V30 18 C 6.822442 4.127911 -13.405395 0 CFG=1
M  V30 19 C 7.376880 6.935277 -20.423917 0
M  V30 20 C 5.532479 4.296284 -12.546463 0
M  V30 21 C 3.885702 6.810322 -17.898243 0
M  V30 22 C 11.149443 5.547454 -19.215331 0
M  V30 23 O 8.643316 4.260365 -20.159564 0
M  V30 24 C 5.489617 6.674130 -22.410798 0
M  V30 25 C 10.195269 4.773728 -16.264181 0
M  V30 26 C 6.505194 0.543124 -19.763368 0
M  V30 27 N 6.990539 2.719748 -20.817810 0 CHG=1
M  V30 28 N 10.955918 5.767611 -16.738826 0
M  V30 29 C 11.009639 4.143172 -19.849563 0
M  V30 30 C 7.598834 6.453474 -12.802634 0 CFG=2
M  V30 31 S 7.236577 5.769399 -17.631327 0 CHG=-1
M  V30 32 C 8.048435 4.945192 -12.813172 0 CFG=2
M  V30 33 O 8.558243 7.367051 -12.311670 0
M  V30 34 C 9.453480 6.421616 -7.767465 0
M  V30 35 F 3.994874 8.434394 -21.901182 0
M  V30 36 C 6.332268 1.235350 -16.518333 0
M  V30 37 C 7.000592 1.966267 -19.690337 0
M  V30 38 C 7.459612 4.117003 -20.883623 0 CFG=1
M  V30 39 C 8.234839 5.526803 -7.899005 0
M  V30 40 C 7.860837 4.969497 -9.056290 0
M  V30 41 C 5.042350 8.120756 -22.662708 0
M  V30 42 C 7.571514 1.723619 -17.250756 0 CFG=2
M  V30 43 F 6.038818 8.976667 -22.438887 0
M  V30 44 N 8.554814 5.124058 -10.233301 0
M  V30 45 C 8.281273 4.299006 -11.398820 0
M  V30 46 C 5.428588 6.904179 -19.671417 0 CFG=1
M  V30 47 C 11.889020 5.577129 -17.851753 0
M  V30 48 C 6.346386 5.051439 -20.344756 0 CFG=1
M  V30 49 H 4.573149 5.822448 -11.249917 0
M  V30 50 H 8.887014 6.169142 -15.297962 0
M  V30 51 H 8.300158 4.608355 -15.500629 0
M  V30 52 H 9.719296 3.771100 -13.492938 0
M  V30 53 H 10.151366 5.412636 -13.280892 0
M  V30 54 H 10.235009 4.836849 -9.793149 0
M  V30 55 H 10.235848 5.973847 -11.184872 0
M  V30 56 H 6.208641 7.554436 -11.491669 0
M  V30 57 H 9.849902 3.042090 -21.316295 0
M  V30 58 H 9.977908 4.764127 -21.658754 0
M  V30 59 H 7.787787 3.446910 -18.507158 0
M  V30 60 H 6.635352 3.443740 -16.179321 0
M  V30 61 H 9.385179 7.738806 -9.494327 0
M  V30 62 H 10.994829 7.206586 -9.091619 0
M  V30 63 H 8.631238 -0.154907 -17.148852 0
M  V30 64 H 9.479145 1.093803 -18.064529 0
M  V30 65 H 9.433624 1.167308 -16.306008 0
M  V30 66 H 7.224675 -1.391954 -20.429957 0
M  V30 67 H 8.075662 -0.031754 -21.161131 0
M  V30 68 H 8.407821 -0.495160 -19.494484 0
M  V30 69 H 7.582976 2.152148 -12.812210 0
M  V30 70 H 6.105257 2.076796 -13.705828 0
M  V30 71 H 6.537636 4.590164 -14.347277 0
M  V30 72 H 7.465918 8.014451 -20.277494 0
M  V30 73 H 8.292323 6.537964 -20.860119 0
M  V30 74 H 5.460254 3.536679 -11.768328 0
M  V30 75 H 4.651247 4.150141 -13.172841 0
M  V30 76 H 2.892347 6.458250 -17.641302 0
M  V30 77 H 4.565744 6.458370 -17.124370 0
M  V30 78 H 3.858916 7.899265 -17.877557 0
M  V30 79 H 11.675161 6.185301 -19.925480 0
M  V30 80 H 10.163596 6.000421 -19.094826 0
M  V30 81 H 6.252933 6.410687 -23.143711 0
M  V30 82 H 4.651711 6.005852 -22.602923 0
M  V30 83 H 7.647139 4.344973 -21.933352 0
M  V30 84 H 6.075803 0.191106 -18.830015 0
M  V30 85 H 10.850842 6.696173 -16.358320 0
M  V30 86 H 10.850408 3.387323 -19.083747 0
M  V30 87 H 11.950439 3.877585 -20.335130 0
M  V30 88 H 7.351185 6.774475 -13.814607 0
M  V30 89 H 8.486569 7.358812 -11.363556 0
M  V30 90 H 9.199288 7.290125 -7.158448 0
M  V30 91 H 10.233061 5.869538 -7.244280 0
M  V30 92 H 6.417157 0.317457 -15.940527 0
M  V30 93 H 5.385406 1.368934 -17.021728 0
M  V30 94 H 5.683915 0.505127 -20.482359 0
M  V30 95 H 7.653487 5.362447 -7.006945 0
M  V30 96 H 6.992815 4.339835 -9.134850 0
M  V30 97 H 4.732744 8.254928 -23.699287 0
M  V30 98 H 7.395199 3.769300 -11.097865 0
M  V30 99 H 9.043631 3.520238 -11.451132 0
M  V30 100 H 5.449801 7.989967 -19.525228 0
M  V30 101 H 12.500072 4.683858 -17.705741 0
M  V30 102 H 12.581609 6.418616 -17.842051 0
M  V30 103 H 5.435350 4.502698 -20.097036 0
M  V30 104 H 6.686751 2.266561 -21.668250 0
M  V30 END ATOM
M  V30 BEGIN BOND
M  V30 1 1 3 2
M  V30 2 2 5 1
M  V30 3 1 11 4
M  V30 4 1 12 10
M  V30 5 1 17 12
M  V30 6 1 18 17
M  V30 7 1 19 14
M  V30 8 1 19 16
M  V30 9 1 20 1
M  V30 10 1 20 18
M  V30 11 1 21 9
M  V30 12 1 23 7
M  V30 13 1 16 24 CFG=3
M  V30 14 1 25 2
M  V30 15 2 25 6
M  V30 16 1 26 15
M  V30 17 1 28 25
M  V30 18 1 29 7
M  V30 19 1 29 22
M  V30 20 1 30 5
M  V30 21 1 14 31 CFG=1
M  V30 22 1 32 3
M  V30 23 1 32 18
M  V30 24 1 32 30
M  V30 25 1 33 30
M  V30 26 1 34 11
M  V30 27 1 36 10
M  V30 28 1 37 8
M  V30 29 1 37 26
M  V30 30 2 37 27
M  V30 31 1 38 23
M  V30 32 1 38 27
M  V30 33 1 39 34
M  V30 34 2 40 39
M  V30 35 1 41 24
M  V30 36 1 41 35
M  V30 37 1 42 8
M  V30 38 1 42 10
M  V30 39 1 42 13 CFG=1
M  V30 40 1 42 36
M  V30 41 1 43 41
M  V30 42 1 44 4
M  V30 43 1 44 40
M  V30 44 1 32 45 CFG=1
M  V30 45 1 45 44
M  V30 46 1 46 9
M  V30 47 1 46 14
M  V30 48 1 46 16
M  V30 49 1 47 22
M  V30 50 1 47 28
M  V30 51 1 48 14
M  V30 52 1 48 16
M  V30 53 1 48 38
M  V30 54 1 49 1
M  V30 55 1 50 2
M  V30 56 1 51 2
M  V30 57 1 52 3
M  V30 58 1 53 3
M  V30 59 1 54 4
M  V30 60 1 55 4
M  V30 61 1 56 5
M  V30 62 1 57 7
M  V30 63 1 58 7
M  V30 64 1 59 8
M  V30 65 1 10 60 CFG=3
M  V30 66 1 61 11
M  V30 67 1 62 11
M  V30 68 1 63 13
M  V30 69 1 64 13
M  V30 70 1 65 13
M  V30 71 1 66 15
M  V30 72 1 67 15
M  V30 73 1 68 15
M  V30 74 1 69 17
M  V30 75 1 70 17
M  V30 76 1 18 71 CFG=3
M  V30 77 1 72 19
M  V30 78 1 73 19
M  V30 79 1 74 20
M  V30 80 1 75 20
M  V30 81 1 76 21
M  V30 82 1 77 21
M  V30 83 1 78 21
M  V30 84 1 79 22
M  V30 85 1 80 22
M  V30 86 1 81 24
M  V30 87 1 82 24
M  V30 88 1 38 83 CFG=3
M  V30 89 1 84 26
M  V30 90 1 85 28
M  V30 91 1 86 29
M  V30 92 1 87 29
M  V30 93 1 30 88 CFG=3
M  V30 94 1 89 33
M  V30 95 1 90 34
M  V30 96 1 91 34
M  V30 97 1 92 36
M  V30 98 1 93 36
M  V30 99 1 94 26
M  V30 100 1 95 39
M  V30 101 1 96 40
M  V30 102 1 97 41
M  V30 103 1 98 45
M  V30 104 1 99 45
M  V30 105 1 46 100 CFG=3
M  V30 106 1 101 47
M  V30 107 1 102 47
M  V30 108 1 48 103 CFG=1
M  V30 109 1 104 27
M  V30 END BOND
M  V30 END CTAB
M  END
>  <i_epik_Tot_Q>  (1) 
0

>  <i_epik_Tot_abs_Q>  (1) 
2

>  <i_i_glide_confnum>  (1) 
123

>  <i_i_glide_lignum>  (1) 
103

>  <i_i_glide_posenum>  (1) 
45

>  <i_i_glide_rotatable_bonds>  (1) 
8

>  <i_lp_mmshare_version>  (1) 
72125

>  <i_m_source_file_index>  (1) 
42

>  <i_f3d_flags>  (1) 
0

>  <num_sample>  (1) 
50

>  <b_lp_Chiralities_Consistent>  (1) 
1

>  <r_epik_Charging_Adjusted_Penalty>  (1) 
2.5071679655586419

>  <r_epik_Ionization_Penalty>  (1) 
1.2556275080584867

>  <r_epik_Ionization_Penalty_Charging>  (1) 
1.2536750394976632

>  <r_epik_Ionization_Penalty_Neutral>  (1) 
0.0019524685608233448

>  <r_epik_State_Penalty>  (1) 
1.2534929260609784

>  <r_glide_ring_energy>  (1) 
0

>  <r_i_docking_score>  (1) 
-1.5009977272410346

>  <r_i_glide_ecoul>  (1) 
-2.6327604875485973

>  <r_i_glide_eff_state_penalty>  (1) 
1.2534929260609784

>  <r_i_glide_einternal>  (1) 
11.851485380609407

>  <r_i_glide_emodel>  (1) 
-13.983597022775122

>  <r_i_glide_emodel_strain>  (1) 
10.446527974647566

>  <r_i_glide_energy>  (1) 
-25.64605012109536

>  <r_i_glide_erotb>  (1) 
0.0044950300395880287

>  <r_i_glide_esite>  (1) 
-0.041268884493575235

>  <r_i_glide_evdw>  (1) 
-23.013289633546762

>  <r_i_glide_gscore>  (1) 
-2.754490653302013

>  <r_i_glide_gscore_strain>  (1) 
1.6116319936618915

>  <r_i_glide_hbond>  (1) 
0

>  <r_i_glide_ligand_efficiency>  (1) 
-0.031270785984188219

>  <r_i_glide_ligand_efficiency_ln>  (1) 
-0.30813709470824729

>  <r_i_glide_ligand_efficiency_sa>  (1) 
-0.11364557833183014

>  <r_i_glide_lipo>  (1) 
-1.8973060571028031

>  <r_i_glide_metal>  (1) 
-0

>  <r_i_glide_rewards>  (1) 
-0.88646418059748644

>  <r_lp_Energy>  (1) 
119.38507999999999

>  <s_epik_Chemistry_Notes>  (1) 
This compound has an imine and may undergo hydrolysis. This compound contains an acetal/aminal-like group ( X-CH(R)-Y where X, Y are N, S, or O) that may be acid/base labile, releasing an aldehyde.

>  <s_epik_cmdline>  (1) 
J2VwaWtfcHl0aG9uJywgJy1waHQnLCAnMS4wJywgJy1waCcsICc3LjQnLCAnLXRuJywgJzgnLCAnLW1hJywgJzUwMCcsICctaW1hZScsICc8aW5maWxlLm1hZT4nLCAnLW9tYWUnLCAnPG91dGZpbGUubWFlPic=

>  <s_epik_input>  (1) 
W0NIXTE9W0NIXVtDSDJdW0NIMl1bQ0gyXU4xW0NIMl1bQ0BdMjNbQ0BIXShbQ0gyXVtDSF09W0NIXVtDQEhdM1tPSF0pW0NIMl1PW0NASF00W0NAQF0oW0NIM10pKFtDSDJdNClbTkhdW0NASF0oW0NIMl1bQ0gzXSkvTj1DKFtDQEBIXTVbQ0BdKFtDSDJdW0NIXShGKUYpKFtDSDJdW0NAXTU2W1NIXSlbQ0BIXTZPW0NIM10pL09bQ0gyXVtDSDJdW0NIMl1bQ0gyXVtOSF1DKD1PKVtDSDJdW0NIMl0y

>  <s_glide_docking_method>  (1) 
confgen

>  <s_i_glide_gridfile>  (1) 
gpcr_drd2_6luq_protein_autoprepared_prepared

>  <s_lp_Force_Field>  (1) 
S-OPLS

>  <s_lp_Variant>  (1) 
DiffSBDD_41_num_sample_50-3

>  <s_m_source_file>  (1) 
generated__ligand_DiffSBDD_2026-05-06_prepared.sdf

>  <GenAI_Model>  (1) 
DiffSBDD

>  <Protein>  (1) 
generic_title2

$$$$
DiffSBDD_41_num_sample_50
     RDKit          3D

  0  0  0  0  0  0  0  0  0  0999 V3000
M  V30 BEGIN CTAB
M  V30 COUNTS 104 109 0 0 1
M  V30 BEGIN ATOM
M  V30 1 C 9.434801 4.229255 -12.968078 0
M  V30 2 C 8.002294 1.057975 -16.565787 0
M  V30 3 C 7.014414 2.024235 -15.890660 0
M  V30 4 C 6.368955 5.864563 -12.999003 0
M  V30 5 C 8.938601 3.022853 -12.683249 0
M  V30 6 O 6.621928 0.666688 -18.488341 0
M  V30 7 C 8.055659 -1.039596 -21.761246 0
M  V30 8 N 8.082110 2.694002 -20.555736 0
M  V30 9 O 12.412489 2.992049 -19.623552 0
M  V30 10 C 8.086848 4.192971 -18.531160 0 CFG=2
M  V30 11 C 6.008967 6.432245 -11.601080 0
M  V30 12 O 7.247751 4.616457 -17.475906 0
M  V30 13 C 5.857427 3.460842 -19.739509 0
M  V30 14 C 11.483605 0.639727 -19.857520 0 CFG=1
M  V30 15 C 8.447376 4.750604 -23.277731 0
M  V30 16 C 12.257513 1.251652 -21.438135 0 CFG=2
M  V30 17 C 7.970676 5.143981 -16.381230 0
M  V30 18 C 8.549502 4.078065 -15.409836 0 CFG=1
M  V30 19 C 12.220817 -0.201561 -20.918937 0
M  V30 20 C 9.380826 4.854106 -14.348862 0
M  V30 21 C 12.497990 3.203330 -18.224288 0
M  V30 22 C 7.597035 -2.326046 -19.592504 0
M  V30 23 O 8.794337 -0.041392 -21.068424 0
M  V30 24 C 12.935191 1.791460 -22.688437 0
M  V30 25 C 7.279003 0.165472 -17.576904 0
M  V30 26 C 7.436846 3.748725 -22.714360 0
M  V30 27 N 8.886990 1.755580 -22.556497 0 CHG=1
M  V30 28 N 7.405810 -1.159451 -17.407303 0
M  V30 29 C 6.993406 -1.600462 -20.810311 0
M  V30 30 C 8.234824 2.154125 -13.700823 0 CFG=2
M  V30 31 S 10.768889 0.057960 -18.291951 0 CHG=-1
M  V30 32 C 7.533145 3.025409 -14.810795 0 CFG=2
M  V30 33 O 7.397755 1.193752 -13.091669 0
M  V30 34 C 6.623217 5.579100 -10.469179 0
M  V30 35 F 13.492559 3.742063 -23.873241 0
M  V30 36 C 7.956109 5.101912 -19.711862 0
M  V30 37 C 8.157968 2.696438 -21.909912 0
M  V30 38 C 9.652368 0.700621 -21.867504 0 CFG=1
M  V30 39 C 6.252941 4.169391 -10.688998 0
M  V30 40 C 6.085442 3.672785 -11.889270 0
M  V30 41 C 12.733120 3.301237 -22.873032 0
M  V30 42 C 7.362794 3.699479 -19.764377 0 CFG=2
M  V30 43 F 11.457695 3.573780 -23.141951 0
M  V30 44 N 6.231998 4.402953 -13.036183 0
M  V30 45 C 6.234699 3.762030 -14.325045 0
M  V30 46 C 12.648703 1.635615 -19.994306 0 CFG=1
M  V30 47 C 6.784456 -2.138418 -18.295470 0
M  V30 48 C 10.766499 1.374892 -21.021585 0 CFG=1
M  V30 49 H 9.928073 4.800571 -12.195643 0
M  V30 50 H 8.507163 0.416891 -15.844920 0
M  V30 51 H 8.771263 1.615923 -17.094449 0
M  V30 52 H 6.509157 2.567696 -16.676280 0
M  V30 53 H 6.234786 1.406177 -15.442887 0
M  V30 54 H 7.384165 6.163287 -13.207127 0
M  V30 55 H 5.737115 6.318998 -13.761433 0
M  V30 56 H 9.034840 2.630368 -11.682753 0
M  V30 57 H 7.561783 -0.615185 -22.636335 0
M  V30 58 H 8.722113 -1.830281 -22.107284 0
M  V30 59 H 8.543766 1.947953 -20.044271 0
M  V30 60 H 9.047812 3.753812 -18.264260 0
M  V30 61 H 4.926758 6.430366 -11.480620 0
M  V30 62 H 6.318734 7.472278 -11.511350 0
M  V30 63 H 5.324201 4.359884 -20.048109 0
M  V30 64 H 5.574995 2.645827 -20.407381 0
M  V30 65 H 5.524726 3.195435 -18.736236 0
M  V30 66 H 7.947580 5.520867 -23.864651 0
M  V30 67 H 9.002050 5.248721 -22.485065 0
M  V30 68 H 9.171773 4.251837 -23.915063 0
M  V30 69 H 7.308934 5.826175 -15.849365 0
M  V30 70 H 8.780632 5.769544 -16.759621 0
M  V30 71 H 9.275660 3.506916 -15.983631 0
M  V30 72 H 13.177784 -0.635708 -20.615163 0
M  V30 73 H 11.619675 -0.924144 -21.471666 0
M  V30 74 H 9.034670 5.873355 -14.243745 0
M  V30 75 H 10.399397 4.969294 -14.716859 0
M  V30 76 H 12.359137 4.262372 -18.008991 0
M  V30 77 H 11.725316 2.655350 -17.687019 0
M  V30 78 H 13.472376 2.903603 -17.835597 0
M  V30 79 H 7.672028 -3.388236 -19.824450 0
M  V30 80 H 8.624858 -2.001912 -19.422613 0
M  V30 81 H 14.004020 1.583040 -22.629753 0
M  V30 82 H 12.575432 1.262587 -23.571154 0
M  V30 83 H 10.081736 0.063716 -22.641246 0
M  V30 84 H 6.901352 3.262106 -23.531333 0
M  V30 85 H 7.959940 -1.507366 -16.635219 0
M  V30 86 H 6.350792 -0.779251 -20.498108 0
M  V30 87 H 6.339655 -2.285958 -21.349058 0
M  V30 88 H 9.012810 1.511485 -14.103498 0
M  V30 89 H 7.916965 0.722133 -12.457082 0
M  V30 90 H 6.234638 5.769325 -9.491680 0
M  V30 91 H 7.708642 5.678855 -10.430121 0
M  V30 92 H 7.260242 5.937573 -19.657302 0
M  V30 93 H 8.873688 5.303774 -20.258352 0
M  V30 94 H 6.678107 4.274451 -22.139031 0
M  V30 95 H 6.139765 3.542840 -9.819557 0
M  V30 96 H 5.834998 2.638994 -12.049090 0
M  V30 97 H 13.014611 3.865160 -21.983528 0
M  V30 98 H 5.834881 4.427278 -15.086545 0
M  V30 99 H 5.484336 3.015611 -14.106914 0
M  V30 100 H 13.628371 1.279212 -19.662980 0
M  V30 101 H 5.741060 -1.888332 -18.495639 0
M  V30 102 H 6.764636 -3.081691 -17.748806 0
M  V30 103 H 10.518682 2.407056 -20.780253 0
M  V30 104 H 8.868678 1.769428 -23.566859 0
M  V30 END ATOM
M  V30 BEGIN BOND
M  V30 1 1 3 2
M  V30 2 2 5 1
M  V30 3 1 11 4
M  V30 4 1 12 10
M  V30 5 1 17 12
M  V30 6 1 18 17
M  V30 7 1 19 14
M  V30 8 1 19 16
M  V30 9 1 20 1
M  V30 10 1 20 18
M  V30 11 1 21 9
M  V30 12 1 23 7
M  V30 13 1 16 24 CFG=3
M  V30 14 1 25 2
M  V30 15 2 25 6
M  V30 16 1 26 15
M  V30 17 1 28 25
M  V30 18 1 29 7
M  V30 19 1 29 22
M  V30 20 1 30 5
M  V30 21 1 14 31 CFG=1
M  V30 22 1 32 3
M  V30 23 1 32 18
M  V30 24 1 32 30
M  V30 25 1 33 30
M  V30 26 1 34 11
M  V30 27 1 36 10
M  V30 28 1 37 8
M  V30 29 1 37 26
M  V30 30 2 37 27
M  V30 31 1 38 23
M  V30 32 1 38 27
M  V30 33 1 39 34
M  V30 34 2 40 39
M  V30 35 1 41 24
M  V30 36 1 41 35
M  V30 37 1 42 8
M  V30 38 1 42 10
M  V30 39 1 42 13 CFG=1
M  V30 40 1 42 36
M  V30 41 1 43 41
M  V30 42 1 44 4
M  V30 43 1 44 40
M  V30 44 1 32 45 CFG=1
M  V30 45 1 45 44
M  V30 46 1 46 9
M  V30 47 1 46 14
M  V30 48 1 46 16
M  V30 49 1 47 22
M  V30 50 1 47 28
M  V30 51 1 48 14
M  V30 52 1 48 16
M  V30 53 1 48 38
M  V30 54 1 49 1
M  V30 55 1 50 2
M  V30 56 1 51 2
M  V30 57 1 52 3
M  V30 58 1 53 3
M  V30 59 1 54 4
M  V30 60 1 55 4
M  V30 61 1 56 5
M  V30 62 1 57 7
M  V30 63 1 58 7
M  V30 64 1 59 8
M  V30 65 1 10 60 CFG=1
M  V30 66 1 61 11
M  V30 67 1 62 11
M  V30 68 1 63 13
M  V30 69 1 64 13
M  V30 70 1 65 13
M  V30 71 1 66 15
M  V30 72 1 67 15
M  V30 73 1 68 15
M  V30 74 1 69 17
M  V30 75 1 70 17
M  V30 76 1 18 71 CFG=3
M  V30 77 1 72 19
M  V30 78 1 73 19
M  V30 79 1 74 20
M  V30 80 1 75 20
M  V30 81 1 76 21
M  V30 82 1 77 21
M  V30 83 1 78 21
M  V30 84 1 79 22
M  V30 85 1 80 22
M  V30 86 1 81 24
M  V30 87 1 82 24
M  V30 88 1 38 83 CFG=3
M  V30 89 1 84 26
M  V30 90 1 85 28
M  V30 91 1 86 29
M  V30 92 1 87 29
M  V30 93 1 30 88 CFG=3
M  V30 94 1 89 33
M  V30 95 1 90 34
M  V30 96 1 91 34
M  V30 97 1 92 36
M  V30 98 1 93 36
M  V30 99 1 94 26
M  V30 100 1 95 39
M  V30 101 1 96 40
M  V30 102 1 97 41
M  V30 103 1 98 45
M  V30 104 1 99 45
M  V30 105 1 46 100 CFG=1
M  V30 106 1 101 47
M  V30 107 1 102 47
M  V30 108 1 48 103 CFG=1
M  V30 109 1 104 27
M  V30 END BOND
M  V30 END CTAB
M  END
>  <i_epik_Tot_Q>  (1) 
0

>  <i_epik_Tot_abs_Q>  (1) 
2

>  <i_i_glide_confnum>  (1) 
68

>  <i_i_glide_lignum>  (1) 
103

>  <i_i_glide_posenum>  (1) 
78

>  <i_i_glide_rotatable_bonds>  (1) 
8

>  <i_lp_mmshare_version>  (1) 
72125

>  <i_m_source_file_index>  (1) 
42

>  <i_f3d_flags>  (1) 
0

>  <num_sample>  (1) 
50

>  <b_lp_Chiralities_Consistent>  (1) 
1

>  <r_epik_Charging_Adjusted_Penalty>  (1) 
2.5071679655586419

>  <r_epik_Ionization_Penalty>  (1) 
1.2556275080584867

>  <r_epik_Ionization_Penalty_Charging>  (1) 
1.2536750394976632

>  <r_epik_Ionization_Penalty_Neutral>  (1) 
0.0019524685608233448

>  <r_epik_State_Penalty>  (1) 
1.2534929260609784

>  <r_glide_ring_energy>  (1) 
0

>  <r_i_docking_score>  (1) 
-1.4679746938858977

>  <r_i_glide_ecoul>  (1) 
-3.036050608416502

>  <r_i_glide_eff_state_penalty>  (1) 
1.2534929260609784

>  <r_i_glide_einternal>  (1) 
14.336018388574374

>  <r_i_glide_emodel>  (1) 
-14.119321373690656

>  <r_i_glide_emodel_strain>  (1) 
0.82594877695228774

>  <r_i_glide_energy>  (1) 
-17.459926831978002

>  <r_i_glide_erotb>  (1) 
0.0044950300395880287

>  <r_i_glide_esite>  (1) 
-0.024973628352754938

>  <r_i_glide_evdw>  (1) 
-14.423876223561502

>  <r_i_glide_gscore>  (1) 
-2.7214676199468761

>  <r_i_glide_gscore_strain>  (1) 
0

>  <r_i_glide_hbond>  (1) 
-0.055914147786605958

>  <r_i_glide_ligand_efficiency>  (1) 
-0.030582806122622871

>  <r_i_glide_ligand_efficiency_ln>  (1) 
-0.30135785622451611

>  <r_i_glide_ligand_efficiency_sa>  (1) 
-0.11114529358402173

>  <r_i_glide_lipo>  (1) 
-1.135883113814476

>  <r_i_glide_metal>  (1) 
-0

>  <r_i_glide_rewards>  (1) 
-0.33259035759207656

>  <r_lp_Energy>  (1) 
119.38507999999999

>  <s_epik_Chemistry_Notes>  (1) 
This compound has an imine and may undergo hydrolysis. This compound contains an acetal/aminal-like group ( X-CH(R)-Y where X, Y are N, S, or O) that may be acid/base labile, releasing an aldehyde.

>  <s_epik_cmdline>  (1) 
J2VwaWtfcHl0aG9uJywgJy1waHQnLCAnMS4wJywgJy1waCcsICc3LjQnLCAnLXRuJywgJzgnLCAnLW1hJywgJzUwMCcsICctaW1hZScsICc8aW5maWxlLm1hZT4nLCAnLW9tYWUnLCAnPG91dGZpbGUubWFlPic=

>  <s_epik_input>  (1) 
W0NIXTE9W0NIXVtDSDJdW0NIMl1bQ0gyXU4xW0NIMl1bQ0BdMjNbQ0BIXShbQ0gyXVtDSF09W0NIXVtDQEhdM1tPSF0pW0NIMl1PW0NASF00W0NAQF0oW0NIM10pKFtDSDJdNClbTkhdW0NASF0oW0NIMl1bQ0gzXSkvTj1DKFtDQEBIXTVbQ0BdKFtDSDJdW0NIXShGKUYpKFtDSDJdW0NAXTU2W1NIXSlbQ0BIXTZPW0NIM10pL09bQ0gyXVtDSDJdW0NIMl1bQ0gyXVtOSF1DKD1PKVtDSDJdW0NIMl0y

>  <s_glide_docking_method>  (1) 
confgen

>  <s_i_glide_gridfile>  (1) 
gpcr_drd2_6luq_protein_autoprepared_prepared

>  <s_lp_Force_Field>  (1) 
S-OPLS

>  <s_lp_Variant>  (1) 
DiffSBDD_41_num_sample_50-3

>  <s_m_source_file>  (1) 
generated__ligand_DiffSBDD_2026-05-06_prepared.sdf

>  <GenAI_Model>  (1) 
DiffSBDD

>  <Protein>  (1) 
generic_title2

$$$$
DiffSBDD_10_num_sample_50
     RDKit          3D

  0  0  0  0  0  0  0  0  0  0999 V3000
M  V30 BEGIN CTAB
M  V30 COUNTS 71 72 0 0 1
M  V30 BEGIN ATOM
M  V30 1 C 6.134189 7.885108 -22.517723 0 CFG=2
M  V30 2 C 9.291676 5.680055 -10.381544 0
M  V30 3 C 8.234560 3.419631 -14.239908 0
M  V30 4 C 7.298618 4.526133 -17.800622 0 CFG=1
M  V30 5 C 5.804026 6.647630 -21.666730 0 CFG=2
M  V30 6 N 6.990850 4.969336 -10.291599 0
M  V30 7 N 8.224522 4.674627 -19.978087 0
M  V30 8 C 6.907706 5.240555 -20.025281 0 CFG=1
M  V30 9 S 4.674283 8.876503 -23.167418 0
M  V30 10 C 9.237587 6.569290 -9.153605 0
M  V30 11 S 3.834758 9.578255 -21.350450 0 CHG=-1
M  V30 12 C 7.262321 9.901609 -21.412662 0
M  V30 13 O 11.637760 8.858023 -7.131387 0
M  V30 14 O 5.175469 10.059402 -23.882981 0
M  V30 15 C 6.167411 6.488817 -23.123932 0 CFG=2
M  V30 16 C 7.558148 5.865515 -13.513989 0
M  V30 17 C 8.622423 4.512932 -18.591091 0 CFG=1
M  V30 18 N 10.244289 7.044033 -6.941845 0
M  V30 19 N 8.372112 4.152095 -11.957509 0
M  V30 20 C 10.462390 6.410092 -8.239589 0
M  V30 21 C 6.522245 6.968711 -18.167638 0
M  V30 22 C 7.408172 8.719803 -22.376384 0
M  V30 23 C 4.424916 6.274646 -21.145992 0
M  V30 24 C 7.458908 4.800016 -16.285872 0
M  V30 25 C 8.073460 4.461199 -13.157054 0
M  V30 26 O 7.429570 5.865048 -23.231333 0
M  V30 27 C 8.248617 4.971284 -10.848112 0
M  V30 28 O 3.686163 7.994392 -23.807831 0
M  V30 29 F 9.414203 5.537277 -18.272858 0
M  V30 30 N 6.110020 5.956870 -13.444645 0
M  V30 31 C 10.281195 8.496618 -6.987967 0
M  V30 32 C 6.401147 5.488643 -18.586412 0 CFG=2
M  V30 33 O 6.893573 6.428116 -20.757175 0
M  V30 34 C 7.975134 3.561476 -15.571827 0
M  V30 35 H 10.234842 5.626839 -10.894351 0
M  V30 36 H 8.596359 2.468187 -13.878721 0
M  V30 37 H 6.840476 3.541927 -17.917230 0
M  V30 38 H 6.750614 5.585154 -9.521645 0
M  V30 39 H 8.904032 5.264731 -20.434665 0
M  V30 40 H 6.288289 4.493765 -20.521948 0
M  V30 41 H 8.350419 6.319350 -8.572042 0
M  V30 42 H 9.133419 7.600489 -9.489475 0
M  V30 43 H 8.233219 10.274071 -21.094562 0
M  V30 44 H 6.724496 10.726455 -21.880803 0
M  V30 45 H 6.717132 9.610369 -20.515226 0
M  V30 46 H 11.795769 9.054306 -8.041651 0
M  V30 47 H 5.417126 6.149762 -23.833725 0
M  V30 48 H 7.924423 6.568947 -12.766499 0
M  V30 49 H 7.984677 6.281536 -14.410375 0
M  V30 50 H 9.194647 3.596870 -18.440010 0
M  V30 51 H 9.338579 6.751656 -6.597667 0
M  V30 52 H 11.365697 6.790004 -8.717835 0
M  V30 53 H 10.629166 5.348644 -8.054817 0
M  V30 54 H 7.538255 7.337801 -18.303240 0
M  V30 55 H 5.856634 7.604532 -18.752855 0
M  V30 56 H 6.247035 7.116487 -17.123329 0
M  V30 57 H 8.223891 8.085841 -22.032254 0
M  V30 58 H 7.706439 9.082642 -23.360885 0
M  V30 59 H 3.651297 6.525777 -21.866500 0
M  V30 60 H 4.337035 5.205508 -20.960594 0
M  V30 61 H 4.234818 6.810616 -20.218053 0
M  V30 62 H 6.495194 5.087740 -15.870777 0
M  V30 63 H 8.168799 5.617664 -16.207081 0
M  V30 64 H 7.819035 5.922007 -22.369199 0
M  V30 65 H 5.844705 5.789780 -12.483495 0
M  V30 66 H 5.827980 6.906529 -13.641720 0
M  V30 67 H 9.916414 8.884716 -6.037275 0
M  V30 68 H 9.659224 8.917671 -7.777835 0
M  V30 69 H 5.356321 5.184420 -18.516282 0
M  V30 70 H 8.149094 2.706350 -16.209067 0
M  V30 71 H 6.237653 4.421896 -10.676733 0
M  V30 END ATOM
M  V30 BEGIN BOND
M  V30 1 1 5 1
M  V30 2 1 8 7
M  V30 3 1 9 1
M  V30 4 1 10 2
M  V30 5 1 11 9
M  V30 6 2 14 9
M  V30 7 1 15 1
M  V30 8 1 15 5
M  V30 9 1 17 4
M  V30 10 1 17 7
M  V30 11 1 20 10
M  V30 12 1 20 18
M  V30 13 1 1 22 CFG=1
M  V30 14 1 22 12
M  V30 15 1 23 5
M  V30 16 1 24 4
M  V30 17 1 25 3
M  V30 18 1 25 16
M  V30 19 2 25 19
M  V30 20 1 26 15
M  V30 21 2 27 2
M  V30 22 1 27 6
M  V30 23 1 27 19
M  V30 24 2 28 9
M  V30 25 1 29 17
M  V30 26 1 30 16
M  V30 27 1 31 13
M  V30 28 1 31 18
M  V30 29 1 32 4
M  V30 30 1 32 8
M  V30 31 1 32 21
M  V30 32 1 5 33 CFG=1
M  V30 33 1 33 8
M  V30 34 2 34 3
M  V30 35 1 34 24
M  V30 36 1 35 2
M  V30 37 1 36 3
M  V30 38 1 4 37 CFG=1
M  V30 39 1 38 6
M  V30 40 1 39 7
M  V30 41 1 8 40 CFG=3
M  V30 42 1 41 10
M  V30 43 1 42 10
M  V30 44 1 43 12
M  V30 45 1 44 12
M  V30 46 1 45 12
M  V30 47 1 46 13
M  V30 48 1 15 47 CFG=3
M  V30 49 1 48 16
M  V30 50 1 49 16
M  V30 51 1 17 50 CFG=3
M  V30 52 1 51 18
M  V30 53 1 52 20
M  V30 54 1 53 20
M  V30 55 1 54 21
M  V30 56 1 55 21
M  V30 57 1 56 21
M  V30 58 1 57 22
M  V30 59 1 58 22
M  V30 60 1 59 23
M  V30 61 1 60 23
M  V30 62 1 61 23
M  V30 63 1 62 24
M  V30 64 1 63 24
M  V30 65 1 64 26
M  V30 66 1 65 30
M  V30 67 1 66 30
M  V30 68 1 67 31
M  V30 69 1 68 31
M  V30 70 1 32 69 CFG=3
M  V30 71 1 70 34
M  V30 72 1 71 6
M  V30 END BOND
M  V30 END CTAB
M  END
>  <i_epik_Tot_Q>  (1) 
-1

>  <i_epik_Tot_abs_Q>  (1) 
1

>  <i_i_glide_confnum>  (1) 
2217

>  <i_i_glide_lignum>  (1) 
39

>  <i_i_glide_posenum>  (1) 
235

>  <i_i_glide_rotatable_bonds>  (1) 
15

>  <i_lp_mmshare_version>  (1) 
72125

>  <i_m_source_file_index>  (1) 
11

>  <i_f3d_flags>  (1) 
0

>  <num_sample>  (1) 
50

>  <b_lp_Chiralities_Consistent>  (1) 
1

>  <r_epik_Charging_Adjusted_Penalty>  (1) 
1.239197207418439

>  <r_epik_Ionization_Penalty>  (1) 
1.2496715491914541

>  <r_epik_Ionization_Penalty_Charging>  (1) 
1.1069707349969355e-11

>  <r_epik_Ionization_Penalty_Neutral>  (1) 
1.2496715491803843

>  <r_epik_State_Penalty>  (1) 
1.2391972074073692

>  <r_glide_ring_energy>  (1) 
0

>  <r_i_docking_score>  (1) 
-1.4528393094226744

>  <r_i_glide_ecoul>  (1) 
-1.7516101944609939

>  <r_i_glide_eff_state_penalty>  (1) 
1.2391972074073692

>  <r_i_glide_einternal>  (1) 
12.351704053646756

>  <r_i_glide_emodel>  (1) 
-30.616713705673206

>  <r_i_glide_emodel_strain>  (1) 
1.4725616513233888

>  <r_i_glide_energy>  (1) 
-32.430873260443853

>  <r_i_glide_erotb>  (1) 
0.82803537691766171

>  <r_i_glide_esite>  (1) 
-0.085093541242433762

>  <r_i_glide_evdw>  (1) 
-30.679263065982859

>  <r_i_glide_gscore>  (1) 
-2.6920365168300435

>  <r_i_glide_gscore_strain>  (1) 
0

>  <r_i_glide_hbond>  (1) 
-0.081388951397249359

>  <r_i_glide_ligand_efficiency>  (1) 
-0.042730567924196307

>  <r_i_glide_ligand_efficiency_ln>  (1) 
-0.32097295421377775

>  <r_i_glide_ligand_efficiency_sa>  (1) 
-0.13843045212251545

>  <r_i_glide_lipo>  (1) 
-0.94594674760969466

>  <r_i_glide_metal>  (1) 
-0

>  <r_i_glide_rewards>  (1) 
-0.61093797103003511

>  <r_lp_Energy>  (1) 
22.583292999999998

>  <s_epik_Chemistry_Notes>  (1) 
This compound has an imine and may undergo hydrolysis. This compound contains an acetal/aminal-like group ( X-CH(R)-Y where X, Y are N, S, or O) that may be acid/base labile, releasing an aldehyde.

>  <s_epik_cmdline>  (1) 
J2VwaWtfcHl0aG9uJywgJy1waHQnLCAnMS4wJywgJy1waCcsICc3LjQnLCAnLXRuJywgJzgnLCAnLW1hJywgJzUwMCcsICctaW1hZScsICc8aW5maWxlLm1hZT4nLCAnLW9tYWUnLCAnPG91dGZpbGUubWFlPic=

>  <s_epik_input>  (1) 
W1NIXVMoPU8pKD1PKVtDQEBdMShbQ0gyXVtDSDNdKVtDQEBdKFtDSDNdKShbQ0BASF0xW09IXSlPW0NASF0oW0NAQEhdMltDSDNdKVtOSF1bQ0BASF0oRilbQ0BIXTJbQ0gyXS9bQ0hdPVtDSF1cQyhbQ0gyXVtOSDJdKT1OXEMoPU5cW0hdKVxbQ0gyXVtDSDJdW0NIMl1bTkhdW0NIMl1bT0hd

>  <s_glide_docking_method>  (1) 
confgen

>  <s_i_glide_gridfile>  (1) 
gpcr_drd2_6luq_protein_autoprepared_prepared

>  <s_lp_Force_Field>  (1) 
S-OPLS

>  <s_lp_Variant>  (1) 
DiffSBDD_10_num_sample_50-19

>  <s_m_source_file>  (1) 
generated__ligand_DiffSBDD_2026-05-06_prepared.sdf

>  <GenAI_Model>  (1) 
DiffSBDD

>  <Protein>  (1) 
generic_title2

$$$$
DiffSBDD_10_num_sample_50
     RDKit          3D

  0  0  0  0  0  0  0  0  0  0999 V3000
M  V30 BEGIN CTAB
M  V30 COUNTS 71 72 0 0 1
M  V30 BEGIN ATOM
M  V30 1 C 12.196831 1.192572 -19.312738 0 CFG=2
M  V30 2 C 9.241439 6.804510 -11.680579 0
M  V30 3 C 5.675568 5.755081 -14.319993 0
M  V30 4 C 7.677822 4.509238 -17.198744 0 CFG=1
M  V30 5 C 10.812996 1.810241 -19.634173 0 CFG=2
M  V30 6 N 9.265153 4.406018 -11.994870 0
M  V30 7 N 8.362446 2.268606 -17.556011 0
M  V30 8 C 9.105728 3.116351 -18.448466 0 CFG=1
M  V30 9 S 13.225391 0.617261 -20.779533 0
M  V30 10 C 10.242609 6.824915 -10.538129 0
M  V30 11 S 13.629100 2.496548 -21.668195 0 CHG=-1
M  V30 12 C 13.784777 0.524632 -17.359484 0
M  V30 13 O 11.833095 8.583404 -6.496303 0
M  V30 14 O 14.517220 0.085729 -20.321076 0
M  V30 15 C 10.921414 0.371635 -19.187466 0 CFG=2
M  V30 16 C 6.042673 5.829064 -11.776724 0
M  V30 17 C 7.638468 3.094610 -16.593772 0 CFG=1
M  V30 18 N 11.016633 7.755781 -8.440764 0
M  V30 19 N 7.916851 5.715913 -13.351804 0
M  V30 20 C 10.027788 7.926204 -9.496683 0
M  V30 21 C 10.253074 4.925623 -17.061421 0
M  V30 22 C 13.045360 1.643469 -18.113610 0
M  V30 23 C 10.334647 2.209164 -21.027925 0
M  V30 24 C 7.398122 5.709978 -16.266420 0
M  V30 25 C 6.655254 5.761377 -13.177113 0
M  V30 26 O 10.504965 0.164380 -17.858410 0
M  V30 27 C 8.832155 5.679104 -12.305679 0
M  V30 28 O 12.407681 -0.176521 -21.710470 0
M  V30 29 F 8.234836 3.033622 -15.409037 0
M  V30 30 N 6.107511 4.552186 -11.091437 0
M  V30 31 C 11.012250 8.916725 -7.581400 0
M  V30 32 C 9.026778 4.560648 -17.935004 0 CFG=2
M  V30 33 O 10.448341 2.745613 -18.604555 0
M  V30 34 C 5.994705 5.732404 -15.650608 0
M  V30 35 H 8.851269 7.762051 -11.995930 0
M  V30 36 H 4.636925 5.769370 -14.022264 0
M  V30 37 H 6.906459 4.523448 -17.971498 0
M  V30 38 H 10.023551 4.255490 -11.346983 0
M  V30 39 H 8.937952 1.574079 -17.100414 0
M  V30 40 H 8.594157 3.092940 -19.408022 0
M  V30 41 H 11.229809 6.969247 -10.978682 0
M  V30 42 H 10.234764 5.859802 -10.032682 0
M  V30 43 H 14.214152 0.915167 -16.437005 0
M  V30 44 H 13.107453 -0.284829 -17.091751 0
M  V30 45 H 14.609677 0.095762 -17.922623 0
M  V30 46 H 12.586816 9.152827 -6.512379 0
M  V30 47 H 10.668920 -0.426568 -19.882238 0
M  V30 48 H 6.571504 6.569680 -11.180883 0
M  V30 49 H 5.013071 6.171508 -11.829663 0
M  V30 50 H 6.633650 2.713244 -16.449639 0
M  V30 51 H 10.769088 6.946917 -7.887930 0
M  V30 52 H 9.034965 7.867891 -9.057924 0
M  V30 53 H 10.132328 8.907271 -9.959487 0
M  V30 54 H 10.360581 4.256471 -16.207341 0
M  V30 55 H 11.177889 4.881110 -17.636495 0
M  V30 56 H 10.187322 5.944956 -16.683987 0
M  V30 57 H 13.759273 2.390462 -18.461442 0
M  V30 58 H 12.414559 2.158910 -17.390650 0
M  V30 59 H 10.766288 1.588753 -21.806819 0
M  V30 60 H 9.255629 2.099510 -21.120624 0
M  V30 61 H 10.607383 3.244482 -21.233532 0
M  V30 62 H 7.400322 6.569367 -16.928681 0
M  V30 63 H 8.237745 5.887642 -15.616114 0
M  V30 64 H 10.857055 0.884949 -17.354813 0
M  V30 65 H 7.088051 4.304398 -11.034851 0
M  V30 66 H 5.803418 4.681343 -10.132646 0
M  V30 67 H 10.005943 9.142681 -7.223000 0
M  V30 68 H 11.434802 9.769289 -8.111019 0
M  V30 69 H 8.983107 5.238646 -18.788829 0
M  V30 70 H 5.184815 5.731882 -16.364981 0
M  V30 71 H 9.034518 3.620300 -12.587670 0
M  V30 END ATOM
M  V30 BEGIN BOND
M  V30 1 1 5 1
M  V30 2 1 8 7
M  V30 3 1 9 1
M  V30 4 1 10 2
M  V30 5 1 11 9
M  V30 6 2 14 9
M  V30 7 1 15 1
M  V30 8 1 15 5
M  V30 9 1 17 4
M  V30 10 1 17 7
M  V30 11 1 20 10
M  V30 12 1 20 18
M  V30 13 1 1 22 CFG=1
M  V30 14 1 22 12
M  V30 15 1 23 5
M  V30 16 1 24 4
M  V30 17 1 25 3
M  V30 18 1 25 16
M  V30 19 2 25 19
M  V30 20 1 26 15
M  V30 21 2 27 2
M  V30 22 1 27 6
M  V30 23 1 27 19
M  V30 24 2 28 9
M  V30 25 1 29 17
M  V30 26 1 30 16
M  V30 27 1 31 13
M  V30 28 1 31 18
M  V30 29 1 32 4
M  V30 30 1 32 8
M  V30 31 1 32 21
M  V30 32 1 5 33 CFG=1
M  V30 33 1 33 8
M  V30 34 2 34 3
M  V30 35 1 34 24
M  V30 36 1 35 2
M  V30 37 1 36 3
M  V30 38 1 4 37 CFG=3
M  V30 39 1 38 6
M  V30 40 1 39 7
M  V30 41 1 8 40 CFG=3
M  V30 42 1 41 10
M  V30 43 1 42 10
M  V30 44 1 43 12
M  V30 45 1 44 12
M  V30 46 1 45 12
M  V30 47 1 46 13
M  V30 48 1 15 47 CFG=3
M  V30 49 1 48 16
M  V30 50 1 49 16
M  V30 51 1 17 50 CFG=1
M  V30 52 1 51 18
M  V30 53 1 52 20
M  V30 54 1 53 20
M  V30 55 1 54 21
M  V30 56 1 55 21
M  V30 57 1 56 21
M  V30 58 1 57 22
M  V30 59 1 58 22
M  V30 60 1 59 23
M  V30 61 1 60 23
M  V30 62 1 61 23
M  V30 63 1 62 24
M  V30 64 1 63 24
M  V30 65 1 64 26
M  V30 66 1 65 30
M  V30 67 1 66 30
M  V30 68 1 67 31
M  V30 69 1 68 31
M  V30 70 1 32 69 CFG=3
M  V30 71 1 70 34
M  V30 72 1 71 6
M  V30 END BOND
M  V30 END CTAB
M  END
>  <i_epik_Tot_Q>  (1) 
-1

>  <i_epik_Tot_abs_Q>  (1) 
1

>  <i_i_glide_confnum>  (1) 
610

>  <i_i_glide_lignum>  (1) 
39

>  <i_i_glide_posenum>  (1) 
295

>  <i_i_glide_rotatable_bonds>  (1) 
15

>  <i_lp_mmshare_version>  (1) 
72125

>  <i_m_source_file_index>  (1) 
11

>  <i_f3d_flags>  (1) 
0

>  <num_sample>  (1) 
50

>  <b_lp_Chiralities_Consistent>  (1) 
1

>  <r_epik_Charging_Adjusted_Penalty>  (1) 
1.239197207418439

>  <r_epik_Ionization_Penalty>  (1) 
1.2496715491914541

>  <r_epik_Ionization_Penalty_Charging>  (1) 
1.1069707349969355e-11

>  <r_epik_Ionization_Penalty_Neutral>  (1) 
1.2496715491803843

>  <r_epik_State_Penalty>  (1) 
1.2391972074073692

>  <r_glide_ring_energy>  (1) 
0

>  <r_i_docking_score>  (1) 
-1.4508325365990793

>  <r_i_glide_ecoul>  (1) 
-1.3790584441936202

>  <r_i_glide_eff_state_penalty>  (1) 
1.2391972074073692

>  <r_i_glide_einternal>  (1) 
7.2461202060194267

>  <r_i_glide_emodel>  (1) 
-34.187630811879814

>  <r_i_glide_emodel_strain>  (1) 
0.24444077607390113

>  <r_i_glide_energy>  (1) 
-32.225226699758267

>  <r_i_glide_erotb>  (1) 
0.82803537691766171

>  <r_i_glide_esite>  (1) 
0

>  <r_i_glide_evdw>  (1) 
-30.846168255564649

>  <r_i_glide_gscore>  (1) 
-2.6900297440064485

>  <r_i_glide_gscore_strain>  (1) 
0

>  <r_i_glide_hbond>  (1) 
-0.17284727317944018

>  <r_i_glide_ligand_efficiency>  (1) 
-0.042671545194090568

>  <r_i_glide_ligand_efficiency_ln>  (1) 
-0.3205296018089745

>  <r_i_glide_ligand_efficiency_sa>  (1) 
-0.13823924138952129

>  <r_i_glide_lipo>  (1) 
-1.1399286898654555

>  <r_i_glide_metal>  (1) 
-0

>  <r_i_glide_rewards>  (1) 
-0.45612197847193853

>  <r_lp_Energy>  (1) 
22.583292999999998

>  <s_epik_Chemistry_Notes>  (1) 
This compound has an imine and may undergo hydrolysis. This compound contains an acetal/aminal-like group ( X-CH(R)-Y where X, Y are N, S, or O) that may be acid/base labile, releasing an aldehyde.

>  <s_epik_cmdline>  (1) 
J2VwaWtfcHl0aG9uJywgJy1waHQnLCAnMS4wJywgJy1waCcsICc3LjQnLCAnLXRuJywgJzgnLCAnLW1hJywgJzUwMCcsICctaW1hZScsICc8aW5maWxlLm1hZT4nLCAnLW9tYWUnLCAnPG91dGZpbGUubWFlPic=

>  <s_epik_input>  (1) 
W1NIXVMoPU8pKD1PKVtDQEBdMShbQ0gyXVtDSDNdKVtDQEBdKFtDSDNdKShbQ0BASF0xW09IXSlPW0NASF0oW0NAQEhdMltDSDNdKVtOSF1bQ0BASF0oRilbQ0BIXTJbQ0gyXS9bQ0hdPVtDSF1cQyhbQ0gyXVtOSDJdKT1OXEMoPU5cW0hdKVxbQ0gyXVtDSDJdW0NIMl1bTkhdW0NIMl1bT0hd

>  <s_glide_docking_method>  (1) 
confgen

>  <s_i_glide_gridfile>  (1) 
gpcr_drd2_6luq_protein_autoprepared_prepared

>  <s_lp_Force_Field>  (1) 
S-OPLS

>  <s_lp_Variant>  (1) 
DiffSBDD_10_num_sample_50-19

>  <s_m_source_file>  (1) 
generated__ligand_DiffSBDD_2026-05-06_prepared.sdf

>  <GenAI_Model>  (1) 
DiffSBDD

>  <Protein>  (1) 
generic_title2

$$$$
DiffSBDD_36_num_sample_50
     RDKit          3D

  0  0  0  0  0  0  0  0  0  0999 V3000
M  V30 BEGIN CTAB
M  V30 COUNTS 76 79 0 0 1
M  V30 BEGIN ATOM
M  V30 1 C 9.002205 0.709127 -18.649137 0
M  V30 2 O 13.056985 7.137714 -21.578092 0
M  V30 3 C 8.118687 5.261919 -19.662739 0
M  V30 4 S 12.625105 5.752871 -21.091667 0
M  V30 5 C 9.999188 0.269308 -20.941234 0 CFG=2
M  V30 6 C 7.983425 1.670561 -19.280157 0
M  V30 7 C 11.918210 6.225287 -18.371839 0 CFG=1
M  V30 8 C 8.530498 2.337407 -20.564138 0 CFG=1
M  V30 9 F 8.433334 -1.174021 -19.918403 0
M  V30 10 O 12.778630 7.349064 -18.433984 0
M  V30 11 C 5.648725 5.045567 -20.478538 0
M  V30 12 C 10.466852 -0.791188 -21.949368 0
M  V30 13 C 9.458134 -0.364600 -19.645411 0 CFG=2
M  V30 14 C 9.280280 5.067044 -21.958364 0
M  V30 15 C 14.097025 5.081007 -20.173389 0
M  V30 16 C 10.432791 8.031333 -21.035114 0
M  V30 17 C 15.047338 3.210850 -18.754422 0
M  V30 18 O 12.738918 3.856042 -18.466166 0
M  V30 19 C 5.794518 4.086532 -19.321376 0
M  V30 20 C 8.966945 1.235222 -21.558897 0
M  V30 21 C 13.274103 2.689622 -20.422470 0
M  V30 22 C 11.308497 5.891378 -19.758664 0 CFG=1
M  V30 23 C 6.987519 4.393961 -20.199931 0
M  V30 24 C 13.780560 3.761826 -19.438071 0
M  V30 25 C 8.897165 5.999122 -20.779961 0 CFG=2
M  V30 26 C 7.533422 3.366097 -21.195472 0 CFG=1
M  V30 27 C 13.704535 5.328096 -16.693766 0
M  V30 28 C 10.095266 6.793032 -20.188581 0 CFG=2
M  V30 29 C 11.402804 4.399534 -16.719100 0
M  V30 30 C 8.119935 4.154965 -22.389294 0
M  V30 31 C 12.508905 4.988765 -17.613278 0
M  V30 32 H 9.867833 1.276489 -18.304927 0
M  V30 33 H 8.572783 0.238131 -17.764376 0
M  V30 34 H 8.778258 4.644526 -19.056703 0
M  V30 35 H 7.699866 5.993954 -18.971222 0
M  V30 36 H 10.876887 0.858054 -20.672604 0
M  V30 37 H 7.733490 2.421066 -18.531458 0
M  V30 38 H 7.060943 1.133953 -19.505841 0
M  V30 39 H 11.097818 6.569644 -17.745135 0
M  V30 40 H 9.435721 2.867581 -20.272210 0
M  V30 41 H 12.852416 7.730833 -17.572447 0
M  V30 42 H 5.537777 6.101996 -20.242834 0
M  V30 43 H 5.081283 4.701851 -21.340954 0
M  V30 44 H 9.641264 -1.428245 -22.268742 0
M  V30 45 H 10.891712 -0.327128 -22.839787 0
M  V30 46 H 11.235438 -1.430699 -21.515487 0
M  V30 47 H 10.221928 -0.987658 -19.181086 0
M  V30 48 H 9.608906 5.664978 -22.808671 0
M  V30 49 H 10.127141 4.433321 -21.706310 0
M  V30 50 H 14.495361 5.836317 -19.500701 0
M  V30 51 H 14.882119 4.911668 -20.910623 0
M  V30 52 H 10.693905 7.767597 -22.059917 0
M  V30 53 H 9.591014 8.721917 -21.089779 0
M  V30 54 H 11.270229 8.569847 -20.594625 0
M  V30 55 H 15.801455 2.936978 -19.492766 0
M  V30 56 H 15.512066 3.932674 -18.087124 0
M  V30 57 H 14.819724 2.318762 -18.169635 0
M  V30 58 H 5.318626 3.112629 -19.420005 0
M  V30 59 H 5.791248 4.508972 -18.318959 0
M  V30 60 H 8.092816 0.678437 -21.899804 0
M  V30 61 H 9.412390 1.679341 -22.447456 0
M  V30 62 H 13.974384 2.539619 -21.244382 0
M  V30 63 H 13.142729 1.729429 -19.922907 0
M  V30 64 H 12.308343 2.953644 -20.853531 0
M  V30 65 H 10.912254 4.884534 -19.652401 0
M  V30 66 H 8.191987 6.727117 -21.184610 0
M  V30 67 H 6.681594 2.796262 -21.570003 0
M  V30 68 H 13.416328 6.054977 -15.933713 0
M  V30 69 H 14.063559 4.441960 -16.169183 0
M  V30 70 H 14.544130 5.758856 -17.236262 0
M  V30 71 H 9.701730 7.228871 -19.270398 0
M  V30 72 H 11.140593 5.064824 -15.894927 0
M  V30 73 H 10.493700 4.190835 -17.284283 0
M  V30 74 H 11.731406 3.454536 -16.291716 0
M  V30 75 H 7.334740 4.772222 -22.827713 0
M  V30 76 H 8.437413 3.491713 -23.192426 0
M  V30 END ATOM
M  V30 BEGIN BOND
M  V30 1 2 4 2
M  V30 2 1 6 1
M  V30 3 1 8 6
M  V30 4 1 10 7
M  V30 5 1 12 5
M  V30 6 1 13 1
M  V30 7 1 13 5
M  V30 8 1 13 9
M  V30 9 1 4 15 CFG=1
M  V30 10 1 19 11
M  V30 11 1 20 5
M  V30 12 1 20 8
M  V30 13 1 22 4
M  V30 14 1 22 7
M  V30 15 1 23 3
M  V30 16 1 23 11
M  V30 17 1 23 19
M  V30 18 1 24 15
M  V30 19 1 24 17
M  V30 20 1 24 18
M  V30 21 1 24 21
M  V30 22 1 25 3
M  V30 23 1 25 14
M  V30 24 1 26 8
M  V30 25 1 26 23
M  V30 26 1 28 16
M  V30 27 1 28 22
M  V30 28 1 28 25
M  V30 29 1 30 14
M  V30 30 1 30 26
M  V30 31 1 31 7
M  V30 32 1 31 18
M  V30 33 1 31 27
M  V30 34 1 31 29
M  V30 35 1 32 1
M  V30 36 1 33 1
M  V30 37 1 34 3
M  V30 38 1 35 3
M  V30 39 1 5 36 CFG=1
M  V30 40 1 37 6
M  V30 41 1 38 6
M  V30 42 1 7 39 CFG=1
M  V30 43 1 8 40 CFG=1
M  V30 44 1 41 10
M  V30 45 1 42 11
M  V30 46 1 43 11
M  V30 47 1 44 12
M  V30 48 1 45 12
M  V30 49 1 46 12
M  V30 50 1 13 47 CFG=1
M  V30 51 1 48 14
M  V30 52 1 49 14
M  V30 53 1 50 15
M  V30 54 1 51 15
M  V30 55 1 52 16
M  V30 56 1 53 16
M  V30 57 1 54 16
M  V30 58 1 55 17
M  V30 59 1 56 17
M  V30 60 1 57 17
M  V30 61 1 58 19
M  V30 62 1 59 19
M  V30 63 1 60 20
M  V30 64 1 61 20
M  V30 65 1 62 21
M  V30 66 1 63 21
M  V30 67 1 64 21
M  V30 68 1 22 65 CFG=1
M  V30 69 1 25 66 CFG=3
M  V30 70 1 26 67 CFG=3
M  V30 71 1 68 27
M  V30 72 1 69 27
M  V30 73 1 70 27
M  V30 74 1 28 71 CFG=1
M  V30 75 1 72 29
M  V30 76 1 73 29
M  V30 77 1 74 29
M  V30 78 1 75 30
M  V30 79 1 76 30
M  V30 END BOND
M  V30 END CTAB
M  END
>  <i_epik_Tot_Q>  (1) 
0

>  <i_epik_Tot_abs_Q>  (1) 
0

>  <i_i_glide_confnum>  (1) 
14

>  <i_i_glide_lignum>  (1) 
91

>  <i_i_glide_posenum>  (1) 
304

>  <i_i_glide_rotatable_bonds>  (1) 
4

>  <i_lp_mmshare_version>  (1) 
72125

>  <i_m_source_file_index>  (1) 
37

>  <i_f3d_flags>  (1) 
0

>  <num_sample>  (1) 
50

>  <b_lp_Chiralities_Consistent>  (1) 
1

>  <r_epik_Charging_Adjusted_Penalty>  (1) 
0

>  <r_epik_Ionization_Penalty>  (1) 
1.4246355220095789e-06

>  <r_epik_Ionization_Penalty_Charging>  (1) 
0

>  <r_epik_Ionization_Penalty_Neutral>  (1) 
1.4246355220095789e-06

>  <r_epik_State_Penalty>  (1) 
-0

>  <r_glide_ring_energy>  (1) 
0

>  <r_i_docking_score>  (1) 
-1.4015020626191075

>  <r_i_glide_ecoul>  (1) 
0.55045013860264891

>  <r_i_glide_eff_state_penalty>  (1) 
-0

>  <r_i_glide_einternal>  (1) 
7.5119196946629927

>  <r_i_glide_emodel>  (1) 
-12.71140300080215

>  <r_i_glide_emodel_strain>  (1) 
0.096516996374120367

>  <r_i_glide_energy>  (1) 
-14.940135366735246

>  <r_i_glide_erotb>  (1) 
0.28908081276348274

>  <r_i_glide_esite>  (1) 
0

>  <r_i_glide_evdw>  (1) 
-15.490585505337895

>  <r_i_glide_gscore>  (1) 
-1.4015020626191075

>  <r_i_glide_gscore_strain>  (1) 
0

>  <r_i_glide_hbond>  (1) 
0

>  <r_i_glide_ligand_efficiency>  (1) 
-0.04520974395545508

>  <r_i_glide_ligand_efficiency_ln>  (1) 
-0.31608166600062243

>  <r_i_glide_ligand_efficiency_sa>  (1) 
-0.14202101496123534

>  <r_i_glide_lipo>  (1) 
-0.69409908278341848

>  <r_i_glide_metal>  (1) 
-0

>  <r_i_glide_rewards>  (1) 
-0.30452203812267409

>  <r_lp_Energy>  (1) 
32.420203000000001

>  <r_lp_tautomer_probability>  (1) 
1

>  <s_epik_cmdline>  (1) 
J2VwaWtfcHl0aG9uJywgJy1waHQnLCAnMS4wJywgJy1waCcsICc3LjQnLCAnLXRuJywgJzgnLCAnLW1hJywgJzUwMCcsICctaW1hZScsICc8aW5maWxlLm1hZT4nLCAnLW9tYWUnLCAnPG91dGZpbGUubWFlPic=

>  <s_epik_input>  (1) 
W0NIM11bQ0BASF0xW0NASF0oRilbQ0gyXVtDSDJdW0NAQEhdKFtDSDJdMSlbQ0BASF0yW0NIMl1bQ0gyXVtDQEBIXShbQ0gyXUMyM1tDSDJdW0NIMl0zKVtDQEhdKFtDSDNdKVtDQEhdKFtDQEhdKFtPSF0pQyhPNCkoW0NIM10pW0NIM10pUyg9TylbQ0gyXUM0KFtDSDNdKVtDSDNd

>  <s_glide_docking_method>  (1) 
confgen

>  <s_i_glide_gridfile>  (1) 
gpcr_drd2_6luq_protein_autoprepared_prepared

>  <s_lp_Force_Field>  (1) 
S-OPLS

>  <s_lp_Variant>  (1) 
DiffSBDD_36_num_sample_50-1

>  <s_m_source_file>  (1) 
generated__ligand_DiffSBDD_2026-05-06_prepared.sdf

>  <GenAI_Model>  (1) 
DiffSBDD

>  <Protein>  (1) 
generic_title2

$$$$
DiffSBDD_31_num_sample_50
     RDKit          3D

  0  0  0  0  0  0  0  0  0  0999 V3000
M  V30 BEGIN CTAB
M  V30 COUNTS 71 76 0 0 1
M  V30 BEGIN ATOM
M  V30 1 C 4.893065 9.373036 -21.273721 0
M  V30 2 C 7.477557 8.342275 -21.804479 0
M  V30 3 C 5.685037 0.969056 -17.452839 0
M  V30 4 C 5.612632 1.622294 -21.432162 0
M  V30 5 C 6.647858 -0.229501 -20.099804 0
M  V30 6 C 9.249802 4.117117 -21.156877 0
M  V30 7 C 6.587932 -2.369798 -18.768154 0 CFG=2
M  V30 8 C 10.056140 8.475203 -21.455276 0
M  V30 9 F 3.661799 9.871966 -21.014911 0
M  V30 10 C 5.454777 8.404739 -20.421192 0
M  V30 11 C 8.856283 7.797545 -22.083406 0
M  V30 12 C 8.009477 1.844509 -20.792321 0
M  V30 13 C 6.677402 5.186611 -22.238492 0
M  V30 14 C 7.849146 5.769285 -23.050301 0
M  V30 15 C 9.197087 5.641863 -20.974944 0
M  V30 16 C 6.738442 7.890644 -20.688270 0
M  V30 17 F 7.952327 -2.562387 -18.692408 0
M  V30 18 C 5.614349 9.821338 -22.395626 0
M  V30 19 C 6.897746 9.305173 -22.660061 0
M  V30 20 C 5.929080 -0.324332 -17.687700 0
M  V30 21 N 8.916976 6.338760 -22.228463 0
M  V30 22 C 5.524329 3.138364 -21.613440 0
M  V30 23 C 6.062760 -3.174511 -19.953610 0
M  V30 24 C 6.658403 1.273266 -20.371656 0 CFG=1
M  V30 25 O 6.787678 -2.909489 -21.139699 0
M  V30 26 C 9.808542 8.608604 -22.937151 0
M  V30 27 C 8.852504 1.022532 -21.737755 0
M  V30 28 C 6.341159 -0.884902 -18.956857 0
M  V30 29 C 5.921322 -2.741185 -17.487715 0 CFG=2
M  V30 30 O 4.637395 -3.263191 -17.746832 0
M  V30 31 C 9.250800 1.149052 -20.286708 0
M  V30 32 C 7.892090 3.393657 -20.914521 0 CFG=2
M  V30 33 N 6.846436 3.737690 -21.938969 0 CFG=2 CHG=1
M  V30 34 C 5.821016 -1.439086 -16.660319 0
M  V30 35 H 5.458823 1.308985 -16.452434 0
M  V30 36 H 5.667852 1.709448 -18.236838 0
M  V30 37 H 5.865742 1.145484 -22.380530 0
M  V30 38 H 4.635596 1.233460 -21.141300 0
M  V30 39 H 6.966444 -0.837525 -20.932628 0
M  V30 40 H 9.694510 3.856170 -22.117341 0
M  V30 41 H 9.961060 3.787182 -20.404015 0
M  V30 42 H 9.871906 9.350182 -20.831922 0
M  V30 43 H 10.883700 7.841308 -21.136808 0
M  V30 44 H 4.898173 8.054295 -19.564383 0
M  V30 45 H 5.791397 5.304440 -22.863741 0
M  V30 46 H 6.465211 5.751770 -21.330171 0
M  V30 47 H 8.272812 4.993261 -23.688746 0
M  V30 48 H 7.486101 6.533979 -23.738168 0
M  V30 49 H 10.165166 5.993764 -20.615634 0
M  V30 50 H 8.475599 5.898383 -20.199954 0
M  V30 51 H 7.156345 7.143219 -20.030092 0
M  V30 52 H 5.181105 10.559407 -23.054679 0
M  V30 53 H 7.440971 9.652905 -23.526705 0
M  V30 54 H 4.808123 3.350744 -22.408512 0
M  V30 55 H 5.130800 3.598908 -20.705339 0
M  V30 56 H 5.015474 -2.932416 -20.137368 0
M  V30 57 H 6.110066 -4.243826 -19.743947 0
M  V30 58 H 6.406437 1.782349 -19.445181 0
M  V30 59 H 6.669136 -2.000806 -21.371989 0
M  V30 60 H 10.470375 8.064000 -23.610563 0
M  V30 61 H 9.458582 9.572874 -23.305677 0
M  V30 62 H 8.451087 0.064938 -22.069387 0
M  V30 63 H 9.452146 1.557356 -22.474295 0
M  V30 64 H 6.481885 -3.516143 -16.964924 0
M  V30 65 H 4.285343 -3.599931 -16.935125 0
M  V30 66 H 10.116740 1.768467 -20.053096 0
M  V30 67 H 9.115681 0.276049 -19.648188 0
M  V30 68 H 7.525745 3.753181 -19.951000 0
M  V30 69 H 6.651701 -1.352595 -15.959903 0
M  V30 70 H 4.886128 -1.376433 -16.103399 0
M  V30 71 H 7.147246 3.307465 -22.801906 0
M  V30 END ATOM
M  V30 BEGIN BOND
M  V30 1 1 9 1
M  V30 2 1 10 1
M  V30 3 1 11 2
M  V30 4 1 11 8
M  V30 5 1 14 13
M  V30 6 1 15 6
M  V30 7 1 16 2
M  V30 8 2 16 10
M  V30 9 1 7 17 CFG=1
M  V30 10 2 18 1
M  V30 11 2 19 2
M  V30 12 1 19 18
M  V30 13 2 20 3
M  V30 14 1 21 11
M  V30 15 1 21 14
M  V30 16 1 21 15
M  V30 17 1 22 4
M  V30 18 1 23 7
M  V30 19 1 24 4
M  V30 20 1 24 5
M  V30 21 1 24 12
M  V30 22 1 25 23
M  V30 23 1 26 8
M  V30 24 1 26 11
M  V30 25 1 27 12
M  V30 26 2 28 5
M  V30 27 1 28 7
M  V30 28 1 28 20
M  V30 29 1 29 7
M  V30 30 1 30 29
M  V30 31 1 31 12
M  V30 32 1 31 27
M  V30 33 1 32 6
M  V30 34 1 32 12
M  V30 35 1 33 13
M  V30 36 1 33 22
M  V30 37 1 33 32
M  V30 38 1 34 20
M  V30 39 1 34 29
M  V30 40 1 35 3
M  V30 41 1 36 3
M  V30 42 1 37 4
M  V30 43 1 38 4
M  V30 44 1 39 5
M  V30 45 1 40 6
M  V30 46 1 41 6
M  V30 47 1 42 8
M  V30 48 1 43 8
M  V30 49 1 44 10
M  V30 50 1 45 13
M  V30 51 1 46 13
M  V30 52 1 47 14
M  V30 53 1 48 14
M  V30 54 1 49 15
M  V30 55 1 50 15
M  V30 56 1 51 16
M  V30 57 1 52 18
M  V30 58 1 53 19
M  V30 59 1 54 22
M  V30 60 1 55 22
M  V30 61 1 56 23
M  V30 62 1 57 23
M  V30 63 1 24 58 CFG=1
M  V30 64 1 59 25
M  V30 65 1 60 26
M  V30 66 1 61 26
M  V30 67 1 62 27
M  V30 68 1 63 27
M  V30 69 1 29 64 CFG=1
M  V30 70 1 65 30
M  V30 71 1 66 31
M  V30 72 1 67 31
M  V30 73 1 32 68 CFG=1
M  V30 74 1 69 34
M  V30 75 1 70 34
M  V30 76 1 33 71 CFG=3
M  V30 END BOND
M  V30 END CTAB
M  END
>  <i_epik_Tot_Q>  (1) 
1

>  <i_epik_Tot_abs_Q>  (1) 
1

>  <i_i_glide_confnum>  (1) 
244

>  <i_i_glide_lignum>  (1) 
81

>  <i_i_glide_posenum>  (1) 
80

>  <i_i_glide_rotatable_bonds>  (1) 
6

>  <i_lp_mmshare_version>  (1) 
72125

>  <i_m_source_file_index>  (1) 
32

>  <i_f3d_flags>  (1) 
0

>  <num_sample>  (1) 
50

>  <b_lp_Chiralities_Consistent>  (1) 
1

>  <r_epik_Charging_Adjusted_Penalty>  (1) 
0.0036996964664751512

>  <r_epik_Ionization_Penalty>  (1) 
0.0040620325304727405

>  <r_epik_Ionization_Penalty_Charging>  (1) 
0.0036996964664751512

>  <r_epik_Ionization_Penalty_Neutral>  (1) 
0.00036233606399758918

>  <r_epik_State_Penalty>  (1) 
-0

>  <r_glide_ring_energy>  (1) 
0

>  <r_i_docking_score>  (1) 
-1.3961836859019434

>  <r_i_glide_ecoul>  (1) 
-4.0616981330232793

>  <r_i_glide_eff_state_penalty>  (1) 
-0

>  <r_i_glide_einternal>  (1) 
6.4667430240791219

>  <r_i_glide_emodel>  (1) 
-12.531822817538917

>  <r_i_glide_emodel_strain>  (1) 
10.105662157099914

>  <r_i_glide_energy>  (1) 
-23.372120671572624

>  <r_i_glide_erotb>  (1) 
0.36352394052346937

>  <r_i_glide_esite>  (1) 
-0.013232675084487909

>  <r_i_glide_evdw>  (1) 
-19.310422538549346

>  <r_i_glide_gscore>  (1) 
-1.3961836859019434

>  <r_i_glide_gscore_strain>  (1) 
1.5264155392749785

>  <r_i_glide_hbond>  (1) 
-0.14769788324697458

>  <r_i_glide_ligand_efficiency>  (1) 
-0.041064226055939512

>  <r_i_glide_ligand_efficiency_ln>  (1) 
-0.30845613784163617

>  <r_i_glide_ligand_efficiency_sa>  (1) 
-0.13303215134114799

>  <r_i_glide_lipo>  (1) 
-1.0323627554124983

>  <r_i_glide_metal>  (1) 
-0

>  <r_i_glide_rewards>  (1) 
-0.51805400507547161

>  <r_lp_Energy>  (1) 
34.452109999999998

>  <r_lp_tautomer_probability>  (1) 
1

>  <s_epik_cmdline>  (1) 
J2VwaWtfcHl0aG9uJywgJy1waHQnLCAnMS4wJywgJy1waCcsICc3LjQnLCAnLXRuJywgJzgnLCAnLW1hJywgJzUwMCcsICctaW1hZScsICc8aW5maWxlLm1hZT4nLCAnLW9tYWUnLCAnPG91dGZpbGUubWFlPic=

>  <s_epik_input>  (1) 
RmMxW2NIXVtjSF1jKFtjSF1bY0hdMSlDMihbQ0gyXVtDSDJdMilOKFtDSDJdW0NIMl0zKVtDSDJdW0NIMl1OKFtDQEhdM0M0NVtDSDJdW0NIMl01KVtDSDJdW0NIMl1bQ0BIXTQvW0NIXT1DKC9bQ0BdNihGKVtDSDJdW09IXSlDKD1bQ0gyXSlbQ0gyXVtDQEhdNltPSF0=

>  <s_glide_docking_method>  (1) 
confgen

>  <s_i_glide_gridfile>  (1) 
gpcr_drd2_6luq_protein_autoprepared_prepared

>  <s_lp_Force_Field>  (1) 
S-OPLS

>  <s_lp_Variant>  (1) 
DiffSBDD_31_num_sample_50-4

>  <s_m_source_file>  (1) 
generated__ligand_DiffSBDD_2026-05-06_prepared.sdf

>  <GenAI_Model>  (1) 
DiffSBDD

>  <Protein>  (1) 
generic_title2

$$$$
DiffSBDD_10_num_sample_50
     RDKit          3D

  0  0  0  0  0  0  0  0  0  0999 V3000
M  V30 BEGIN CTAB
M  V30 COUNTS 71 72 0 0 1
M  V30 BEGIN ATOM
M  V30 1 C 13.320576 5.094560 -17.914390 0 CFG=2
M  V30 2 C 8.634151 6.616019 -13.091621 0
M  V30 3 C 5.357454 5.938103 -16.108965 0
M  V30 4 C 7.526252 4.713747 -18.658113 0 CFG=1
M  V30 5 C 12.171502 4.069921 -18.066230 0 CFG=2
M  V30 6 N 9.434839 4.733338 -14.358114 0
M  V30 7 N 9.304003 3.644275 -17.504946 0
M  V30 8 C 9.830772 3.940376 -18.805199 0 CFG=1
M  V30 9 S 15.034438 4.407827 -17.542458 0
M  V30 10 C 9.680177 6.536019 -11.992764 0
M  V30 11 S 15.430468 3.402846 -19.362209 0 CHG=-1
M  V30 12 C 13.696192 7.658058 -17.786775 0
M  V30 13 O 10.509231 7.215618 -7.388167 0
M  V30 14 O 16.012388 5.502612 -17.452559 0
M  V30 15 C 12.380202 4.795601 -16.760860 0 CFG=2
M  V30 16 C 5.716705 5.575610 -13.589607 0
M  V30 17 C 7.857116 3.634742 -17.610088 0 CFG=2
M  V30 18 N 10.103080 6.931282 -9.599960 0
M  V30 19 N 7.595736 5.891982 -15.137319 0
M  V30 20 C 9.081403 6.911884 -10.635797 0
M  V30 21 C 9.291286 6.178792 -19.973997 0
M  V30 22 C 13.352802 6.435214 -18.656790 0
M  V30 23 C 12.356925 2.562785 -18.228534 0
M  V30 24 C 7.073557 6.063522 -18.044189 0
M  V30 25 C 6.334526 5.811837 -14.970007 0
M  V30 26 O 11.380692 5.767468 -16.535487 0
M  V30 27 C 8.568382 5.769313 -14.142679 0
M  V30 28 O 14.984979 3.396106 -16.474873 0
M  V30 29 F 7.482843 2.436733 -18.059328 0
M  V30 30 N 6.097223 4.292329 -13.025206 0
M  V30 31 C 9.470810 7.266588 -8.338405 0
M  V30 32 C 8.781064 4.776817 -19.568858 0 CFG=2
M  V30 33 O 11.053959 4.624684 -18.781573 0
M  V30 34 C 5.675295 6.043404 -17.432392 0
M  V30 35 H 7.912990 7.415709 -13.006798 0
M  V30 36 H 4.323009 5.933423 -15.817294 0
M  V30 37 H 6.689685 4.360970 -19.263730 0
M  V30 38 H 10.296744 4.664531 -13.825035 0
M  V30 39 H 9.625731 2.749386 -17.165466 0
M  V30 40 H 9.978939 2.999970 -19.338078 0
M  V30 41 H 10.477865 7.235294 -12.245206 0
M  V30 42 H 10.127262 5.542424 -11.949844 0
M  V30 43 H 13.717768 8.562806 -18.394625 0
M  V30 44 H 12.952436 7.817555 -17.006741 0
M  V30 45 H 14.665946 7.572092 -17.301634 0
M  V30 46 H 10.421657 7.965445 -6.820965 0
M  V30 47 H 12.711430 4.244237 -15.891669 0
M  V30 48 H 5.984646 6.382376 -12.908679 0
M  V30 49 H 4.634840 5.591174 -13.668493 0
M  V30 50 H 7.366806 3.777492 -16.649019 0
M  V30 51 H 10.504664 6.010789 -9.503321 0
M  V30 52 H 8.290267 6.206941 -10.370548 0
M  V30 53 H 8.634853 7.904433 -10.702906 0
M  V30 54 H 9.578339 6.775950 -19.108064 0
M  V30 55 H 10.162428 6.105521 -20.625406 0
M  V30 56 H 8.531383 6.730046 -20.527320 0
M  V30 57 H 14.073151 6.352159 -19.471131 0
M  V30 58 H 12.388772 6.616165 -19.130249 0
M  V30 59 H 13.226154 2.197816 -17.688875 0
M  V30 60 H 11.498916 2.016421 -17.840771 0
M  V30 61 H 12.484928 2.314610 -19.281885 0
M  V30 62 H 6.975501 6.791799 -18.848615 0
M  V30 63 H 7.834960 6.492992 -17.424988 0
M  V30 64 H 10.782332 5.699609 -17.269951 0
M  V30 65 H 7.108980 4.245821 -13.012564 0
M  V30 66 H 5.805501 4.249054 -12.059128 0
M  V30 67 H 8.684798 6.554639 -8.078344 0
M  V30 68 H 9.035438 8.266871 -8.374076 0
M  V30 69 H 8.565325 4.229139 -20.487484 0
M  V30 70 H 4.865174 6.119399 -18.142700 0
M  V30 71 H 9.450782 4.272424 -15.257015 0
M  V30 END ATOM
M  V30 BEGIN BOND
M  V30 1 1 5 1
M  V30 2 1 8 7
M  V30 3 1 9 1
M  V30 4 1 10 2
M  V30 5 1 11 9
M  V30 6 2 14 9
M  V30 7 1 15 1
M  V30 8 1 15 5
M  V30 9 1 17 4
M  V30 10 1 17 7
M  V30 11 1 20 10
M  V30 12 1 20 18
M  V30 13 1 1 22 CFG=3
M  V30 14 1 22 12
M  V30 15 1 23 5
M  V30 16 1 24 4
M  V30 17 1 25 3
M  V30 18 1 25 16
M  V30 19 2 25 19
M  V30 20 1 26 15
M  V30 21 2 27 2
M  V30 22 1 27 6
M  V30 23 1 27 19
M  V30 24 2 28 9
M  V30 25 1 29 17
M  V30 26 1 30 16
M  V30 27 1 31 13
M  V30 28 1 31 18
M  V30 29 1 32 4
M  V30 30 1 32 8
M  V30 31 1 32 21
M  V30 32 1 5 33 CFG=3
M  V30 33 1 33 8
M  V30 34 2 34 3
M  V30 35 1 34 24
M  V30 36 1 35 2
M  V30 37 1 36 3
M  V30 38 1 4 37 CFG=3
M  V30 39 1 38 6
M  V30 40 1 39 7
M  V30 41 1 8 40 CFG=3
M  V30 42 1 41 10
M  V30 43 1 42 10
M  V30 44 1 43 12
M  V30 45 1 44 12
M  V30 46 1 45 12
M  V30 47 1 46 13
M  V30 48 1 15 47 CFG=1
M  V30 49 1 48 16
M  V30 50 1 49 16
M  V30 51 1 17 50 CFG=1
M  V30 52 1 51 18
M  V30 53 1 52 20
M  V30 54 1 53 20
M  V30 55 1 54 21
M  V30 56 1 55 21
M  V30 57 1 56 21
M  V30 58 1 57 22
M  V30 59 1 58 22
M  V30 60 1 59 23
M  V30 61 1 60 23
M  V30 62 1 61 23
M  V30 63 1 62 24
M  V30 64 1 63 24
M  V30 65 1 64 26
M  V30 66 1 65 30
M  V30 67 1 66 30
M  V30 68 1 67 31
M  V30 69 1 68 31
M  V30 70 1 32 69 CFG=3
M  V30 71 1 70 34
M  V30 72 1 71 6
M  V30 END BOND
M  V30 END CTAB
M  END
>  <i_epik_Tot_Q>  (1) 
-1

>  <i_epik_Tot_abs_Q>  (1) 
1

>  <i_i_glide_confnum>  (1) 
4369

>  <i_i_glide_lignum>  (1) 
43

>  <i_i_glide_posenum>  (1) 
198

>  <i_i_glide_rotatable_bonds>  (1) 
15

>  <i_lp_mmshare_version>  (1) 
72125

>  <i_m_source_file_index>  (1) 
11

>  <i_f3d_flags>  (1) 
0

>  <num_sample>  (1) 
50

>  <b_lp_Chiralities_Consistent>  (1) 
1

>  <r_epik_Charging_Adjusted_Penalty>  (1) 
1.239197207418439

>  <r_epik_Ionization_Penalty>  (1) 
1.2496715491914541

>  <r_epik_Ionization_Penalty_Charging>  (1) 
1.1069707349969355e-11

>  <r_epik_Ionization_Penalty_Neutral>  (1) 
1.2496715491803843

>  <r_epik_State_Penalty>  (1) 
1.2391972074073692

>  <r_glide_ring_energy>  (1) 
1.5860422424225022

>  <r_i_docking_score>  (1) 
-1.3862059854322808

>  <r_i_glide_ecoul>  (1) 
-3.4667307762428781

>  <r_i_glide_eff_state_penalty>  (1) 
1.2391972074073692

>  <r_i_glide_einternal>  (1) 
9.833851489865026

>  <r_i_glide_emodel>  (1) 
-29.90858662369746

>  <r_i_glide_emodel_strain>  (1) 
1.1603727298249851

>  <r_i_glide_energy>  (1) 
-30.009998811973148

>  <r_i_glide_erotb>  (1) 
0.82803537691766171

>  <r_i_glide_esite>  (1) 
-0.10720827312859511

>  <r_i_glide_evdw>  (1) 
-26.543268035730271

>  <r_i_glide_gscore>  (1) 
-2.62540319283965

>  <r_i_glide_gscore_strain>  (1) 
0

>  <r_i_glide_hbond>  (1) 
-0.32000000000000001

>  <r_i_glide_ligand_efficiency>  (1) 
-0.040770764277420025

>  <r_i_glide_ligand_efficiency_ln>  (1) 
-0.30625178394286923

>  <r_i_glide_ligand_efficiency_sa>  (1) 
-0.13208144910023237

>  <r_i_glide_lipo>  (1) 
-0.7993423164714738

>  <r_i_glide_metal>  (1) 
-0

>  <r_i_glide_rewards>  (1) 
-0.37971496193429766

>  <r_lp_Energy>  (1) 
20.991564

>  <s_epik_Chemistry_Notes>  (1) 
This compound has an imine and may undergo hydrolysis. This compound contains an acetal/aminal-like group ( X-CH(R)-Y where X, Y are N, S, or O) that may be acid/base labile, releasing an aldehyde.

>  <s_epik_cmdline>  (1) 
J2VwaWtfcHl0aG9uJywgJy1waHQnLCAnMS4wJywgJy1waCcsICc3LjQnLCAnLXRuJywgJzgnLCAnLW1hJywgJzUwMCcsICctaW1hZScsICc8aW5maWxlLm1hZT4nLCAnLW9tYWUnLCAnPG91dGZpbGUubWFlPic=

>  <s_epik_input>  (1) 
W1NIXVMoPU8pKD1PKVtDQEBdMShbQ0gyXVtDSDNdKVtDQEBdKFtDSDNdKShbQ0BASF0xW09IXSlPW0NASF0oW0NAQEhdMltDSDNdKVtOSF1bQ0BASF0oRilbQ0BIXTJbQ0gyXS9bQ0hdPVtDSF1cQyhbQ0gyXVtOSDJdKT1OXEMoPU5cW0hdKVxbQ0gyXVtDSDJdW0NIMl1bTkhdW0NIMl1bT0hd

>  <s_glide_docking_method>  (1) 
confgen

>  <s_i_glide_gridfile>  (1) 
gpcr_drd2_6luq_protein_autoprepared_prepared

>  <s_lp_Force_Field>  (1) 
S-OPLS

>  <s_lp_Variant>  (1) 
DiffSBDD_10_num_sample_50-23

>  <s_m_source_file>  (1) 
generated__ligand_DiffSBDD_2026-05-06_prepared.sdf

>  <GenAI_Model>  (1) 
DiffSBDD

>  <Protein>  (1) 
generic_title2

$$$$
DiffSBDD_40_num_sample_50
     RDKit          3D

  0  0  0  0  0  0  0  0  0  0999 V3000
M  V30 BEGIN CTAB
M  V30 COUNTS 79 82 0 0 1
M  V30 BEGIN ATOM
M  V30 1 C 22.221751 18.004000 -20.328223 0 CFG=1
M  V30 2 S 17.896462 22.910807 -15.134206 0
M  V30 3 C 17.111703 19.815687 -18.744437 0
M  V30 4 C 21.526281 15.307301 -21.784763 0 CFG=2
M  V30 5 C 18.116248 20.707312 -18.657187 0
M  V30 6 C 22.868548 14.566800 -17.080659 0
M  V30 7 C 21.852122 16.666972 -19.613502 0 CFG=2
M  V30 8 C 23.141643 15.797031 -16.598651 0
M  V30 9 C 20.921075 15.770239 -20.464711 0
M  V30 10 C 21.256425 19.206981 -20.192020 0
M  V30 11 C 20.112068 21.260569 -15.371247 0
M  V30 12 C 24.194088 15.966211 -15.511627 0 CFG=1
M  V30 13 C 18.505625 21.371160 -17.339560 0 CFG=1
M  V30 14 C 22.742383 18.202220 -16.650277 0
M  V30 15 C 24.868940 17.338133 -15.618071 0 CFG=2
M  V30 16 C 22.421299 16.975823 -17.117280 0
M  V30 17 C 18.944968 21.123258 -19.871233 0 CFG=1
M  V30 18 C 19.108301 21.801047 -14.331458 0 CFG=2
M  V30 19 S 19.566301 23.072487 -21.698559 0
M  V30 20 C 21.437562 13.764678 -22.074040 0
M  V30 21 F 25.755184 17.508255 -14.637069 0
M  V30 22 C 21.315689 16.827207 -18.162394 0
M  V30 23 C 23.829514 18.466227 -15.623139 0
M  V30 24 C 17.315368 21.839506 -16.486377 0
M  V30 25 F 23.622375 15.842658 -14.313257 0
M  V30 26 O 21.386732 13.380773 -23.239766 0
M  V30 27 O 19.044341 20.121461 -20.881718 0
M  V30 28 O 23.486895 18.428123 -19.862472 0
M  V30 29 C 18.364468 22.386621 -20.525737 0
M  V30 30 C 20.706111 18.035587 -13.315506 0
M  V30 31 N 17.843554 18.969733 -12.136206 0
M  V30 32 C 19.788129 18.943331 -20.585569 0
M  V30 33 N 17.055449 20.662436 -13.368271 0
M  V30 34 O 22.533993 14.461663 -21.586302 0
M  V30 35 C 18.907975 19.690841 -12.739192 0
M  V30 36 C 19.452354 20.480606 -16.518787 0
M  V30 37 C 18.415308 20.744642 -13.509137 0
M  V30 38 C 16.796773 19.642142 -12.585065 0
M  V30 39 C 20.332163 19.284571 -12.506609 0
M  V30 40 H 22.362875 17.809035 -21.390475 0
M  V30 41 H 16.539559 19.532319 -17.874686 0
M  V30 42 H 16.852561 19.359943 -19.689391 0
M  V30 43 H 21.768270 16.012459 -22.576624 0
M  V30 44 H 23.389029 13.698017 -16.704668 0
M  V30 45 H 22.130029 14.410561 -17.849848 0
M  V30 46 H 22.775570 16.090359 -19.538280 0
M  V30 47 H 20.635396 14.895859 -19.880955 0
M  V30 48 H 19.993305 16.287041 -20.691400 0
M  V30 49 H 21.296343 19.591147 -19.174272 0
M  V30 50 H 21.634293 20.011789 -20.824088 0
M  V30 51 H 20.669227 22.098800 -15.791416 0
M  V30 52 H 20.860812 20.633019 -14.892974 0
M  V30 53 H 24.944427 15.177127 -15.581022 0
M  V30 54 H 19.052528 22.274980 -17.612791 0
M  V30 55 H 22.214376 19.066691 -17.019516 0
M  V30 56 H 25.444767 17.379050 -16.543836 0
M  V30 57 H 19.946578 21.367819 -19.517315 0
M  V30 58 H 19.667127 22.427436 -13.635958 0
M  V30 59 H 20.565085 23.177291 -20.817301 0
M  V30 60 H 20.633538 17.671677 -18.084552 0
M  V30 61 H 20.689382 15.981820 -17.878696 0
M  V30 62 H 24.315861 19.413429 -15.855776 0
M  V30 63 H 23.370238 18.580305 -14.641783 0
M  V30 64 H 16.607994 22.406986 -17.092561 0
M  V30 65 H 16.769716 20.991279 -16.072765 0
M  V30 66 H 23.783647 19.146461 -20.400618 0
M  V30 67 H 17.433688 22.163592 -21.046740 0
M  V30 68 H 18.145539 23.146543 -19.775746 0
M  V30 69 H 21.735533 17.736470 -13.121583 0
M  V30 70 H 20.062738 17.193992 -13.053861 0
M  V30 71 H 20.602475 18.210520 -14.386868 0
M  V30 72 H 19.762830 18.350870 -21.499345 0
M  V30 73 H 19.277375 18.363487 -19.818043 0
M  V30 74 H 16.374387 21.278481 -13.793559 0
M  V30 75 H 18.918128 19.613258 -16.128932 0
M  V30 76 H 20.231893 20.090388 -17.168833 0
M  V30 77 H 15.790538 19.366186 -12.321049 0
M  V30 78 H 21.015453 20.102181 -12.733581 0
M  V30 79 H 20.477350 19.074104 -11.446688 0
M  V30 END ATOM
M  V30 BEGIN BOND
M  V30 1 2 5 3
M  V30 2 1 7 1
M  V30 3 2 8 6
M  V30 4 1 9 4
M  V30 5 1 9 7
M  V30 6 1 10 1
M  V30 7 1 12 8
M  V30 8 1 13 5
M  V30 9 1 15 12
M  V30 10 1 16 8
M  V30 11 2 16 14
M  V30 12 1 17 5
M  V30 13 1 18 2
M  V30 14 1 18 11
M  V30 15 1 20 4
M  V30 16 1 21 15
M  V30 17 1 22 7
M  V30 18 1 22 16
M  V30 19 1 23 14
M  V30 20 1 23 15
M  V30 21 1 24 2
M  V30 22 1 24 13
M  V30 23 1 25 12
M  V30 24 2 26 20
M  V30 25 1 27 17
M  V30 26 1 28 1
M  V30 27 1 29 17
M  V30 28 1 29 19
M  V30 29 1 32 10
M  V30 30 1 32 27
M  V30 31 1 34 4
M  V30 32 1 34 20
M  V30 33 1 35 31
M  V30 34 1 36 11
M  V30 35 1 36 13
M  V30 36 1 37 18
M  V30 37 1 37 33
M  V30 38 2 37 35
M  V30 39 2 38 31
M  V30 40 1 38 33
M  V30 41 1 39 30
M  V30 42 1 39 35
M  V30 43 1 1 40 CFG=3
M  V30 44 1 41 3
M  V30 45 1 42 3
M  V30 46 1 4 43 CFG=3
M  V30 47 1 44 6
M  V30 48 1 45 6
M  V30 49 1 7 46 CFG=1
M  V30 50 1 47 9
M  V30 51 1 48 9
M  V30 52 1 49 10
M  V30 53 1 50 10
M  V30 54 1 51 11
M  V30 55 1 52 11
M  V30 56 1 12 53 CFG=3
M  V30 57 1 13 54 CFG=3
M  V30 58 1 55 14
M  V30 59 1 15 56 CFG=3
M  V30 60 1 17 57 CFG=1
M  V30 61 1 18 58 CFG=1
M  V30 62 1 59 19
M  V30 63 1 60 22
M  V30 64 1 61 22
M  V30 65 1 62 23
M  V30 66 1 63 23
M  V30 67 1 64 24
M  V30 68 1 65 24
M  V30 69 1 66 28
M  V30 70 1 67 29
M  V30 71 1 68 29
M  V30 72 1 69 30
M  V30 73 1 70 30
M  V30 74 1 71 30
M  V30 75 1 72 32
M  V30 76 1 73 32
M  V30 77 1 74 33
M  V30 78 1 75 36
M  V30 79 1 76 36
M  V30 80 1 77 38
M  V30 81 1 78 39
M  V30 82 1 79 39
M  V30 END BOND
M  V30 END CTAB
M  END
>  <i_epik_Tot_Q>  (1) 
0

>  <i_epik_Tot_abs_Q>  (1) 
0

>  <i_i_glide_confnum>  (1) 
3049

>  <i_i_glide_lignum>  (1) 
99

>  <i_i_glide_posenum>  (1) 
393

>  <i_i_glide_rotatable_bonds>  (1) 
16

>  <i_lp_mmshare_version>  (1) 
72125

>  <i_m_source_file_index>  (1) 
41

>  <i_f3d_flags>  (1) 
0

>  <num_sample>  (1) 
50

>  <b_lp_Chiralities_Consistent>  (1) 
1

>  <r_epik_Charging_Adjusted_Penalty>  (1) 
1.047397364093839

>  <r_epik_Ionization_Penalty>  (1) 
0.40552415828257216

>  <r_epik_Ionization_Penalty_Charging>  (1) 
0.39366408803935488

>  <r_epik_Ionization_Penalty_Neutral>  (1) 
0.011860070243217283

>  <r_epik_State_Penalty>  (1) 
0.65373327605448417

>  <r_glide_ring_energy>  (1) 
0

>  <r_i_docking_score>  (1) 
-0.9765141424120708

>  <r_i_glide_ecoul>  (1) 
-1.8952134629128459

>  <r_i_glide_eff_state_penalty>  (1) 
0.65373327605448417

>  <r_i_glide_einternal>  (1) 
26.058818054778222

>  <r_i_glide_emodel>  (1) 
-10.147860272924898

>  <r_i_glide_emodel_strain>  (1) 
0.11817272664185907

>  <r_i_glide_energy>  (1) 
-21.983892085631354

>  <r_i_glide_erotb>  (1) 
0.63692825108646745

>  <r_i_glide_esite>  (1) 
0

>  <r_i_glide_evdw>  (1) 
-20.088678622718508

>  <r_i_glide_gscore>  (1) 
-1.630247418466555

>  <r_i_glide_gscore_strain>  (1) 
0

>  <r_i_glide_hbond>  (1) 
-0.040513562809576076

>  <r_i_glide_ligand_efficiency>  (1) 
-0.025038824164412072

>  <r_i_glide_ligand_efficiency_ln>  (1) 
-0.20939235213551713

>  <r_i_glide_ligand_efficiency_sa>  (1) 
-0.084911947025973863

>  <r_i_glide_lipo>  (1) 
-0.52703908798896792

>  <r_i_glide_metal>  (1) 
-0

>  <r_i_glide_rewards>  (1) 
-0.41090706818162614

>  <r_lp_Energy>  (1) 
16.317681999999998

>  <r_lp_tautomer_probability>  (1) 
0.49999999999999867

>  <s_epik_Chemistry_Notes>  (1) 
This compound has an ester and may undergo hydrolysis at high or low pH.

>  <s_epik_cmdline>  (1) 
J2VwaWtfcHl0aG9uJywgJy1waHQnLCAnMS4wJywgJy1waCcsICc3LjQnLCAnLXRuJywgJzgnLCAnLW1hJywgJzUwMCcsICctaW1hZScsICc8aW5maWxlLm1hZT4nLCAnLW9tYWUnLCAnPG91dGZpbGUubWFlPic=

>  <s_epik_input>  (1) 
W0NIMl09QzFbQ0BIXShGKVtDQEhdKEYpW0NIMl1bQ0hdPUMxW0NIMl1bQ0BASF0oW0NIMl1bQ0BASF0yQyg9TylPMilbQ0BIXShbT0hdKVtDSDJdW0NIMl1PW0NAQEhdKFtDSDJdW1NIXSlDKD1bQ0gyXSlbQ0BIXTNbQ0gyXVNbQ0BIXShbQ0gyXVtDSDJdMylDND1OW0NIXT1OW0NAQEhdNFtDSDJdW0NIM10=

>  <s_glide_docking_method>  (1) 
confgen

>  <s_i_glide_gridfile>  (1) 
gpcr_drd2_6luq_protein_autoprepared_prepared

>  <s_lp_Force_Field>  (1) 
S-OPLS

>  <s_lp_Variant>  (1) 
DiffSBDD_40_num_sample_50-2

>  <s_m_source_file>  (1) 
generated__ligand_DiffSBDD_2026-05-06_prepared.sdf

>  <GenAI_Model>  (1) 
DiffSBDD

>  <Protein>  (1) 
generic_title2

$$$$
DiffSBDD_22_num_sample_50
     RDKit          3D

  0  0  0  0  0  0  0  0  0  0999 V3000
M  V30 BEGIN CTAB
M  V30 COUNTS 52 55 0 0 1
M  V30 BEGIN ATOM
M  V30 1 C 14.882698 3.107570 -19.508635 0
M  V30 2 C 16.610365 9.513940 -21.518556 0
M  V30 3 O 15.879689 10.468478 -21.769832 0
M  V30 4 C 16.501284 4.914692 -19.501649 0 CFG=1
M  V30 5 C 14.442121 1.878237 -18.741359 0
M  V30 6 C 16.020932 8.161685 -21.097214 0
M  V30 7 C 18.219526 5.846489 -16.924711 0
M  V30 8 S 17.562086 8.321312 -18.199010 0
M  V30 9 C 17.091373 6.665268 -17.564487 0 CFG=1
M  V30 10 C 16.110516 5.179503 -20.987058 0 CFG=2
M  V30 11 C 14.174293 3.685902 -20.509494 0
M  V30 12 O 13.899420 5.926521 -20.894996 0 CHG=-1
M  V30 13 C 16.029843 5.900657 -18.394203 0
M  V30 14 C 18.590668 6.694340 -21.597794 0 CFG=2
M  V30 15 C 18.143511 9.647185 -21.617794 0 CFG=1
M  V30 16 C 19.283575 7.536297 -22.678717 0
M  V30 17 S 16.775772 6.676067 -21.838672 0 CHG=1
M  V30 18 C 19.183770 6.956787 -20.191418 0
M  V30 19 C 14.041570 2.213838 -17.300126 0
M  V30 20 C 18.969804 9.551191 -20.304886 0
M  V30 21 C 14.621048 4.909774 -21.290085 0 CFG=1
M  V30 22 C 18.741246 8.958735 -22.863167 0
M  V30 23 C 18.914734 8.271086 -19.437579 0 CFG=1
M  V30 24 O 16.103537 3.602417 -19.088858 0
M  V30 25 H 17.572547 4.798760 -19.460272 0
M  V30 26 H 13.606580 1.405543 -19.259130 0
M  V30 27 H 15.260009 1.157833 -18.741800 0
M  V30 28 H 14.981761 8.173937 -21.424445 0
M  V30 29 H 15.951474 8.095629 -20.027391 0
M  V30 30 H 17.811408 5.055705 -16.294427 0
M  V30 31 H 18.831149 6.482655 -16.291422 0
M  V30 32 H 18.869985 5.372576 -17.644967 0
M  V30 33 H 16.514001 6.963835 -16.693686 0
M  V30 34 H 16.634707 4.382695 -21.517419 0
M  V30 35 H 13.224176 3.260199 -20.797064 0
M  V30 36 H 15.283889 6.597472 -18.767325 0
M  V30 37 H 15.457316 5.313290 -17.674156 0
M  V30 38 H 18.882500 5.669243 -21.830563 0
M  V30 39 H 18.236972 10.700799 -21.886374 0
M  V30 40 H 20.353094 7.588169 -22.470416 0
M  V30 41 H 19.214730 7.017256 -23.635730 0
M  V30 42 H 19.049449 6.116030 -19.543162 0
M  V30 43 H 20.265388 6.926249 -20.329494 0
M  V30 44 H 13.734719 1.316883 -16.761582 0
M  V30 45 H 13.206035 2.914767 -17.280106 0
M  V30 46 H 14.869579 2.664512 -16.752041 0
M  V30 47 H 20.012939 9.731562 -20.568755 0
M  V30 48 H 18.702686 10.395843 -19.668170 0
M  V30 49 H 14.588041 4.589444 -22.332530 0
M  V30 50 H 17.986772 8.938027 -23.651240 0
M  V30 51 H 19.542733 9.580654 -23.264537 0
M  V30 52 H 19.770268 8.359312 -18.766348 0
M  V30 END ATOM
M  V30 BEGIN BOND
M  V30 1 2 3 2
M  V30 2 1 5 1
M  V30 3 1 6 2
M  V30 4 1 9 7
M  V30 5 1 9 8
M  V30 6 1 10 4
M  V30 7 2 11 1
M  V30 8 1 13 4
M  V30 9 1 13 9
M  V30 10 1 15 2
M  V30 11 1 16 14
M  V30 12 1 17 6 CFG=1
M  V30 13 1 17 10
M  V30 14 1 17 14
M  V30 15 1 18 14
M  V30 16 1 19 5
M  V30 17 1 20 15
M  V30 18 1 21 10
M  V30 19 1 21 11
M  V30 20 1 21 12
M  V30 21 1 22 15
M  V30 22 1 22 16
M  V30 23 1 23 8
M  V30 24 1 23 18
M  V30 25 1 23 20
M  V30 26 1 24 1
M  V30 27 1 24 4
M  V30 28 1 4 25 CFG=3
M  V30 29 1 26 5
M  V30 30 1 27 5
M  V30 31 1 28 6
M  V30 32 1 29 6
M  V30 33 1 30 7
M  V30 34 1 31 7
M  V30 35 1 32 7
M  V30 36 1 9 33 CFG=1
M  V30 37 1 10 34 CFG=3
M  V30 38 1 35 11
M  V30 39 1 36 13
M  V30 40 1 37 13
M  V30 41 1 14 38 CFG=3
M  V30 42 1 15 39 CFG=3
M  V30 43 1 40 16
M  V30 44 1 41 16
M  V30 45 1 42 18
M  V30 46 1 43 18
M  V30 47 1 44 19
M  V30 48 1 45 19
M  V30 49 1 46 19
M  V30 50 1 47 20
M  V30 51 1 48 20
M  V30 52 1 21 49 CFG=3
M  V30 53 1 50 22
M  V30 54 1 51 22
M  V30 55 1 23 52 CFG=1
M  V30 END BOND
M  V30 END CTAB
M  END
>  <i_epik_Tot_Q>  (1) 
0

>  <i_epik_Tot_abs_Q>  (1) 
2

>  <i_i_glide_confnum>  (1) 
1

>  <i_i_glide_lignum>  (1) 
61

>  <i_i_glide_posenum>  (1) 
43

>  <i_i_glide_rotatable_bonds>  (1) 
1

>  <i_lp_mmshare_version>  (1) 
72125

>  <i_m_source_file_index>  (1) 
23

>  <i_f3d_flags>  (1) 
0

>  <num_sample>  (1) 
50

>  <b_lp_Chiralities_Consistent>  (1) 
1

>  <r_epik_Charging_Adjusted_Penalty>  (1) 
2.5364808915735653

>  <r_epik_Ionization_Penalty>  (1) 
1.2682404535084562

>  <r_epik_Ionization_Penalty_Charging>  (1) 
1.2682404457867826

>  <r_epik_Ionization_Penalty_Neutral>  (1) 
7.7216734539902007e-09

>  <r_epik_State_Penalty>  (1) 
1.2682404457867826

>  <r_glide_ring_energy>  (1) 
0

>  <r_i_docking_score>  (1) 
-0.95036110319105394

>  <r_i_glide_ecoul>  (1) 
0.99432832840291718

>  <r_i_glide_eff_state_penalty>  (1) 
1.2682404457867826

>  <r_i_glide_einternal>  (1) 
0.29788073619197925

>  <r_i_glide_emodel>  (1) 
-1343.3475746619911

>  <r_i_glide_emodel_strain>  (1) 
8.1934640263625624e-06

>  <r_i_glide_energy>  (1) 
-12.335593836849071

>  <r_i_glide_erotb>  (1) 
0

>  <r_i_glide_esite>  (1) 
0

>  <r_i_glide_evdw>  (1) 
-13.329922165251988

>  <r_i_glide_gscore>  (1) 
-2.2186015489778366

>  <r_i_glide_gscore_strain>  (1) 
0

>  <r_i_glide_hbond>  (1) 
0

>  <r_i_glide_ligand_efficiency>  (1) 
-0.03959837929962725

>  <r_i_glide_ligand_efficiency_ln>  (1) 
-0.22746502122302922

>  <r_i_glide_ligand_efficiency_sa>  (1) 
-0.11422149105951435

>  <r_i_glide_lipo>  (1) 
-0.80059314573784879

>  <r_i_glide_metal>  (1) 
-0

>  <r_i_glide_rewards>  (1) 
-0.90066154423782596

>  <r_lp_Energy>  (1) 
33.996235999999996

>  <s_epik_cmdline>  (1) 
J2VwaWtfcHl0aG9uJywgJy1waHQnLCAnMS4wJywgJy1waCcsICc3LjQnLCAnLXRuJywgJzgnLCAnLW1hJywgJzUwMCcsICctaW1hZScsICc8aW5maWxlLm1hZT4nLCAnLW9tYWUnLCAnPG91dGZpbGUubWFlPic=

>  <s_epik_input>  (1) 
W0NIM11bQ0gyXUMoTzEpPVtDSF1bQ0BASF0oW09IXSlbQ0BIXShbQ0BIXTEyKVtTK10zW0NASF00W0NIMl1bQ0gyXVtDQEBIXShDKD1PKVtDSDJdMylbQ0gyXVtDQEhdKFtDSDJdNClTW0NASF0oW0NIM10pW0NIMl0y

>  <s_glide_docking_method>  (1) 
confgen

>  <s_i_glide_gridfile>  (1) 
gpcr_drd2_6luq_protein_autoprepared_prepared

>  <s_lp_Force_Field>  (1) 
S-OPLS

>  <s_lp_Variant>  (1) 
DiffSBDD_22_num_sample_50-2

>  <s_m_source_file>  (1) 
generated__ligand_DiffSBDD_2026-05-06_prepared.sdf

>  <GenAI_Model>  (1) 
DiffSBDD

>  <Protein>  (1) 
generic_title2

$$$$
DiffSBDD_10_num_sample_50
     RDKit          3D

  0  0  0  0  0  0  0  0  0  0999 V3000
M  V30 BEGIN CTAB
M  V30 COUNTS 71 72 0 0 1
M  V30 BEGIN ATOM
M  V30 1 C 10.879758 0.628001 -19.516296 0 CFG=2
M  V30 2 C 8.517486 5.770862 -10.073807 0
M  V30 3 C 8.342400 4.293002 -12.787757 0
M  V30 4 C 7.163269 2.144912 -15.634572 0 CFG=1
M  V30 5 C 9.378686 0.661230 -19.355464 0 CFG=2
M  V30 6 N 10.215743 7.138080 -11.122985 0
M  V30 7 N 7.800011 -0.020064 -16.638894 0
M  V30 8 C 7.646378 0.949087 -17.691840 0 CFG=1
M  V30 9 S 11.535661 0.647113 -21.181687 0
M  V30 10 C 9.232049 5.526546 -8.755333 0
M  V30 11 S 13.417718 -0.252064 -20.817169 0 CHG=-1
M  V30 12 C 12.007843 2.841138 -18.796348 0
M  V30 13 O 10.965132 8.727132 -6.651766 0
M  V30 14 O 10.781639 -0.289213 -22.028512 0
M  V30 15 C 10.140636 -0.610821 -19.069973 0 CFG=2
M  V30 16 C 7.107934 5.931212 -14.276893 0
M  V30 17 C 8.064711 0.927970 -15.428859 0 CFG=2
M  V30 18 N 10.203217 6.595472 -6.781528 0
M  V30 19 N 8.261335 6.675023 -12.271424 0
M  V30 20 C 9.227684 6.763406 -7.847062 0
M  V30 21 C 7.339685 3.464029 -17.792837 0
M  V30 22 C 11.718506 1.364016 -18.475403 0
M  V30 23 C 8.532817 0.708627 -20.624690 0
M  V30 24 C 7.836760 3.426688 -15.152766 0
M  V30 25 C 7.944398 5.697002 -13.029768 0
M  V30 26 O 10.276381 -1.002175 -17.722192 0
M  V30 27 C 8.995545 6.494090 -11.104915 0
M  V30 28 O 11.761168 2.026421 -21.641434 0
M  V30 29 F 7.914939 0.285959 -14.216510 0
M  V30 30 N 6.836483 7.341709 -14.488338 0
M  V30 31 C 10.220701 7.771219 -5.935064 0
M  V30 32 C 6.880895 2.166124 -17.134332 0 CFG=2
M  V30 33 O 8.855445 1.370036 -18.254594 0
M  V30 34 C 8.308030 3.312271 -13.710479 0
M  V30 35 H 7.543421 5.310543 -10.163550 0
M  V30 36 H 8.680492 4.083354 -11.783743 0
M  V30 37 H 6.233555 2.033255 -15.076660 0
M  V30 38 H 10.860607 7.071231 -10.348459 0
M  V30 39 H 8.533318 -0.678338 -16.860337 0
M  V30 40 H 7.043801 0.497064 -18.480344 0
M  V30 41 H 10.261559 5.250070 -8.983472 0
M  V30 42 H 8.798927 4.676345 -8.228048 0
M  V30 43 H 12.615279 3.287562 -18.009227 0
M  V30 44 H 12.557997 2.947423 -19.730510 0
M  V30 45 H 11.102621 3.438506 -18.879747 0
M  V30 46 H 11.857835 8.703143 -6.342685 0
M  V30 47 H 10.045872 -1.427444 -19.785687 0
M  V30 48 H 7.621602 5.531571 -15.152035 0
M  V30 49 H 6.164074 5.393849 -14.180695 0
M  V30 50 H 9.083549 1.311745 -15.481633 0
M  V30 51 H 9.957858 5.789186 -6.223733 0
M  V30 52 H 8.231787 6.920495 -7.430791 0
M  V30 53 H 9.477437 7.651702 -8.428754 0
M  V30 54 H 8.416865 3.607353 -17.705688 0
M  V30 55 H 7.086436 3.478661 -18.853285 0
M  V30 56 H 6.851425 4.330271 -17.347521 0
M  V30 57 H 11.207150 1.289859 -17.515252 0
M  V30 58 H 12.672516 0.857859 -18.341595 0
M  V30 59 H 8.983063 0.151083 -21.440466 0
M  V30 60 H 7.551206 0.269044 -20.453176 0
M  V30 61 H 8.402791 1.741158 -20.948790 0
M  V30 62 H 7.134337 4.253334 -15.252892 0
M  V30 63 H 8.691699 3.668444 -15.784720 0
M  V30 64 H 10.977217 -1.637485 -17.688232 0
M  V30 65 H 6.373517 7.701849 -13.664960 0
M  V30 66 H 7.710582 7.840969 -14.565295 0
M  V30 67 H 10.689503 7.568196 -4.971605 0
M  V30 68 H 9.207248 8.135313 -5.761859 0
M  V30 69 H 5.811398 2.064965 -17.318842 0
M  V30 70 H 8.642770 2.330046 -13.410214 0
M  V30 71 H 10.515645 7.691642 -11.911727 0
M  V30 END ATOM
M  V30 BEGIN BOND
M  V30 1 1 5 1
M  V30 2 1 8 7
M  V30 3 1 9 1
M  V30 4 1 10 2
M  V30 5 1 11 9
M  V30 6 2 14 9
M  V30 7 1 15 1
M  V30 8 1 15 5
M  V30 9 1 17 4
M  V30 10 1 17 7
M  V30 11 1 20 10
M  V30 12 1 20 18
M  V30 13 1 1 22 CFG=1
M  V30 14 1 22 12
M  V30 15 1 23 5
M  V30 16 1 24 4
M  V30 17 1 25 3
M  V30 18 1 25 16
M  V30 19 2 25 19
M  V30 20 1 26 15
M  V30 21 2 27 2
M  V30 22 1 27 6
M  V30 23 1 27 19
M  V30 24 2 28 9
M  V30 25 1 29 17
M  V30 26 1 30 16
M  V30 27 1 31 13
M  V30 28 1 31 18
M  V30 29 1 32 4
M  V30 30 1 32 8
M  V30 31 1 32 21
M  V30 32 1 5 33 CFG=1
M  V30 33 1 33 8
M  V30 34 2 34 3
M  V30 35 1 34 24
M  V30 36 1 35 2
M  V30 37 1 36 3
M  V30 38 1 4 37 CFG=1
M  V30 39 1 38 6
M  V30 40 1 39 7
M  V30 41 1 8 40 CFG=3
M  V30 42 1 41 10
M  V30 43 1 42 10
M  V30 44 1 43 12
M  V30 45 1 44 12
M  V30 46 1 45 12
M  V30 47 1 46 13
M  V30 48 1 15 47 CFG=3
M  V30 49 1 48 16
M  V30 50 1 49 16
M  V30 51 1 17 50 CFG=3
M  V30 52 1 51 18
M  V30 53 1 52 20
M  V30 54 1 53 20
M  V30 55 1 54 21
M  V30 56 1 55 21
M  V30 57 1 56 21
M  V30 58 1 57 22
M  V30 59 1 58 22
M  V30 60 1 59 23
M  V30 61 1 60 23
M  V30 62 1 61 23
M  V30 63 1 62 24
M  V30 64 1 63 24
M  V30 65 1 64 26
M  V30 66 1 65 30
M  V30 67 1 66 30
M  V30 68 1 67 31
M  V30 69 1 68 31
M  V30 70 1 32 69 CFG=1
M  V30 71 1 70 34
M  V30 72 1 71 6
M  V30 END BOND
M  V30 END CTAB
M  END
>  <i_epik_Tot_Q>  (1) 
-1

>  <i_epik_Tot_abs_Q>  (1) 
1

>  <i_i_glide_confnum>  (1) 
4546

>  <i_i_glide_lignum>  (1) 
41

>  <i_i_glide_posenum>  (1) 
386

>  <i_i_glide_rotatable_bonds>  (1) 
15

>  <i_lp_mmshare_version>  (1) 
72125

>  <i_m_source_file_index>  (1) 
11

>  <i_f3d_flags>  (1) 
0

>  <num_sample>  (1) 
50

>  <b_lp_Chiralities_Consistent>  (1) 
1

>  <r_epik_Charging_Adjusted_Penalty>  (1) 
1.239197207418439

>  <r_epik_Ionization_Penalty>  (1) 
1.2496715491914541

>  <r_epik_Ionization_Penalty_Charging>  (1) 
1.1069707349969355e-11

>  <r_epik_Ionization_Penalty_Neutral>  (1) 
1.2496715491803843

>  <r_epik_State_Penalty>  (1) 
1.2391972074073692

>  <r_glide_ring_energy>  (1) 
0

>  <r_i_docking_score>  (1) 
-0.60238686421150467

>  <r_i_glide_ecoul>  (1) 
2.3134331460963171

>  <r_i_glide_eff_state_penalty>  (1) 
1.2391972074073692

>  <r_i_glide_einternal>  (1) 
15.261826003397029

>  <r_i_glide_emodel>  (1) 
-20.956400211853904

>  <r_i_glide_emodel_strain>  (1) 
2.3436764867987137

>  <r_i_glide_energy>  (1) 
-26.238449154609683

>  <r_i_glide_erotb>  (1) 
0.82803537691766171

>  <r_i_glide_esite>  (1) 
-0.03821325417121732

>  <r_i_glide_evdw>  (1) 
-28.551882300705998

>  <r_i_glide_gscore>  (1) 
-1.8415840716188738

>  <r_i_glide_gscore_strain>  (1) 
0

>  <r_i_glide_hbond>  (1) 
0

>  <r_i_glide_ligand_efficiency>  (1) 
-0.01771726071210308

>  <r_i_glide_ligand_efficiency_ln>  (1) 
-0.13308415468354401

>  <r_i_glide_ligand_efficiency_sa>  (1) 
-0.057397046889239051

>  <r_i_glide_lipo>  (1) 
-1.0021680922806322

>  <r_i_glide_metal>  (1) 
-0

>  <r_i_glide_rewards>  (1) 
-0.54865895896383399

>  <r_lp_Energy>  (1) 
23.213093000000001

>  <s_epik_Chemistry_Notes>  (1) 
This compound has an imine and may undergo hydrolysis. This compound contains an acetal/aminal-like group ( X-CH(R)-Y where X, Y are N, S, or O) that may be acid/base labile, releasing an aldehyde.

>  <s_epik_cmdline>  (1) 
J2VwaWtfcHl0aG9uJywgJy1waHQnLCAnMS4wJywgJy1waCcsICc3LjQnLCAnLXRuJywgJzgnLCAnLW1hJywgJzUwMCcsICctaW1hZScsICc8aW5maWxlLm1hZT4nLCAnLW9tYWUnLCAnPG91dGZpbGUubWFlPic=

>  <s_epik_input>  (1) 
W1NIXVMoPU8pKD1PKVtDQEBdMShbQ0gyXVtDSDNdKVtDQEBdKFtDSDNdKShbQ0BASF0xW09IXSlPW0NASF0oW0NAQEhdMltDSDNdKVtOSF1bQ0BASF0oRilbQ0BIXTJbQ0gyXS9bQ0hdPVtDSF1cQyhbQ0gyXVtOSDJdKT1OL0MoPU4vW0hdKS9bQ0gyXVtDSDJdW0NIMl1bTkhdW0NIMl1bT0hd

>  <s_glide_docking_method>  (1) 
confgen

>  <s_i_glide_gridfile>  (1) 
gpcr_drd2_6luq_protein_autoprepared_prepared

>  <s_lp_Force_Field>  (1) 
S-OPLS

>  <s_lp_Variant>  (1) 
DiffSBDD_10_num_sample_50-21

>  <s_m_source_file>  (1) 
generated__ligand_DiffSBDD_2026-05-06_prepared.sdf

>  <GenAI_Model>  (1) 
DiffSBDD

>  <Protein>  (1) 
generic_title2

$$$$
DiffSBDD_30_num_sample_50
     RDKit          3D

  0  0  0  0  0  0  0  0  0  0999 V3000
M  V30 BEGIN CTAB
M  V30 COUNTS 51 53 0 0 1
M  V30 BEGIN ATOM
M  V30 1 C 23.632640 10.275621 -18.789925 0 CFG=1
M  V30 2 O 21.098814 9.369293 -18.267092 0 CHG=-1
M  V30 3 C 21.600792 17.624824 -14.621430 0
M  V30 4 N 22.432695 11.130227 -18.673427 0
M  V30 5 C 24.903715 12.281586 -17.932920 0
M  V30 6 C 23.203005 16.414763 -16.015418 0
M  V30 7 O 20.233934 11.365131 -18.291057 0
M  V30 8 C 22.712038 17.084239 -17.154449 0
M  V30 9 C 24.310536 5.284876 -23.135748 0
M  V30 10 C 24.437639 9.726966 -22.501298 0
M  V30 11 C 21.214247 10.604733 -18.400978 0
M  V30 12 C 22.646270 16.688798 -14.745921 0
M  V30 13 C 21.111598 18.290772 -15.761585 0
M  V30 14 F 20.110533 19.194608 -15.640117 0
M  V30 15 O 22.661838 6.525548 -21.846075 0
M  V30 16 C 23.168744 8.363166 -20.388300 0
M  V30 17 C 23.868988 8.457449 -22.723815 0
M  V30 18 O 24.228973 15.508643 -16.147247 0
M  V30 19 C 23.732009 9.635752 -20.167176 0
M  V30 20 C 24.024692 14.206657 -15.601640 0
M  V30 21 C 23.108510 13.377251 -16.517807 0
M  V30 22 C 21.666135 18.020180 -17.027624 0
M  V30 23 C 24.888259 10.997483 -18.323568 0
M  V30 24 C 22.866233 5.787543 -23.041992 0
M  V30 25 C 22.621308 12.577296 -18.890888 0
M  V30 26 C 23.674236 13.168455 -17.936112 0 CFG=2
M  V30 27 C 23.231459 7.769402 -21.659577 0
M  V30 28 C 24.368563 10.317265 -21.225468 0
M  V30 29 H 23.548142 9.460950 -18.067575 0
M  V30 30 H 21.176837 17.834837 -13.650663 0
M  V30 31 H 25.826090 12.731502 -17.603165 0
M  V30 32 H 23.137735 16.879159 -18.125889 0
M  V30 33 H 24.395597 4.444085 -23.822814 0
M  V30 34 H 25.004561 6.056127 -23.466438 0
M  V30 35 H 24.634665 4.961229 -22.151696 0
M  V30 36 H 24.923232 10.249996 -23.311810 0
M  V30 37 H 23.024317 16.186868 -13.869828 0
M  V30 38 H 22.678571 7.842802 -19.578186 0
M  V30 39 H 23.921662 8.018054 -23.705903 0
M  V30 40 H 23.620801 14.230527 -14.590537 0
M  V30 41 H 24.997941 13.724386 -15.513781 0
M  V30 42 H 22.137653 13.869693 -16.586644 0
M  V30 43 H 22.913961 12.406694 -16.059124 0
M  V30 44 H 21.291044 18.532176 -17.901512 0
M  V30 45 H 25.798501 10.419119 -18.302373 0
M  V30 46 H 22.202669 4.924101 -22.987643 0
M  V30 47 H 22.553060 6.347533 -23.919426 0
M  V30 48 H 22.962246 12.698039 -19.919715 0
M  V30 49 H 21.703291 13.162341 -18.831433 0
M  V30 50 H 23.967440 14.137535 -18.340760 0
M  V30 51 H 24.798598 11.294009 -21.059389 0
M  V30 END ATOM
M  V30 BEGIN BOND
M  V30 1 1 4 1
M  V30 2 2 8 6
M  V30 3 1 11 2
M  V30 4 1 11 4
M  V30 5 2 11 7
M  V30 6 2 12 3
M  V30 7 1 12 6
M  V30 8 1 13 3
M  V30 9 1 14 13
M  V30 10 2 17 10
M  V30 11 1 18 6
M  V30 12 1 19 1
M  V30 13 1 19 16
M  V30 14 1 20 18
M  V30 15 1 21 20
M  V30 16 1 22 8
M  V30 17 2 22 13
M  V30 18 1 23 1
M  V30 19 2 23 5
M  V30 20 1 24 9
M  V30 21 1 24 15
M  V30 22 1 25 4
M  V30 23 1 26 5
M  V30 24 1 26 21
M  V30 25 1 26 25
M  V30 26 1 27 15
M  V30 27 2 27 16
M  V30 28 1 27 17
M  V30 29 1 28 10
M  V30 30 2 28 19
M  V30 31 1 1 29 CFG=1
M  V30 32 1 30 3
M  V30 33 1 31 5
M  V30 34 1 32 8
M  V30 35 1 33 9
M  V30 36 1 34 9
M  V30 37 1 35 9
M  V30 38 1 36 10
M  V30 39 1 37 12
M  V30 40 1 38 16
M  V30 41 1 39 17
M  V30 42 1 40 20
M  V30 43 1 41 20
M  V30 44 1 42 21
M  V30 45 1 43 21
M  V30 46 1 44 22
M  V30 47 1 45 23
M  V30 48 1 46 24
M  V30 49 1 47 24
M  V30 50 1 48 25
M  V30 51 1 49 25
M  V30 52 1 26 50 CFG=3
M  V30 53 1 51 28
M  V30 END BOND
M  V30 END CTAB
M  END
>  <i_epik_Tot_Q>  (1) 
-1

>  <i_epik_Tot_abs_Q>  (1) 
1

>  <i_i_glide_confnum>  (1) 
388

>  <i_i_glide_lignum>  (1) 
77

>  <i_i_glide_posenum>  (1) 
374

>  <i_i_glide_rotatable_bonds>  (1) 
8

>  <i_lp_mmshare_version>  (1) 
72125

>  <i_m_source_file_index>  (1) 
31

>  <i_f3d_flags>  (1) 
0

>  <num_sample>  (1) 
50

>  <b_lp_Chiralities_Consistent>  (1) 
1

>  <r_epik_Charging_Adjusted_Penalty>  (1) 
0.0017651190196060487

>  <r_epik_Ionization_Penalty>  (1) 
0.001765159031891192

>  <r_epik_Ionization_Penalty_Charging>  (1) 
0.0017651190196060487

>  <r_epik_Ionization_Penalty_Neutral>  (1) 
4.0012285143307813e-08

>  <r_epik_State_Penalty>  (1) 
-0

>  <r_glide_ring_energy>  (1) 
1.1509255290509894

>  <r_i_docking_score>  (1) 
-0.27448913216082804

>  <r_i_glide_ecoul>  (1) 
1.3836784104976598

>  <r_i_glide_eff_state_penalty>  (1) 
-0

>  <r_i_glide_einternal>  (1) 
9.5762483806782619

>  <r_i_glide_emodel>  (1) 
-6.4198431855682543

>  <r_i_glide_emodel_strain>  (1) 
0.14256657374597381

>  <r_i_glide_energy>  (1) 
-10.946049231353514

>  <r_i_glide_erotb>  (1) 
0.6577867668732289

>  <r_i_glide_esite>  (1) 
0

>  <r_i_glide_evdw>  (1) 
-12.329727641851175

>  <r_i_glide_gscore>  (1) 
-0.27448913216082804

>  <r_i_glide_gscore_strain>  (1) 
0

>  <r_i_glide_hbond>  (1) 
0

>  <r_i_glide_ligand_efficiency>  (1) 
-0.0098031832914581441

>  <r_i_glide_ligand_efficiency_ln>  (1) 
-0.063360151053840047

>  <r_i_glide_ligand_efficiency_sa>  (1) 
-0.029768238272117564

>  <r_i_glide_lipo>  (1) 
-0.27616585875345828

>  <r_i_glide_metal>  (1) 
-0

>  <r_i_glide_rewards>  (1) 
-0.24717541976268875

>  <r_lp_Energy>  (1) 
49.407502999999998

>  <r_lp_tautomer_probability>  (1) 
1

>  <s_epik_cmdline>  (1) 
J2VwaWtfcHl0aG9uJywgJy1waHQnLCAnMS4wJywgJy1waCcsICc3LjQnLCAnLXRuJywgJzgnLCAnLW1hJywgJzUwMCcsICctaW1hZScsICc8aW5maWxlLm1hZT4nLCAnLW9tYWUnLCAnPG91dGZpbGUubWFlPic=

>  <s_epik_input>  (1) 
W0NIM11bQ0gyXU9jKFtjSF1bY0hdW2NIXTEpW2NIXWMxW0NAQEhdMk4oQyg9TylbT0hdKVtDSDJdW0NASF0oW0NIXT1bQ0hdMilbQ0gyXVtDSDJdT2MzW2NIXVtjSF1jKEYpW2NIXVtjSF0z

>  <s_glide_docking_method>  (1) 
confgen

>  <s_i_glide_gridfile>  (1) 
gpcr_drd2_6luq_protein_autoprepared_prepared

>  <s_lp_Force_Field>  (1) 
S-OPLS

>  <s_lp_Variant>  (1) 
DiffSBDD_30_num_sample_50-1

>  <s_m_source_file>  (1) 
generated__ligand_DiffSBDD_2026-05-06_prepared.sdf

>  <GenAI_Model>  (1) 
DiffSBDD

>  <Protein>  (1) 
generic_title2

$$$$
